data_image0
_chemical_formula_structural       H2CH3FeS2FeS2FeS2FeSFeS3FeS2FeS2FeSFeS3FeSHFeS2FeSFeS3CSCHC2SCH2C2HCH3C6H4NC6H4C6H4C6H4C6H2SH2CH3C2NC8H21CH3FeHNC8H21CH5NC5H13C3FeC6H9CH2SH10FeSCH5C2NH9CH5CH5CHC2H6CH5C2HC3H3C3H2SNH2C3H2CHCHCHCHCHC4H2NHNH4CH4SHFeS2FeS2FeSFeS3FeSNFeS2FeSFeS3FeS2FeS2FeSFeS3FeS2H3CHSC6HFeH2C6H5C7H4C6H4C6H4NH3CH2C5H3CH2CNC8H22CH2C3HCH3CNC4H6NHCSHNC8H20CH3FeHCHCHC2HNCH2NH2C2H4CH3CFeSCHCHC2H7CH5CH3CH4C2H3C2H5CH2C2H4CHCHSH2SH2C2HCH8C2H4NH2CH6CH8CH2C2H2CHCH2C2H3CHCSCFeS2FeS2FeS2FeSFeS3FeS2FeS2FeSFeCS2FeSFeS2FeSFeS3HS2C2HCH2C2HCH2C3H2C6H6C8H4C6H4C7H5CNH5C3H2CH2CH4CHCHCSH10FeCHCHC3H2C2NHCH2CH6NC6H15NC5NH12C2HFeH7FeH4SH2C2HCSH3NH2CH4C2H2C2H2CH4CHCHC2H3CH2CHCH2CH11C2H2SH4CHCH3NH2CHFeS2H6FeS2FeS2FeSFeS3FeS2FeS2FeSFeHS2FeSFeS2FeSFeS3HCSHC4H2CH2SC6H4C4H2C6H4C6H4NHCFeHCHC2HCHC6H7SNC8H21CH3CH5CHC2H2CH6CH2CHCH3CH2CH3CH6S2C2HNC7H18C2H3CH4SH4C2H4CHC2HNHCHNC2HC2HCHC2H2NC2H7SHCH3CH2C2H3SCHNC2H2C3NCH4CH2CH4CHC3H2CH2CH5FeH2CH6SH4CH3CHCH2C2H2CFeSH2C2H4CHFeHFeS2CHSC6H4NSHC2H2C2H2SCH9CH4C2H4CH2C3H4CHC2H2NHCH2SH8SCHC2HCH8S2FeS2FeS2FeS2FeSFeS3FeS2FeS2FeSFeS3HC6H3C6H4C6H4C6H4C4H2C6H5C4H4C3H2C4H3C2HCHCHCHCH3C2H8CH2C2H2CHC3H2CH3CNHC3HCH6C2HC2H2CH3NC2NHSH3CH2CHFeNH3CHCH4CH4CH2C2H2C2HCH14CNH3CH8CH2C2H3NCNC4HC5NFeH4CH5CH2CH5CHC2H9C2H6CSH2SHNCH11C2H2CH2SCH2CSH2C4HSH3CH3CH2C3H4C2HC4HFeSHS3FeS2FeS2FeSFeS3FeS2FeS2FeSFeS3C7H3SH2C6H4CH2CHC6H4C6H6C3H3CH2C6H4C3HCH3NCHSNHC2HCH6CH4CH5CSH3CH3CH7SC2HCNC7H16CH3SH8CFeHC2H4C2HSHN2C8H20FeHC2HCHNH3CHCFeC3HCNCH2CH2CH7SH3CHCH6C2H3C2HCFeSHFeS2FeS2FeS2FeS2FeSCSHFeS2FeS2FeSFeS3FeS2FeS2FeSFeS3C6H4C6H4C6H4C6H3C3H3C3H5C3HCH4C4H2C2H3C2H3SH5SCNCH6NC8H8CHCH9C2H3CH3CH2CH3CH3CHNCSCNCHCHC4H3CH5CH2CH6CH2CHCH2C2HC2NH6CHCHC2H9CH8C2H6CH4C4H6CFeH2C2H5CHCHCNHCH2CH2CH3CH2Fe2HFeHSCFeSHSHC2FeS2FeS2FeS2FeS2FeSFeS3FeS2FeS2FeSFeS3CH4C2HC6H4C3HCH4SC4H4C6H4C6H4C6H4CHC5HC2HNH7SHCH6NH2C2HCNC8H20NC2HC3HCH4C2H10CH3C2H4NCHC3H4CH3CH5C2H4SHNHCH5CH2CH2CH2CH3C2H2CH2CH2CH3C4HC2H3CH2C2H4S2HCH2CFeS2H2FeHC2SHFeS2H4S2H3NCH3C8H4C3HCH3C2SH2CNC8H27CH7CSH2CH7CFeHC2H2FeS2FeHSCSHFeS2CH3S2C3HC3H3CH2C6H4CHC2HCHFeCH2CHCH13CH5C2H2CH2C2HCHCHCHCH3C2HNHCHCH4NH4CHFeH2CHNFeSCH2FeS2FeS2FeSFeS3FeS2FeSHFeS2FeSFeS3FeS2FeS2FeSFeHS3C5H3CH6C2HCH2C6H4C6H4C6H4C6H4C6H6CH6C2H8SH2CHCFeS2CH2CHC3H2CH5CFeCHNH7CH2CH4C2NH2SC4H4CH2CHCH9NH2CH3SHCHCHCH4CHCH2CH4CHC3H5CH8C2HCH12C3H4NHC2H3CHCH3C3HC2H2NCHCH2CHNHSCH2CH4CH5C2SFeS2FeS2FeSFeS4FeS2FeS2FeSFeCS2FeS2FeS2FeSFeS3HFeS2C6H2C2HC7H9C6H4C6H4C6H8NCH2C3H4C2HCH11NHCHCNC6H17C2H3SH6CH3C4H2FeH2NH2CHC5H2FeCH3CHC2HCH4CH5CH5CH4CH2CH2NC8H12CHCH4CHC3HC2NH6CH3C2HFeH4CH7CN2H6CHC4HSH7NH5CH2SCH3CH3C4H2CH2CH3C2HCHSH2CSHFeS2FeS2FeS2FeSFeS3FeSHFeS2FeSFeS3FeHSFeS2FeS2CS3C2H2CH2C4H2C3H2C6H4CHC7H4C6H4C6H4CHCHNH5CSH9CHCH3CH3CH3C2HCNCH6C3HNC8H17FeC3H3SHCH4CH6CH2C2HC3H3CH10CHCSH4C2HC2H6CH2CFeHFeHNC8H23CH2FeSH2CHNHCHCFeCH2NH3FeS2FeS2FeS2FeSFeS3FeS2FeSHFeSFeS3FeSHCSHFeSFeSHS2HC3H2CHSFeC3H3C5HCHC6H4C6H11CHC6H2CH2SC2H3NH2CH10C2H3CH2CH4CHNC6HCH11CHC2H3NC8H20CH5CH8C2H4CHN2H4C3SH3C4H6C3H3FeHC3HNHSCH2CH4CHCH2NC3H9C2FeH4CH5FeH4C2HCH3NC2HSC3H4CH4CSHCH2CH3C3
_chemical_formula_sum              "H2304 C1344 Fe192 S384 N96"
_cell_length_a       53.9647
_cell_length_b       53.8608
_cell_length_c       93.8237
_cell_angle_alpha    91.7995
_cell_angle_beta     91.9996
_cell_angle_gamma    113.997

_space_group_name_H-M_alt    "P 1"
_space_group_IT_number       1

loop_
  _space_group_symop_operation_xyz
  'x, y, z'

loop_
  _atom_site_type_symbol
  _atom_site_label
  _atom_site_symmetry_multiplicity
  _atom_site_fract_x
  _atom_site_fract_y
  _atom_site_fract_z
  _atom_site_occupancy
  H   H1        1.0  0.46384  0.37853  0.21471  1.0000
  H   H2        1.0  0.42687  0.18846  0.18410  1.0000
  C   C1        1.0  0.38628  0.18642  0.18044  1.0000
  H   H3        1.0  0.02668  0.31483  0.06168  1.0000
  H   H4        1.0  0.06879  0.26058  0.01361  1.0000
  H   H5        1.0  0.34599  0.02058  0.14576  1.0000
  Fe  Fe1       1.0  0.18717  0.03897  0.05850  1.0000
  S   S1        1.0  0.18220  0.07494  0.06904  1.0000
  S   S2        1.0  0.22469  0.04374  0.04747  1.0000
  Fe  Fe2       1.0  0.21714  0.26533  0.02553  1.0000
  S   S3        1.0  0.18887  0.22246  0.02918  1.0000
  S   S4        1.0  0.21326  0.28076  0.00345  1.0000
  Fe  Fe3       1.0  0.23672  0.27609  0.05771  1.0000
  S   S5        1.0  0.20865  0.23357  0.06317  1.0000
  S   S6        1.0  0.26611  0.30928  0.07378  1.0000
  Fe  Fe4       1.0  0.22281  0.22094  0.04305  1.0000
  S   S7        1.0  0.23637  0.18686  0.03917  1.0000
  Fe  Fe5       1.0  0.17689  0.23925  0.04873  1.0000
  S   S8        1.0  0.13084  0.21977  0.05119  1.0000
  S   S9        1.0  0.25233  0.26297  0.03812  1.0000
  S   S10       1.0  0.20371  0.28257  0.04459  1.0000
  Fe  Fe6       1.0  0.39886  0.14282  0.14515  1.0000
  S   S11       1.0  0.36021  0.12100  0.15609  1.0000
  S   S12       1.0  0.40069  0.17945  0.13330  1.0000
  Fe  Fe7       1.0  0.41976  0.09945  0.15152  1.0000
  S   S13       1.0  0.38165  0.07424  0.16266  1.0000
  S   S14       1.0  0.45087  0.08071  0.14986  1.0000
  Fe  Fe8       1.0  0.35871  0.08342  0.14429  1.0000
  S   S15       1.0  0.31739  0.05322  0.13427  1.0000
  Fe  Fe9       1.0  0.38640  0.11394  0.17341  1.0000
  S   S16       1.0  0.38200  0.12550  0.19669  1.0000
  S   S17       1.0  0.39629  0.10552  0.13249  1.0000
  S   S18       1.0  0.42552  0.13882  0.16315  1.0000
  Fe  Fe10      1.0  0.43930  0.37740  0.14827  1.0000
  S   S19       1.0  0.39760  0.37774  0.14940  1.0000
  H   H6        1.0  0.41089  0.18860  0.20026  1.0000
  Fe  Fe11      1.0  0.42065  0.32164  0.16137  1.0000
  S   S20       1.0  0.37819  0.31800  0.16370  1.0000
  S   S21       1.0  0.43466  0.29031  0.16959  1.0000
  Fe  Fe12      1.0  0.38078  0.33354  0.14146  1.0000
  S   S22       1.0  0.34546  0.30643  0.12581  1.0000
  Fe  Fe13      1.0  0.39816  0.36182  0.17148  1.0000
  S   S23       1.0  0.38543  0.37822  0.19129  1.0000
  S   S24       1.0  0.42241  0.33422  0.13883  1.0000
  S   S25       1.0  0.44061  0.36447  0.17072  1.0000
  C   C2        1.0  0.04065  0.36836  0.09649  1.0000
  S   S26       1.0  0.04183  0.27000  0.05331  1.0000
  C   C3        1.0  0.00807  0.27668  0.09920  1.0000
  H   H7        1.0  0.44981  0.29485  0.07674  1.0000
  C   C4        1.0  0.38430  0.36244  0.20772  1.0000
  C   C5        1.0  0.38105  0.28429  0.09560  1.0000
  S   S27       1.0  0.19834  0.02644  0.00732  1.0000
  C   C6        1.0  0.38725  0.33788  0.20838  1.0000
  H   H8        1.0  0.37740  0.39341  0.21993  1.0000
  H   H9        1.0  0.39061  0.32833  0.19875  1.0000
  C   C7        1.0  0.38166  0.10899  0.21288  1.0000
  C   C8        1.0  0.38153  0.12270  0.22589  1.0000
  H   H10       1.0  0.44250  0.10646  0.23834  1.0000
  C   C9        1.0  0.38092  0.08273  0.21316  1.0000
  H   H11       1.0  0.38196  0.14293  0.22580  1.0000
  H   H12       1.0  0.38092  0.07190  0.20325  1.0000
  H   H13       1.0  0.36057  0.28282  0.09824  1.0000
  C   C10       1.0  0.42715  0.26094  0.15850  1.0000
  C   C11       1.0  0.40815  0.25436  0.14694  1.0000
  C   C12       1.0  0.40079  0.22962  0.13899  1.0000
  C   C13       1.0  0.41218  0.21130  0.14264  1.0000
  C   C14       1.0  0.43190  0.21834  0.15387  1.0000
  C   C15       1.0  0.43924  0.24306  0.16183  1.0000
  H   H14       1.0  0.39873  0.26805  0.14433  1.0000
  H   H15       1.0  0.38566  0.22429  0.13025  1.0000
  H   H16       1.0  0.44109  0.20450  0.15658  1.0000
  H   H17       1.0  0.45417  0.24824  0.17066  1.0000
  N   N1        1.0  0.39679  0.31076  0.08877  1.0000
  C   C16       1.0  0.10660  0.23439  0.05158  1.0000
  C   C17       1.0  0.07878  0.21711  0.04994  1.0000
  C   C18       1.0  0.05871  0.22762  0.05032  1.0000
  C   C19       1.0  0.06624  0.25562  0.05247  1.0000
  C   C20       1.0  0.09408  0.27294  0.05408  1.0000
  C   C21       1.0  0.11417  0.26243  0.05359  1.0000
  H   H18       1.0  0.07265  0.19539  0.04844  1.0000
  H   H19       1.0  0.03742  0.21402  0.04908  1.0000
  H   H20       1.0  0.10018  0.29463  0.05575  1.0000
  H   H21       1.0  0.13545  0.27597  0.05498  1.0000
  C   C22       1.0  0.28807  0.30799  0.08819  1.0000
  C   C23       1.0  0.28767  0.28345  0.09294  1.0000
  C   C24       1.0  0.30527  0.28348  0.10447  1.0000
  C   C25       1.0  0.32373  0.30798  0.11137  1.0000
  C   C26       1.0  0.32419  0.33256  0.10665  1.0000
  C   C27       1.0  0.30640  0.33250  0.09520  1.0000
  H   H22       1.0  0.27367  0.26442  0.08774  1.0000
  H   H23       1.0  0.30458  0.26431  0.10803  1.0000
  H   H24       1.0  0.33822  0.35161  0.11178  1.0000
  H   H25       1.0  0.30690  0.35161  0.09165  1.0000
  C   C28       1.0  0.19777  0.10620  0.06094  1.0000
  C   C29       1.0  0.19673  0.12974  0.06721  1.0000
  C   C30       1.0  0.20887  0.15485  0.06077  1.0000
  C   C31       1.0  0.22190  0.15634  0.04799  1.0000
  C   C32       1.0  0.22330  0.13290  0.04190  1.0000
  C   C33       1.0  0.21113  0.10788  0.04829  1.0000
  H   H26       1.0  0.18645  0.12854  0.07703  1.0000
  H   H27       1.0  0.20790  0.17294  0.06558  1.0000
  H   H28       1.0  0.23345  0.13399  0.03204  1.0000
  H   H29       1.0  0.21176  0.08985  0.04326  1.0000
  C   C34       1.0  0.27850  0.02806  0.08828  1.0000
  C   C35       1.0  0.30669  0.04356  0.09051  1.0000
  C   C36       1.0  0.31874  0.05274  0.10440  1.0000
  C   C37       1.0  0.30292  0.04552  0.11636  1.0000
  C   C38       1.0  0.27474  0.03008  0.11411  1.0000
  C   C39       1.0  0.26254  0.02174  0.10020  1.0000
  H   H30       1.0  0.31931  0.04847  0.08142  1.0000
  H   H31       1.0  0.34040  0.06467  0.10585  1.0000
  S   S28       1.0  0.15979  0.01162  0.04095  1.0000
  H   H32       1.0  0.42393  0.05878  0.11993  1.0000
  H   H33       1.0  0.25563  0.29667  0.14164  1.0000
  C   C40       1.0  0.39798  0.33371  0.09875  1.0000
  H   H34       1.0  0.05655  0.33791  0.10007  1.0000
  H   H35       1.0  0.09680  0.26150  0.02435  1.0000
  H   H36       1.0  0.34693  0.39080  0.15809  1.0000
  C   C41       1.0  0.41330  0.19643  0.18940  1.0000
  C   C42       1.0  0.35411  0.31089  0.07526  1.0000
  N   N2        1.0  0.27117  0.10868  0.08798  1.0000
  C   C43       1.0  0.24508  0.10469  0.09491  1.0000
  C   C44       1.0  0.28608  0.13850  0.08533  1.0000
  C   C45       1.0  0.28905  0.10004  0.09743  1.0000
  C   C46       1.0  0.26424  0.09133  0.07430  1.0000
  C   C47       1.0  0.22840  0.07596  0.10009  1.0000
  C   C48       1.0  0.27380  0.14922  0.07315  1.0000
  C   C49       1.0  0.29680  0.11428  0.11245  1.0000
  C   C50       1.0  0.28841  0.09388  0.06517  1.0000
  H   H37       1.0  0.24888  0.11938  0.10419  1.0000
  H   H38       1.0  0.23124  0.10919  0.08739  1.0000
  H   H39       1.0  0.30774  0.14376  0.08318  1.0000
  H   H40       1.0  0.28701  0.15123  0.09508  1.0000
  H   H41       1.0  0.27940  0.07783  0.09880  1.0000
  H   H42       1.0  0.30843  0.10351  0.09233  1.0000
  H   H43       1.0  0.25424  0.06938  0.07654  1.0000
  H   H44       1.0  0.24862  0.09462  0.06749  1.0000
  H   H45       1.0  0.22138  0.06026  0.09119  1.0000
  H   H46       1.0  0.23954  0.07000  0.10852  1.0000
  H   H47       1.0  0.20975  0.07581  0.10481  1.0000
  H   H48       1.0  0.28573  0.17149  0.07258  1.0000
  H   H49       1.0  0.27454  0.13983  0.06257  1.0000
  H   H50       1.0  0.25266  0.14611  0.07505  1.0000
  H   H51       1.0  0.30889  0.13649  0.11197  1.0000
  H   H52       1.0  0.30976  0.10597  0.11834  1.0000
  H   H53       1.0  0.27878  0.11032  0.11881  1.0000
  H   H54       1.0  0.29556  0.07776  0.06762  1.0000
  H   H55       1.0  0.30594  0.11379  0.06656  1.0000
  H   H56       1.0  0.28183  0.09151  0.05367  1.0000
  H   H57       1.0  0.24797  0.25295  0.99497  1.0000
  C   C51       1.0  0.48362  0.41421  0.22981  1.0000
  H   H58       1.0  0.30639  0.35007  0.13555  1.0000
  H   H59       1.0  0.14853  0.29356  0.02941  1.0000
  H   H60       1.0  0.28600  0.36432  0.16358  1.0000
  Fe  Fe14      1.0  0.22290  0.00808  0.05990  1.0000
  H   H61       1.0  0.39342  0.04381  0.10900  1.0000
  N   N3        1.0  0.13068  0.11620  0.03065  1.0000
  C   C52       1.0  0.14163  0.09443  0.03060  1.0000
  C   C53       1.0  0.14106  0.13270  0.01774  1.0000
  C   C54       1.0  0.10004  0.10220  0.02956  1.0000
  C   C55       1.0  0.14051  0.13298  0.04448  1.0000
  C   C56       1.0  0.13065  0.07271  0.04183  1.0000
  C   C57       1.0  0.17215  0.14850  0.01764  1.0000
  C   C58       1.0  0.08447  0.11892  0.02421  1.0000
  C   C59       1.0  0.13552  0.15909  0.04624  1.0000
  H   H62       1.0  0.13756  0.08330  0.01996  1.0000
  H   H63       1.0  0.16409  0.10353  0.03247  1.0000
  H   H64       1.0  0.13247  0.14801  0.01631  1.0000
  H   H65       1.0  0.13431  0.11927  0.00782  1.0000
  H   H66       1.0  0.09321  0.08383  0.02212  1.0000
  H   H67       1.0  0.09206  0.09460  0.04010  1.0000
  H   H68       1.0  0.13119  0.12071  0.05371  1.0000
  H   H69       1.0  0.16249  0.13877  0.04661  1.0000
  H   H70       1.0  0.14094  0.05861  0.04091  1.0000
  H   H71       1.0  0.13528  0.08166  0.05291  1.0000
  H   H72       1.0  0.10856  0.06014  0.04010  1.0000
  H   H73       1.0  0.18293  0.13487  0.01691  1.0000
  H   H74       1.0  0.17725  0.16107  0.00813  1.0000
  H   H75       1.0  0.18030  0.16275  0.02710  1.0000
  H   H76       1.0  0.08695  0.12243  0.01265  1.0000
  H   H77       1.0  0.09027  0.13855  0.03026  1.0000
  H   H78       1.0  0.06241  0.10711  0.02549  1.0000
  H   H79       1.0  0.11610  0.15500  0.05138  1.0000
  H   H80       1.0  0.13595  0.16952  0.03626  1.0000
  H   H81       1.0  0.15225  0.17428  0.05321  1.0000
  H   H82       1.0  0.46837  0.45177  0.15153  1.0000
  C   C60       1.0  0.38263  0.31083  0.07461  1.0000
  H   H83       1.0  0.04507  0.29475  0.08849  1.0000
  H   H84       1.0  0.29498  0.31470  0.18535  1.0000
  H   H85       1.0  0.32939  0.33212  0.19185  1.0000
  H   H86       1.0  0.37848  0.04972  0.22636  1.0000
  H   H87       1.0  0.34408  0.39453  0.13940  1.0000
  N   N4        1.0  0.36430  0.19391  0.18604  1.0000
  C   C61       1.0  0.33967  0.18076  0.17584  1.0000
  C   C62       1.0  0.35642  0.18154  0.20029  1.0000
  C   C63       1.0  0.37292  0.22437  0.18651  1.0000
  C   C64       1.0  0.34378  0.18829  0.16007  1.0000
  C   C65       1.0  0.33290  0.18606  0.20712  1.0000
  H   H88       1.0  0.45111  0.40463  0.21272  1.0000
  H   H89       1.0  0.33168  0.15811  0.17593  1.0000
  H   H90       1.0  0.32283  0.18614  0.17918  1.0000
  H   H91       1.0  0.37365  0.18880  0.20832  1.0000
  H   H92       1.0  0.35044  0.15911  0.19929  1.0000
  H   H93       1.0  0.38436  0.23319  0.17694  1.0000
  H   H94       1.0  0.35472  0.22921  0.18586  1.0000
  H   H95       1.0  0.32367  0.18047  0.15416  1.0000
  H   H96       1.0  0.35344  0.21057  0.15887  1.0000
  H   H97       1.0  0.35572  0.17847  0.15469  1.0000
  H   H98       1.0  0.34804  0.02729  0.11752  1.0000
  H   H99       1.0  0.43180  0.41232  0.23213  1.0000
  H   H100      1.0  0.33178  0.18002  0.21838  1.0000
  C   C66       1.0  0.08443  0.25214  0.01448  1.0000
  C   C67       1.0  0.14712  0.29281  0.00572  1.0000
  C   C68       1.0  0.06733  0.33694  0.07102  1.0000
  Fe  Fe15      1.0  0.99534  0.24860  0.05044  1.0000
  C   C69       1.0  0.31943  0.35350  0.14549  1.0000
  C   C70       1.0  0.37952  0.07020  0.22629  1.0000
  C   C71       1.0  0.42541  0.31426  0.08603  1.0000
  C   C72       1.0  0.42825  0.28917  0.07922  1.0000
  C   C73       1.0  0.41189  0.36253  0.09317  1.0000
  C   C74       1.0  0.39395  0.27936  0.10965  1.0000
  H   H101      1.0  0.43879  0.32071  0.09597  1.0000
  H   H102      1.0  0.43508  0.33120  0.07880  1.0000
  H   H103      1.0  0.42291  0.27235  0.08666  1.0000
  H   H104      1.0  0.41587  0.28175  0.06907  1.0000
  H   H105      1.0  0.41154  0.37750  0.10150  1.0000
  H   H106      1.0  0.40110  0.36519  0.08346  1.0000
  H   H107      1.0  0.43354  0.36786  0.09114  1.0000
  H   H108      1.0  0.41566  0.29282  0.11173  1.0000
  H   H109      1.0  0.39245  0.25815  0.10941  1.0000
  C   C75       1.0  0.39038  0.24096  0.19979  1.0000
  H   H110      1.0  0.31306  0.17298  0.20164  1.0000
  H   H111      1.0  0.05866  0.38127  0.10347  1.0000
  S   S29       1.0  0.47801  0.40642  0.13835  1.0000
  H   H112      1.0  0.41320  0.02439  0.11342  1.0000
  H   H113      1.0  0.01565  0.27885  0.07692  1.0000
  H   H114      1.0  0.02264  0.37118  0.10029  1.0000
  H   H115      1.0  0.35452  0.00232  0.10745  1.0000
  H   H116      1.0  0.02476  0.33097  0.10682  1.0000
  H   H117      1.0  0.15888  0.32575  0.02185  1.0000
  H   H118      1.0  0.07294  0.22999  0.01575  1.0000
  H   H119      1.0  0.13336  0.20885  0.00162  1.0000
  H   H120      1.0  0.48367  0.40939  0.20663  1.0000
  H   H121      1.0  0.43957  0.08272  0.22417  1.0000
  Fe  Fe16      1.0  0.19729  0.01369  0.03050  1.0000
  S   S30       1.0  0.18596  0.00443  0.07165  1.0000
  C   C76       1.0  0.39030  0.03080  0.13129  1.0000
  H   H122      1.0  0.24091  0.00963  0.09873  1.0000
  H   H123      1.0  0.40538  0.02988  0.13942  1.0000
  H   H124      1.0  0.04527  0.37655  0.08579  1.0000
  H   H125      1.0  0.37816  0.24814  0.20676  1.0000
  H   H126      1.0  0.08926  0.23883  0.99349  1.0000
  C   C77       1.0  0.99305  0.31503  0.08281  1.0000
  C   C78       1.0  0.03655  0.33839  0.09719  1.0000
  N   N5        1.0  0.02265  0.31975  0.08434  1.0000
  H   H127      1.0  0.38589  0.01881  0.15987  1.0000
  H   H128      1.0  0.37737  0.33086  0.10183  1.0000
  H   H129      1.0  0.38300  0.28208  0.11896  1.0000
  H   H130      1.0  0.39174  0.19446  0.16979  1.0000
  H   H131      1.0  0.01616  0.28762  0.10967  1.0000
  H   H132      1.0  0.32316  0.36298  0.17606  1.0000
  H   H133      1.0  0.34598  0.31093  0.06421  1.0000
  H   H134      1.0  0.28647  0.29299  0.16116  1.0000
  H   H135      1.0  0.40901  0.33381  0.10898  1.0000
  C   C79       1.0  0.36690  0.00033  0.15752  1.0000
  H   H136      1.0  0.38764  0.30628  0.22185  1.0000
  H   H137      1.0  0.39513  0.32858  0.06846  1.0000
  H   H138      1.0  0.37664  0.26656  0.08797  1.0000
  H   H139      1.0  0.38007  0.29266  0.06774  1.0000
  H   H140      1.0  0.26223  0.02422  0.12323  1.0000
  C   C80       1.0  0.37993  0.37452  0.22036  1.0000
  H   H141      1.0  0.10093  0.20779  0.00695  1.0000
  H   H142      1.0  0.32121  0.30541  0.17851  1.0000
  H   H143      1.0  0.40036  0.23056  0.20626  1.0000
  H   H144      1.0  0.35446  0.32931  0.08101  1.0000
  H   H145      1.0  0.23843  0.32511  0.16698  1.0000
  C   C81       1.0  0.32234  0.34392  0.17064  1.0000
  H   H146      1.0  0.26465  0.33468  0.18111  1.0000
  C   C82       1.0  0.02380  0.29258  0.08664  1.0000
  C   C83       1.0  0.38552  0.32539  0.22149  1.0000
  H   H147      1.0  0.26820  0.34218  0.14915  1.0000
  H   H148      1.0  0.33947  0.29238  0.07998  1.0000
  H   H149      1.0  0.44934  0.05246  0.23926  1.0000
  H   H150      1.0  0.12472  0.20486  0.01982  1.0000
  H   H151      1.0  0.07512  0.34460  0.06050  1.0000
  H   H152      1.0  0.33620  0.34759  0.14258  1.0000
  C   C84       1.0  0.33234  0.38463  0.14867  1.0000
  H   H153      1.0  0.07184  0.31885  0.07253  1.0000
  H   H154      1.0  0.28345  0.30718  0.12977  1.0000
  H   H155      1.0  0.42401  0.21889  0.18975  1.0000
  H   H156      1.0  0.40690  0.25973  0.19622  1.0000
  H   H157      1.0  0.25570  0.30412  0.16980  1.0000
  C   C85       1.0  0.31616  0.32257  0.18211  1.0000
  C   C86       1.0  0.37874  0.36228  0.23355  1.0000
  H   H158      1.0  0.27177  0.27462  0.13702  1.0000
  C   C87       1.0  0.27552  0.29620  0.13952  1.0000
  C   C88       1.0  0.27940  0.34287  0.15948  1.0000
  C   C89       1.0  0.25875  0.32568  0.17004  1.0000
  H   H159      1.0  0.16909  0.29729  0.00500  1.0000
  H   H160      1.0  0.31423  0.30349  0.15023  1.0000
  H   H161      1.0  0.37876  0.16400  0.17879  1.0000
  C   C90       1.0  0.29579  0.30700  0.15260  1.0000
  C   C91       1.0  0.38040  0.11028  0.23901  1.0000
  C   C92       1.0  0.10022  0.25732  0.00064  1.0000
  H   H162      1.0  0.31681  0.39294  0.15002  1.0000
  H   H163      1.0  0.34363  0.34858  0.16787  1.0000
  S   S31       1.0  0.26466  0.01560  0.07059  1.0000
  N   N6        1.0  0.30372  0.33642  0.15729  1.0000
  H   H164      1.0  0.09733  0.27423  0.99532  1.0000
  H   H165      1.0  0.15866  0.25225  0.01436  1.0000
  C   C93       1.0  0.37913  0.08383  0.23928  1.0000
  C   C94       1.0  0.46944  0.40080  0.21524  1.0000
  C   C95       1.0  0.40573  0.03948  0.11748  1.0000
  H   H166      1.0  0.38536  0.04802  0.13497  1.0000
  H   H167      1.0  0.99820  0.35727  0.07860  1.0000
  C   C96       1.0  0.13632  0.24623  0.01313  1.0000
  H   H168      1.0  0.33571  0.20761  0.20723  1.0000
  C   C97       1.0  0.14393  0.30422  0.02047  1.0000
  H   H169      1.0  0.13062  0.25002  0.02392  1.0000
  C   C98       1.0  0.34706  0.00627  0.11783  1.0000
  H   H170      1.0  0.14268  0.30571  0.99788  1.0000
  C   C99       1.0  0.38144  0.33756  0.23416  1.0000
  H   H171      1.0  0.12362  0.30453  0.02126  1.0000
  C   C100      1.0  0.12284  0.21516  0.01003  1.0000
  H   H172      1.0  0.35422  0.99834  0.16686  1.0000
  C   C101      1.0  0.35097  0.00258  0.14400  1.0000
  C   C102      1.0  0.48694  0.09853  0.15071  1.0000
  C   C103      1.0  0.03660  0.33002  0.07072  1.0000
  C   C104      1.0  0.45093  0.09197  0.23446  1.0000
  H   H173      1.0  0.47252  0.10275  0.23201  1.0000
  H   H174      1.0  0.03445  0.34861  0.06738  1.0000
  N   N7        1.0  0.13006  0.26301  0.00213  1.0000
  H   H175      1.0  0.07888  0.35318  0.07923  1.0000
  N   N8        1.0  0.36497  0.00455  0.13017  1.0000
  H   H176      1.0  0.01031  0.25707  0.09949  1.0000
  H   H177      1.0  0.43445  0.36969  0.23311  1.0000
  H   H178      1.0  0.45265  0.33876  0.23790  1.0000
  H   H179      1.0  0.48440  0.36701  0.23819  1.0000
  C   C105      1.0  0.20145  0.01143  0.99068  1.0000
  H   H180      1.0  0.30631  0.99398  0.12624  1.0000
  H   H181      1.0  0.45810  0.44315  0.23880  1.0000
  H   H182      1.0  0.48761  0.13806  0.14717  1.0000
  H   H183      1.0  0.18319  0.13370  0.44213  1.0000
  S   S32       1.0  0.03204  0.21254  0.40276  1.0000
  H   H184      1.0  0.03184  0.25905  0.38007  1.0000
  Fe  Fe17      1.0  0.22869  0.25649  0.41904  1.0000
  S   S33       1.0  0.18509  0.23121  0.41240  1.0000
  S   S34       1.0  0.24614  0.26608  0.44212  1.0000
  Fe  Fe18      1.0  0.24619  0.26695  0.38749  1.0000
  S   S35       1.0  0.20317  0.24232  0.37877  1.0000
  S   S36       1.0  0.28600  0.28447  0.37536  1.0000
  Fe  Fe19      1.0  0.18980  0.26279  0.39646  1.0000
  S   S37       1.0  0.15843  0.28111  0.39461  1.0000
  Fe  Fe20      1.0  0.20170  0.21259  0.39544  1.0000
  S   S38       1.0  0.18089  0.16712  0.39060  1.0000
  S   S39       1.0  0.23299  0.28984  0.40411  1.0000
  S   S40       1.0  0.24512  0.23551  0.40322  1.0000
  Fe  Fe21      1.0  0.42154  0.11964  0.30120  1.0000
  S   S41       1.0  0.39176  0.07563  0.29802  1.0000
  N   N9        1.0  0.46247  0.07722  0.25900  1.0000
  Fe  Fe22      1.0  0.37895  0.14036  0.29143  1.0000
  S   S42       1.0  0.34695  0.09821  0.28715  1.0000
  S   S43       1.0  0.36773  0.17454  0.28481  1.0000
  Fe  Fe23      1.0  0.36129  0.08900  0.30849  1.0000
  S   S44       1.0  0.32404  0.06843  0.32224  1.0000
  Fe  Fe24      1.0  0.37945  0.08873  0.27722  1.0000
  S   S45       1.0  0.37709  0.06719  0.25557  1.0000
  S   S46       1.0  0.39222  0.13237  0.31305  1.0000
  S   S47       1.0  0.41022  0.13142  0.28002  1.0000
  Fe  Fe25      1.0  0.37019  0.34392  0.30388  1.0000
  S   S48       1.0  0.41265  0.35876  0.31370  1.0000
  S   S49       1.0  0.33184  0.33758  0.31601  1.0000
  Fe  Fe26      1.0  0.38970  0.33868  0.27336  1.0000
  S   S50       1.0  0.43318  0.35279  0.28149  1.0000
  S   S51       1.0  0.38025  0.32113  0.25038  1.0000
  Fe  Fe27      1.0  0.41583  0.32565  0.29959  1.0000
  S   S52       1.0  0.43257  0.29648  0.30811  1.0000
  Fe  Fe28      1.0  0.42607  0.38475  0.29456  1.0000
  S   S53       1.0  0.45119  0.43079  0.29390  1.0000
  S   S54       1.0  0.37280  0.30956  0.29082  1.0000
  S   S55       1.0  0.38303  0.37193  0.28544  1.0000
  Fe  Fe29      1.0  0.22011  0.04742  0.40999  1.0000
  S   S56       1.0  0.25148  0.03166  0.41614  1.0000
  S   S57       1.0  0.23745  0.09321  0.41391  1.0000
  H   H185      1.0  0.04919  0.31964  0.35928  1.0000
  H   H186      1.0  0.19156  0.35691  0.43086  1.0000
  H   H187      1.0  0.00546  0.25091  0.34097  1.0000
  C   C106      1.0  0.01757  0.25467  0.37053  1.0000
  H   H188      1.0  0.43160  0.17425  0.25890  1.0000
  S   S58       1.0  0.20993  0.02639  0.38816  1.0000
  C   C107      1.0  0.31106  0.05272  0.33851  1.0000
  C   C108      1.0  0.32755  0.04883  0.34928  1.0000
  C   C109      1.0  0.31624  0.03641  0.36196  1.0000
  C   C110      1.0  0.28842  0.02825  0.36427  1.0000
  C   C111      1.0  0.27190  0.03226  0.35353  1.0000
  C   C112      1.0  0.28312  0.04418  0.34073  1.0000
  H   H189      1.0  0.34900  0.05506  0.34777  1.0000
  Fe  Fe30      1.0  0.99874  0.22700  0.40747  1.0000
  H   H190      1.0  0.09389  0.27405  0.35876  1.0000
  H   H191      1.0  0.27008  0.04690  0.33247  1.0000
  C   C113      1.0  0.41575  0.26262  0.30125  1.0000
  C   C114      1.0  0.39714  0.25623  0.28955  1.0000
  C   C115      1.0  0.38260  0.22910  0.28467  1.0000
  C   C116      1.0  0.38709  0.20816  0.29118  1.0000
  C   C117      1.0  0.40646  0.21447  0.30257  1.0000
  C   C118      1.0  0.42069  0.24172  0.30764  1.0000
  H   H192      1.0  0.39408  0.27217  0.28411  1.0000
  H   H193      1.0  0.36788  0.22433  0.27574  1.0000
  H   H194      1.0  0.41006  0.19836  0.30762  1.0000
  H   H195      1.0  0.43526  0.24657  0.31663  1.0000
  H   H196      1.0  0.19484  0.30260  0.42178  1.0000
  C   C119      1.0  0.05413  0.27371  0.35343  1.0000
  C   C120      1.0  0.19749  0.14636  0.39564  1.0000
  C   C121      1.0  0.22489  0.15768  0.40025  1.0000
  C   C122      1.0  0.23707  0.14100  0.40550  1.0000
  C   C123      1.0  0.22210  0.11282  0.40589  1.0000
  C   C124      1.0  0.19506  0.10124  0.40063  1.0000
  C   C125      1.0  0.18275  0.11804  0.39557  1.0000
  H   H197      1.0  0.23656  0.17934  0.39998  1.0000
  H   H198      1.0  0.25809  0.15004  0.40944  1.0000
  H   H199      1.0  0.18338  0.07950  0.40088  1.0000
  H   H200      1.0  0.16157  0.10915  0.39189  1.0000
  C   C126      1.0  0.29825  0.29969  0.35885  1.0000
  C   C127      1.0  0.28152  0.30422  0.34844  1.0000
  C   C128      1.0  0.29225  0.31611  0.33554  1.0000
  C   C129      1.0  0.31975  0.32338  0.33271  1.0000
  C   C130      1.0  0.33655  0.31899  0.34314  1.0000
  C   C131      1.0  0.32586  0.30730  0.35608  1.0000
  H   H201      1.0  0.26030  0.29862  0.35033  1.0000
  H   H202      1.0  0.27900  0.31944  0.32762  1.0000
  H   H203      1.0  0.35777  0.32463  0.34127  1.0000
  H   H204      1.0  0.33909  0.30406  0.36405  1.0000
  C   C132      1.0  0.06729  0.23236  0.40122  1.0000
  C   C133      1.0  0.07842  0.26083  0.40153  1.0000
  C   C134      1.0  0.10636  0.27553  0.39952  1.0000
  C   C135      1.0  0.12350  0.26195  0.39739  1.0000
  C   C136      1.0  0.11246  0.23356  0.39744  1.0000
  C   C137      1.0  0.08451  0.21888  0.39923  1.0000
  H   H205      1.0  0.06546  0.27150  0.40314  1.0000
  H   H206      1.0  0.11475  0.29751  0.39957  1.0000
  H   H207      1.0  0.12538  0.22283  0.39581  1.0000
  H   H208      1.0  0.07615  0.19688  0.39897  1.0000
  N   N10       1.0  0.18268  0.30735  0.44307  1.0000
  H   H209      1.0  0.25041  0.02572  0.35495  1.0000
  H   H210      1.0  0.41123  0.02661  0.26100  1.0000
  H   H211      1.0  0.22072  0.35108  0.42529  1.0000
  C   C138      1.0  0.26832  0.21007  0.44404  1.0000
  H   H212      1.0  0.46344  0.08533  0.31031  1.0000
  H   H213      1.0  0.23888  0.11121  0.45182  1.0000
  C   C139      1.0  0.23902  0.02644  0.47998  1.0000
  C   C140      1.0  0.24581  0.26479  0.47139  1.0000
  C   C141      1.0  0.23022  0.25552  0.45845  1.0000
  C   C142      1.0  0.20255  0.23872  0.45891  1.0000
  C   C143      1.0  0.19056  0.23200  0.47216  1.0000
  H   H214      1.0  0.26725  0.27774  0.47118  1.0000
  H   H215      1.0  0.19038  0.23095  0.44907  1.0000
  H   H216      1.0  0.22244  0.12402  0.46433  1.0000
  C   C144      1.0  0.44799  0.24096  0.26893  1.0000
  H   H217      1.0  0.41570  0.05273  0.27471  1.0000
  H   H218      1.0  0.18737  0.13546  0.46534  1.0000
  C   C145      1.0  0.14230  0.26028  0.43794  1.0000
  N   N11       1.0  0.28918  0.10866  0.37391  1.0000
  C   C146      1.0  0.30847  0.10044  0.38261  1.0000
  C   C147      1.0  0.29920  0.11294  0.35898  1.0000
  C   C148      1.0  0.26118  0.08569  0.37380  1.0000
  C   C149      1.0  0.28913  0.13417  0.38096  1.0000
  C   C150      1.0  0.30021  0.09166  0.39785  1.0000
  C   C151      1.0  0.32764  0.13578  0.35751  1.0000
  C   C152      1.0  0.24124  0.08298  0.36105  1.0000
  C   C153      1.0  0.27255  0.14766  0.37320  1.0000
  H   H219      1.0  0.31122  0.08320  0.37703  1.0000
  H   H220      1.0  0.32903  0.11732  0.38390  1.0000
  H   H221      1.0  0.28529  0.11735  0.35154  1.0000
  H   H222      1.0  0.29969  0.09386  0.35439  1.0000
  H   H223      1.0  0.26263  0.06565  0.37394  1.0000
  H   H224      1.0  0.25079  0.08696  0.38367  1.0000
  H   H225      1.0  0.28055  0.12984  0.39167  1.0000
  H   H226      1.0  0.31009  0.14984  0.38346  1.0000
  H   H227      1.0  0.30007  0.10859  0.40483  1.0000
  H   H228      1.0  0.28023  0.07418  0.39782  1.0000
  H   H229      1.0  0.31522  0.08485  0.40281  1.0000
  H   H230      1.0  0.33183  0.13770  0.34598  1.0000
  H   H231      1.0  0.32903  0.15579  0.36171  1.0000
  H   H232      1.0  0.34387  0.13091  0.36260  1.0000
  H   H233      1.0  0.23874  0.10200  0.35920  1.0000
  H   H234      1.0  0.22089  0.06728  0.36323  1.0000
  H   H235      1.0  0.24754  0.07587  0.35113  1.0000
  H   H236      1.0  0.25082  0.13797  0.37575  1.0000
  H   H237      1.0  0.27422  0.14764  0.36150  1.0000
  H   H238      1.0  0.28070  0.16953  0.37675  1.0000
  H   H239      1.0  0.25850  0.16083  0.45298  1.0000
  H   H240      1.0  0.22398  0.30994  0.44363  1.0000
  C   C154      1.0  0.19829  0.34378  0.42414  1.0000
  H   H241      1.0  0.19334  0.34612  0.41279  1.0000
  H   H242      1.0  0.17061  0.27156  0.45568  1.0000
  C   C155      1.0  0.16652  0.31979  0.45119  1.0000
  C   C156      1.0  0.22533  0.12209  0.45278  1.0000
  C   C157      1.0  0.43048  0.42107  0.25446  1.0000
  H   H243      1.0  0.35653  0.42652  0.31605  1.0000
  C   C158      1.0  0.21877  0.17658  0.46026  1.0000
  H   H244      1.0  0.46521  0.28301  0.27691  1.0000
  H   H245      1.0  0.41569  0.42994  0.25174  1.0000
  H   H246      1.0  0.05148  0.30641  0.37583  1.0000
  C   C159      1.0  0.40470  0.19267  0.25211  1.0000
  N   N12       1.0  0.39977  0.42848  0.33285  1.0000
  C   C160      1.0  0.37730  0.42636  0.34253  1.0000
  C   C161      1.0  0.41417  0.45752  0.32875  1.0000
  C   C162      1.0  0.38872  0.41083  0.31938  1.0000
  C   C163      1.0  0.36789  0.41697  0.31004  1.0000
  H   H247      1.0  0.48326  0.48663  0.28818  1.0000
  H   H248      1.0  0.36601  0.43840  0.33876  1.0000
  H   H249      1.0  0.38581  0.43559  0.35336  1.0000
  H   H250      1.0  0.42383  0.42794  0.35186  1.0000
  H   H251      1.0  0.41264  0.48019  0.34845  1.0000
  H   H252      1.0  0.99581  0.14508  0.40362  1.0000
  N   N13       1.0  0.45394  0.21773  0.26300  1.0000
  H   H253      1.0  0.42974  0.45944  0.32084  1.0000
  C   C164      1.0  0.19355  0.15740  0.46782  1.0000
  S   S59       1.0  0.99661  0.26782  0.40676  1.0000
  H   H254      1.0  0.16907  0.21931  0.47240  1.0000
  N   N14       1.0  0.32319  0.24231  0.32105  1.0000
  C   C165      1.0  0.35065  0.26598  0.32127  1.0000
  C   C166      1.0  0.31096  0.23764  0.30596  1.0000
  C   C167      1.0  0.32548  0.21673  0.32560  1.0000
  C   C168      1.0  0.30576  0.24914  0.33131  1.0000
  C   C169      1.0  0.36879  0.27115  0.33508  1.0000
  C   C170      1.0  0.30054  0.25885  0.30091  1.0000
  C   C171      1.0  0.34404  0.20756  0.31675  1.0000
  C   C172      1.0  0.27650  0.22742  0.33236  1.0000
  H   H255      1.0  0.36277  0.26375  0.31233  1.0000
  H   H256      1.0  0.34833  0.28527  0.31947  1.0000
  H   H257      1.0  0.29391  0.21721  0.30428  1.0000
  H   H258      1.0  0.32606  0.23741  0.29820  1.0000
  H   H259      1.0  0.33259  0.21875  0.33703  1.0000
  H   H260      1.0  0.30518  0.19932  0.32494  1.0000
  H   H261      1.0  0.31505  0.25270  0.34236  1.0000
  H   H262      1.0  0.30469  0.26876  0.32902  1.0000
  H   H263      1.0  0.35927  0.27549  0.34456  1.0000
  H   H264      1.0  0.37483  0.25416  0.33708  1.0000
  H   H265      1.0  0.38792  0.28942  0.33384  1.0000
  H   H266      1.0  0.31621  0.27994  0.30247  1.0000
  H   H267      1.0  0.29485  0.25510  0.28930  1.0000
  H   H268      1.0  0.28208  0.25721  0.30640  1.0000
  H   H269      1.0  0.33628  0.20222  0.30546  1.0000
  H   H270      1.0  0.34472  0.18894  0.32117  1.0000
  H   H271      1.0  0.36517  0.22316  0.31715  1.0000
  H   H272      1.0  0.27563  0.21336  0.34094  1.0000
  H   H273      1.0  0.26789  0.21528  0.32228  1.0000
  H   H274      1.0  0.26288  0.23769  0.33490  1.0000
  C   C173      1.0  0.14078  0.31990  0.44337  1.0000
  H   H275      1.0  0.98919  0.09416  0.37419  1.0000
  H   H276      1.0  0.16379  0.30578  0.42199  1.0000
  H   H277      1.0  0.45706  0.20331  0.24145  1.0000
  Fe  Fe31      1.0  0.21707  0.99655  0.42482  1.0000
  H   H278      1.0  0.43361  0.24514  0.26163  1.0000
  C   C174      1.0  0.44602  0.06924  0.24496  1.0000
  H   H279      1.0  0.02630  0.22114  0.36084  1.0000
  C   C175      1.0  0.00612  0.24611  0.47836  1.0000
  H   H280      1.0  0.00971  0.30360  0.38316  1.0000
  C   C176      1.0  0.03724  0.30332  0.36641  1.0000
  C   C177      1.0  0.18413  0.31349  0.42748  1.0000
  H   H281      1.0  0.03381  0.29745  0.33176  1.0000
  N   N15       1.0  0.22316  0.16737  0.44554  1.0000
  C   C178      1.0  0.18027  0.16826  0.43287  1.0000
  H   H282      1.0  0.19795  0.16078  0.47955  1.0000
  H   H283      1.0  0.14522  0.34001  0.43886  1.0000
  N   N16       1.0  0.02921  0.27534  0.35944  1.0000
  H   H284      1.0  0.41070  0.19643  0.24094  1.0000
  H   H285      1.0  0.39977  0.46440  0.32311  1.0000
  C   C179      1.0  0.99924  0.25355  0.46503  1.0000
  C   C180      1.0  0.47511  0.12879  0.26490  1.0000
  H   H286      1.0  0.22906  0.20620  0.43677  1.0000
  H   H287      1.0  0.01838  0.23446  0.47881  1.0000
  H   H288      1.0  0.21641  0.19608  0.45968  1.0000
  H   H289      1.0  0.04862  0.25523  0.34622  1.0000
  C   C181      1.0  0.45681  0.09871  0.26732  1.0000
  H   H290      1.0  0.45936  0.44681  0.33379  1.0000
  H   H291      1.0  0.45776  0.41556  0.34037  1.0000
  H   H292      1.0  0.18936  0.18165  0.42400  1.0000
  C   C182      1.0  0.21488  0.31485  0.46555  1.0000
  Fe  Fe32      1.0  0.24041  0.00976  0.39445  1.0000
  S   S60       1.0  0.18636  0.01382  0.42026  1.0000
  C   C183      1.0  0.01407  0.29236  0.33668  1.0000
  H   H293      1.0  0.21585  0.07218  0.48048  1.0000
  C   C184      1.0  0.21149  0.31875  0.44946  1.0000
  H   H294      1.0  0.37971  0.38886  0.32164  1.0000
  C   C185      1.0  0.42779  0.19239  0.26224  1.0000
  C   C186      1.0  0.41892  0.41892  0.34073  1.0000
  H   H295      1.0  0.18547  0.06830  0.48936  1.0000
  H   H296      1.0  0.34257  0.39786  0.35321  1.0000
  H   H297      1.0  0.43574  0.37195  0.25170  1.0000
  H   H298      1.0  0.24162  0.02913  0.45704  1.0000
  H   H299      1.0  0.17961  0.34154  0.45421  1.0000
  H   H300      1.0  0.48347  0.20366  0.29412  1.0000
  H   H301      1.0  0.32922  0.03313  0.37006  1.0000
  C   C187      1.0  0.35621  0.39723  0.34473  1.0000
  H   H302      1.0  0.34308  0.38822  0.33492  1.0000
  H   H303      1.0  0.25161  0.04781  0.48219  1.0000
  H   H304      1.0  0.14002  0.26336  0.42645  1.0000
  H   H305      1.0  0.13096  0.30368  0.43495  1.0000
  H   H306      1.0  0.46513  0.05692  0.27827  1.0000
  C   C188      1.0  0.46672  0.20670  0.28827  1.0000
  H   H307      1.0  0.27695  0.22893  0.43802  1.0000
  H   H308      1.0  0.40907  0.39653  0.34191  1.0000
  H   H309      1.0  0.36580  0.38354  0.34817  1.0000
  C   C189      1.0  0.23926  0.15014  0.44641  1.0000
  H   H310      1.0  0.46445  0.22404  0.29386  1.0000
  H   H311      1.0  0.47600  0.13376  0.25355  1.0000
  H   H312      1.0  0.18473  0.26857  0.43915  1.0000
  H   H313      1.0  0.16030  0.30958  0.46142  1.0000
  C   C190      1.0  0.19698  0.15185  0.43682  1.0000
  C   C191      1.0  0.17127  0.27692  0.44433  1.0000
  H   H314      1.0  0.13762  0.23829  0.43874  1.0000
  H   H315      1.0  0.43760  0.23547  0.27907  1.0000
  H   H316      1.0  0.99167  0.21780  0.35752  1.0000
  C   C192      1.0  0.42371  0.03809  0.27061  1.0000
  C   C193      1.0  0.01392  0.30994  0.37206  1.0000
  H   H317      1.0  0.22164  0.34110  0.44835  1.0000
  H   H318      1.0  0.44363  0.41561  0.32299  1.0000
  H   H319      1.0  0.15953  0.15406  0.42887  1.0000
  H   H320      1.0  0.23697  0.18111  0.46755  1.0000
  H   H321      1.0  0.39671  0.20751  0.25599  1.0000
  C   C194      1.0  0.44629  0.42476  0.33394  1.0000
  H   H322      1.0  0.37991  0.12092  0.24889  1.0000
  H   H323      1.0  0.46688  0.14193  0.27060  1.0000
  C   C195      1.0  0.23341  0.01590  0.46571  1.0000
  C   C196      1.0  0.00813  0.26968  0.34736  1.0000
  H   H324      1.0  0.41907  0.18824  0.27288  1.0000
  H   H325      1.0  0.12520  0.31735  0.45131  1.0000
  H   H326      1.0  0.24535  0.14645  0.43559  1.0000
  H   H327      1.0  0.08354  0.29188  0.37194  1.0000
  C   C197      1.0  0.48694  0.45078  0.29571  1.0000
  H   H328      1.0  0.28237  0.19985  0.44297  1.0000
  C   C198      1.0  0.00930  0.22476  0.36536  1.0000
  H   H329      1.0  0.41859  0.40032  0.25798  1.0000
  S   S61       1.0  0.46791  0.14010  0.30426  1.0000
  H   H330      1.0  0.24186  0.18647  0.42635  1.0000
  H   H331      1.0  0.12696  0.26421  0.44406  1.0000
  S   S62       1.0  0.27524  0.01191  0.38037  1.0000
  H   H332      1.0  0.26803  0.21659  0.45534  1.0000
  H   H333      1.0  0.37814  0.43041  0.30136  1.0000
  C   C199      1.0  0.48349  0.41607  0.25605  1.0000
  C   C200      1.0  0.23959  0.19226  0.43755  1.0000
  H   H334      1.0  0.40544  0.41278  0.31233  1.0000
  C   C201      1.0  0.47246  0.26835  0.27191  1.0000
  H   H335      1.0  0.44370  0.43382  0.26352  1.0000
  H   H336      1.0  0.99346  0.16384  0.42627  1.0000
  H   H337      1.0  0.37520  0.37167  0.24318  1.0000
  H   H338      1.0  0.20603  0.10892  0.44689  1.0000
  H   H339      1.0  0.20110  0.14342  0.42665  1.0000
  H   H340      1.0  0.17833  0.18058  0.44210  1.0000
  H   H341      1.0  0.06440  0.29109  0.34657  1.0000
  H   H342      1.0  0.43540  0.09595  0.26514  1.0000
  C   C202      1.0  0.48433  0.09788  0.30820  1.0000
  C   C203      1.0  0.07606  0.27373  0.36447  1.0000
  H   H343      1.0  0.06886  0.25501  0.37059  1.0000
  H   H344      1.0  0.47746  0.19454  0.26810  1.0000
  H   H345      1.0  0.42089  0.02304  0.27891  1.0000
  H   H346      1.0  0.99474  0.30056  0.36547  1.0000
  N   N17       1.0  0.46584  0.40720  0.24244  1.0000
  H   H347      1.0  0.35230  0.39759  0.30515  1.0000
  H   H348      1.0  0.00632  0.24775  0.45537  1.0000
  C   C204      1.0  0.45415  0.05206  0.26758  1.0000
  H   H349      1.0  0.45845  0.09651  0.27904  1.0000
  H   H350      1.0  0.44831  0.18778  0.28935  1.0000
  H   H351      1.0  0.44306  0.47386  0.34757  1.0000
  H   H352      1.0  0.20836  0.29325  0.46805  1.0000
  H   H353      1.0  0.99907  0.25591  0.37472  1.0000
  H   H354      1.0  0.01962  0.33220  0.37185  1.0000
  C   C205      1.0  0.42784  0.47849  0.34128  1.0000
  H   H355      1.0  0.01343  0.31101  0.34169  1.0000
  H   H356      1.0  0.20418  0.32433  0.47221  1.0000
  H   H357      1.0  0.19244  0.00519  0.35690  1.0000
  H   H358      1.0  0.38740  0.17236  0.25198  1.0000
  H   H359      1.0  0.00292  0.21167  0.37461  1.0000
  H   H360      1.0  0.17613  0.16301  0.46573  1.0000
  H   H361      1.0  0.47107  0.40975  0.26559  1.0000
  H   H362      1.0  0.00672  0.11727  0.38885  1.0000
  C   C206      1.0  0.46491  0.35880  0.24348  1.0000
  H   H363      1.0  0.23681  0.32494  0.46892  1.0000
  H   H364      1.0  0.42393  0.06106  0.24665  1.0000
  C   C207      1.0  0.44690  0.42142  0.24126  1.0000
  C   C208      1.0  0.44905  0.37702  0.24251  1.0000
  H   H365      1.0  0.46893  0.35550  0.25481  1.0000
  H   H366      1.0  0.99800  0.28520  0.32791  1.0000
  C   C209      1.0  0.20608  0.24167  0.48512  1.0000
  H   H367      1.0  0.45980  0.03645  0.26223  1.0000
  C   C210      1.0  0.46372  0.22282  0.24799  1.0000
  H   H368      1.0  0.45438  0.23502  0.24231  1.0000
  H   H369      1.0  0.10114  0.27286  0.48794  1.0000
  C   C211      1.0  0.23387  0.25788  0.48466  1.0000
  C   C212      1.0  0.47411  0.21229  0.27258  1.0000
  H   H370      1.0  0.48184  0.27713  0.26192  1.0000
  H   H371      1.0  0.48783  0.26685  0.27957  1.0000
  H   H372      1.0  0.22950  0.38537  0.67824  1.0000
  C   C213      1.0  0.24268  0.13738  0.51693  1.0000
  H   H373      1.0  0.21461  0.34180  0.69592  1.0000
  C   C214      1.0  0.20880  0.03081  0.61567  1.0000
  S   S63       1.0  0.99175  0.29858  0.57398  1.0000
  C   C215      1.0  0.23873  0.09131  0.52020  1.0000
  Fe  Fe33      1.0  0.18763  0.01849  0.55259  1.0000
  S   S64       1.0  0.17639  0.05104  0.56305  1.0000
  S   S65       1.0  0.22908  0.01843  0.55092  1.0000
  Fe  Fe34      1.0  0.21840  0.21026  0.54943  1.0000
  S   S66       1.0  0.24441  0.24479  0.53616  1.0000
  S   S67       1.0  0.23508  0.17768  0.55197  1.0000
  Fe  Fe35      1.0  0.17772  0.23593  0.55387  1.0000
  S   S68       1.0  0.20057  0.27062  0.54033  1.0000
  S   S69       1.0  0.14598  0.24603  0.56481  1.0000
  Fe  Fe36      1.0  0.20481  0.23977  0.52505  1.0000
  S   S70       1.0  0.18944  0.23348  0.50145  1.0000
  Fe  Fe37      1.0  0.23765  0.27253  0.55291  1.0000
  S   S71       1.0  0.26599  0.31500  0.56252  1.0000
  S   S72       1.0  0.17903  0.20447  0.53785  1.0000
  S   S73       1.0  0.21472  0.23848  0.56680  1.0000
  Fe  Fe38      1.0  0.30008  0.39902  0.64000  1.0000
  S   S74       1.0  0.31630  0.43880  0.62936  1.0000
  S   S75       1.0  0.29010  0.35750  0.62847  1.0000
  Fe  Fe39      1.0  0.29874  0.42703  0.66961  1.0000
  S   S76       1.0  0.31455  0.46857  0.66053  1.0000
  S   S77       1.0  0.28277  0.42405  0.69213  1.0000
  Fe  Fe40      1.0  0.28564  0.44783  0.64170  1.0000
  S   S78       1.0  0.25510  0.46044  0.63061  1.0000
  Fe  Fe41      1.0  0.34398  0.45581  0.64919  1.0000
  C   C216      1.0  0.38655  0.39567  0.60500  1.0000
  S   S79       1.0  0.26793  0.40721  0.65132  1.0000
  S   S80       1.0  0.32954  0.41502  0.65930  1.0000
  Fe  Fe42      1.0  0.07781  0.45892  0.64922  1.0000
  S   S81       1.0  0.04115  0.42152  0.65443  1.0000
  Fe  Fe43      1.0  0.11698  0.43771  0.66264  1.0000
  S   S82       1.0  0.08353  0.39916  0.66900  1.0000
  S   S83       1.0  0.16010  0.44893  0.67107  1.0000
  Fe  Fe44      1.0  0.06448  0.39740  0.64681  1.0000
  S   S84       1.0  0.04754  0.35457  0.63540  1.0000
  Fe  Fe45      1.0  0.06306  0.42605  0.67595  1.0000
  S   S85       1.0  0.04211  0.42676  0.69655  1.0000
  S   S86       1.0  0.09991  0.43459  0.64013  1.0000
  S   S87       1.0  0.09777  0.46474  0.67106  1.0000
  H   H374      1.0  0.11377  0.24704  0.49107  1.0000
  S   S88       1.0  0.01816  0.25228  0.54937  1.0000
  S   S89       1.0  0.01802  0.18224  0.56066  1.0000
  C   C217      1.0  0.05158  0.41925  0.71365  1.0000
  C   C218      1.0  0.06564  0.40259  0.71527  1.0000
  H   H375      1.0  0.03305  0.19997  0.50928  1.0000
  C   C219      1.0  0.04334  0.42894  0.72590  1.0000
  H   H376      1.0  0.07199  0.39488  0.70596  1.0000
  H   H377      1.0  0.35724  0.42683  0.60010  1.0000
  C   C220      1.0  0.03291  0.33990  0.61801  1.0000
  C   C221      1.0  0.02426  0.35382  0.60799  1.0000
  H   H378      1.0  0.21765  0.47162  0.67585  1.0000
  C   C222      1.0  0.02911  0.31293  0.61435  1.0000
  H   H379      1.0  0.22547  0.15734  0.50152  1.0000
  H   H380      1.0  0.08101  0.38178  0.73013  1.0000
  C   C223      1.0  0.29644  0.42074  0.70917  1.0000
  C   C224      1.0  0.28400  0.42468  0.72148  1.0000
  C   C225      1.0  0.31850  0.41353  0.71077  1.0000
  H   H381      1.0  0.26701  0.43035  0.72039  1.0000
  H   H382      1.0  0.32819  0.41028  0.70142  1.0000
  C   C226      1.0  0.22860  0.45821  0.64156  1.0000
  C   C227      1.0  0.23420  0.46656  0.65600  1.0000
  C   C228      1.0  0.21305  0.46476  0.66473  1.0000
  C   C229      1.0  0.18604  0.45352  0.65926  1.0000
  C   C230      1.0  0.18036  0.44545  0.64477  1.0000
  C   C231      1.0  0.20171  0.44815  0.63588  1.0000
  H   H383      1.0  0.19926  0.42480  0.68290  1.0000
  H   H384      1.0  0.23366  0.38953  0.70368  1.0000
  H   H385      1.0  0.15958  0.43679  0.64046  1.0000
  H   H386      1.0  0.03377  0.37462  0.68514  1.0000
  H   H387      1.0  0.38447  0.38910  0.63909  1.0000
  H   H388      1.0  0.35811  0.36591  0.62659  1.0000
  C   C232      1.0  0.26661  0.09538  0.51464  1.0000
  C   C233      1.0  0.23036  0.15785  0.51311  1.0000
  C   C234      1.0  0.11059  0.22716  0.56388  1.0000
  C   C235      1.0  0.09422  0.24023  0.56836  1.0000
  C   C236      1.0  0.06584  0.22644  0.56756  1.0000
  C   C237      1.0  0.05363  0.19925  0.56251  1.0000
  C   C238      1.0  0.07000  0.18592  0.55830  1.0000
  C   C239      1.0  0.09849  0.19994  0.55885  1.0000
  H   H389      1.0  0.10348  0.26125  0.57230  1.0000
  H   H390      1.0  0.05338  0.23679  0.57091  1.0000
  H   H391      1.0  0.06060  0.16487  0.55439  1.0000
  H   H392      1.0  0.11104  0.18969  0.55549  1.0000
  C   C240      1.0  0.27209  0.32641  0.58094  1.0000
  C   C241      1.0  0.28118  0.35442  0.58464  1.0000
  C   C242      1.0  0.28635  0.36431  0.59908  1.0000
  C   C243      1.0  0.28311  0.34634  0.61004  1.0000
  C   C244      1.0  0.27431  0.31842  0.60633  1.0000
  C   C245      1.0  0.26860  0.30848  0.59193  1.0000
  H   H393      1.0  0.28405  0.36854  0.57627  1.0000
  H   H394      1.0  0.29311  0.38584  0.60169  1.0000
  H   H395      1.0  0.27185  0.30429  0.61467  1.0000
  H   H396      1.0  0.26193  0.28695  0.58931  1.0000
  C   C246      1.0  0.16088  0.32036  0.60583  1.0000
  C   C247      1.0  0.19277  0.08624  0.55998  1.0000
  C   C248      1.0  0.22071  0.09874  0.55824  1.0000
  C   C249      1.0  0.23335  0.12690  0.55628  1.0000
  C   C250      1.0  0.21817  0.14282  0.55569  1.0000
  C   C251      1.0  0.19020  0.13035  0.55748  1.0000
  C   C252      1.0  0.17764  0.10224  0.55979  1.0000
  H   H397      1.0  0.23267  0.08679  0.55866  1.0000
  H   H398      1.0  0.25506  0.13642  0.55511  1.0000
  H   H399      1.0  0.17828  0.14235  0.55713  1.0000
  H   H400      1.0  0.15605  0.09281  0.56131  1.0000
  H   H401      1.0  0.04820  0.18347  0.52129  1.0000
  C   C253      1.0  0.32769  0.40993  0.72452  1.0000
  N   N18       1.0  0.38586  0.41900  0.61401  1.0000
  H   H402      1.0  0.21190  0.41014  0.66255  1.0000
  H   H403      1.0  0.42510  0.99520  0.62619  1.0000
  H   H404      1.0  0.39423  0.38280  0.61127  1.0000
  H   H405      1.0  0.11818  0.48493  0.62558  1.0000
  H   H406      1.0  0.20662  0.03151  0.58610  1.0000
  C   C254      1.0  0.41325  0.43408  0.62169  1.0000
  C   C255      1.0  0.99736  0.25365  0.49108  1.0000
  C   C256      1.0  0.20492  0.43292  0.70523  1.0000
  H   H407      1.0  0.02685  0.37448  0.61055  1.0000
  H   H408      1.0  0.00523  0.35193  0.58707  1.0000
  C   C257      1.0  0.20697  0.37857  0.67788  1.0000
  H   H409      1.0  0.20272  0.37701  0.65465  1.0000
  H   H410      1.0  0.24552  0.17876  0.51622  1.0000
  C   C258      1.0  0.21114  0.37914  0.70378  1.0000
  H   H411      1.0  0.35737  0.38552  0.58641  1.0000
  H   H412      1.0  0.19836  0.35598  0.67663  1.0000
  H   H413      1.0  0.02148  0.19211  0.52678  1.0000
  H   H414      1.0  0.41860  0.42024  0.62847  1.0000
  C   C259      1.0  0.07077  0.39525  0.72900  1.0000
  H   H415      1.0  0.24157  0.09597  0.53192  1.0000
  C   C260      1.0  0.13048  0.23013  0.51963  1.0000
  H   H416      1.0  0.35618  0.46455  0.73542  1.0000
  C   C261      1.0  0.00834  0.31401  0.59092  1.0000
  S   S90       1.0  0.23778  0.02326  0.50919  1.0000
  H   H417      1.0  0.15910  0.38670  0.68430  1.0000
  H   H418      1.0  0.13913  0.24428  0.51106  1.0000
  H   H419      1.0  0.40155  0.40337  0.59662  1.0000
  H   H420      1.0  0.34148  0.37414  0.60290  1.0000
  H   H421      1.0  0.12548  0.28031  0.60383  1.0000
  H   H422      1.0  0.16210  0.02488  0.60171  1.0000
  H   H423      1.0  0.21095  0.34396  0.71464  1.0000
  H   H424      1.0  0.04210  0.33616  0.67313  1.0000
  H   H425      1.0  0.15988  0.06944  0.52564  1.0000
  H   H426      1.0  0.21543  0.45522  0.70404  1.0000
  Fe  Fe46      1.0  0.21434  0.00202  0.52819  1.0000
  C   C262      1.0  0.00070  0.34555  0.66206  1.0000
  H   H427      1.0  0.21219  0.15492  0.51921  1.0000
  C   C263      1.0  0.10673  0.26164  0.49631  1.0000
  H   H428      1.0  0.21106  0.11481  0.49256  1.0000
  C   C264      1.0  0.19759  0.10118  0.51936  1.0000
  C   C265      1.0  0.04924  0.42231  0.73966  1.0000
  C   C266      1.0  0.09390  0.28729  0.53063  1.0000
  H   H429      1.0  0.18173  0.33596  0.70274  1.0000
  H   H430      1.0  0.23123  0.42732  0.68994  1.0000
  C   C267      1.0  0.13494  0.45694  0.73709  1.0000
  C   C268      1.0  0.20388  0.34836  0.70413  1.0000
  N   N19       1.0  0.22500  0.10766  0.51327  1.0000
  H   H431      1.0  0.02109  0.36193  0.66049  1.0000
  C   C269      1.0  0.15426  0.37291  0.70584  1.0000
  H   H432      1.0  0.07524  0.28070  0.53673  1.0000
  H   H433      1.0  0.23620  0.06039  0.63161  1.0000
  C   C270      1.0  0.37874  0.43723  0.60433  1.0000
  H   H434      1.0  0.10943  0.30510  0.53679  1.0000
  H   H435      1.0  0.17728  0.38485  0.66299  1.0000
  H   H436      1.0  0.12536  0.27468  0.52534  1.0000
  H   H437      1.0  0.40365  0.47866  0.61371  1.0000
  H   H438      1.0  0.05382  0.34327  0.69140  1.0000
  H   H439      1.0  0.17652  0.05718  0.51287  1.0000
  N   N20       1.0  0.18166  0.31416  0.59780  1.0000
  C   C271      1.0  0.20926  0.33206  0.60457  1.0000
  C   C272      1.0  0.17591  0.28455  0.59960  1.0000
  C   C273      1.0  0.17853  0.31957  0.58229  1.0000
  C   C274      1.0  0.21800  0.36298  0.60353  1.0000
  C   C275      1.0  0.19924  0.27568  0.59705  1.0000
  C   C276      1.0  0.20058  0.31947  0.57231  1.0000
  H   H440      1.0  0.22559  0.32744  0.59997  1.0000
  H   H441      1.0  0.21035  0.32792  0.61610  1.0000
  H   H442      1.0  0.16980  0.27870  0.61066  1.0000
  H   H443      1.0  0.15834  0.27115  0.59246  1.0000
  H   H444      1.0  0.15913  0.30406  0.57736  1.0000
  H   H445      1.0  0.17636  0.33911  0.58110  1.0000
  H   H446      1.0  0.11766  0.30861  0.60833  1.0000
  H   H447      1.0  0.20540  0.37066  0.60986  1.0000
  H   H448      1.0  0.23915  0.37372  0.60812  1.0000
  H   H449      1.0  0.20903  0.28244  0.58692  1.0000
  H   H450      1.0  0.19102  0.25309  0.59655  1.0000
  H   H451      1.0  0.21483  0.28301  0.60603  1.0000
  H   H452      1.0  0.19579  0.29868  0.56776  1.0000
  H   H453      1.0  0.22127  0.32806  0.57734  1.0000
  H   H454      1.0  0.20167  0.33276  0.56333  1.0000
  N   N21       1.0  0.08693  0.23987  0.51997  1.0000
  C   C277      1.0  0.05988  0.22737  0.52673  1.0000
  C   C278      1.0  0.10455  0.26479  0.52915  1.0000
  C   C279      1.0  0.09930  0.21921  0.51985  1.0000
  C   C280      1.0  0.08171  0.24662  0.50500  1.0000
  C   C281      1.0  0.03990  0.19913  0.52046  1.0000
  N   N22       1.0  0.20539  0.00819  0.60480  1.0000
  H   H455      1.0  0.39701  0.00460  0.64003  1.0000
  H   H456      1.0  0.06290  0.22529  0.53829  1.0000
  H   H457      1.0  0.04882  0.24076  0.52601  1.0000
  H   H458      1.0  0.16720  0.38669  0.71461  1.0000
  H   H459      1.0  0.10758  0.25885  0.54013  1.0000
  H   H460      1.0  0.09409  0.20705  0.52955  1.0000
  H   H461      1.0  0.37074  0.46260  0.62095  1.0000
  H   H462      1.0  0.09025  0.29443  0.52014  1.0000
  H   H463      1.0  0.12526  0.30375  0.59042  1.0000
  H   H464      1.0  0.18496  0.10830  0.51236  1.0000
  H   H465      1.0  0.39096  0.44143  0.59468  1.0000
  H   H466      1.0  0.21404  0.42854  0.71507  1.0000
  C   C282      1.0  0.22237  0.10350  0.49723  1.0000
  C   C283      1.0  0.24746  0.03846  0.59129  1.0000
  H   H467      1.0  0.18912  0.06442  0.53132  1.0000
  Fe  Fe47      1.0  0.99619  0.20896  0.55523  1.0000
  H   H468      1.0  0.14652  0.35161  0.70923  1.0000
  H   H469      1.0  0.41290  0.45023  0.62931  1.0000
  H   H470      1.0  0.34945  0.38040  0.64182  1.0000
  H   H471      1.0  0.21801  0.36881  0.59230  1.0000
  H   H472      1.0  0.23565  0.02733  0.63317  1.0000
  H   H473      1.0  0.12381  0.27745  0.50264  1.0000
  H   H474      1.0  0.24607  0.26549  0.49452  1.0000
  Fe  Fe48      1.0  0.99001  0.23985  0.52958  1.0000
  H   H475      1.0  0.14021  0.24012  0.53012  1.0000
  H   H476      1.0  0.45150  0.00516  0.60511  1.0000
  H   H477      1.0  0.24036  0.00088  0.61245  1.0000
  H   H478      1.0  0.24251  0.11270  0.49243  1.0000
  S   S91       1.0  0.17414  0.00456  0.52979  1.0000
  H   H479      1.0  0.13626  0.21275  0.51782  1.0000
  H   H480      1.0  0.16784  0.48958  0.62353  1.0000
  C   C284      1.0  0.20907  0.41834  0.69175  1.0000
  C   C285      1.0  0.21706  0.01943  0.59082  1.0000
  H   H481      1.0  0.45574  0.45980  0.61902  1.0000
  C   C286      1.0  0.03520  0.33536  0.68418  1.0000
  S   S92       1.0  0.00781  0.24452  0.50752  1.0000
  H   H482      1.0  0.19190  0.02421  0.62312  1.0000
  H   H483      1.0  0.25389  0.04854  0.61933  1.0000
  H   H484      1.0  0.34461  0.40412  0.72563  1.0000
  N   N23       1.0  0.19817  0.38773  0.69148  1.0000
  H   H485      1.0  0.20003  0.11240  0.52983  1.0000
  H   H486      1.0  0.43418  0.46147  0.60461  1.0000
  C   C287      1.0  0.23522  0.04214  0.62533  1.0000
  H   H487      1.0  0.37386  0.47539  0.60351  1.0000
  H   H488      1.0  0.22610  0.06914  0.51913  1.0000
  H   H489      1.0  0.15940  0.35419  0.68633  1.0000
  H   H490      1.0  0.36765  0.42570  0.63319  1.0000
  C   C288      1.0  0.01938  0.35330  0.68669  1.0000
  C   C289      1.0  0.01194  0.34090  0.59463  1.0000
  H   H491      1.0  0.09070  0.20423  0.51061  1.0000
  H   H492      1.0  0.35898  0.35648  0.59496  1.0000
  C   C290      1.0  0.16750  0.37525  0.69127  1.0000
  C   C291      1.0  0.35959  0.37720  0.59683  1.0000
  H   H493      1.0  0.03558  0.30181  0.62196  1.0000
  H   H494      1.0  0.21096  0.05872  0.49741  1.0000
  C   C292      1.0  0.38207  0.46493  0.61115  1.0000
  H   H495      1.0  0.06858  0.25812  0.50474  1.0000
  H   H496      1.0  0.12813  0.47703  0.60864  1.0000
  H   H497      1.0  0.16396  0.31903  0.61756  1.0000
  H   H498      1.0  0.15347  0.47371  0.73367  1.0000
  C   C293      1.0  0.13077  0.30198  0.60172  1.0000
  H   H499      1.0  0.16312  0.34155  0.60427  1.0000
  C   C294      1.0  0.20763  0.07401  0.49097  1.0000
  H   H500      1.0  0.18318  0.42864  0.70629  1.0000
  C   C295      1.0  0.36462  0.38479  0.63351  1.0000
  C   C296      1.0  0.36486  0.40907  0.62511  1.0000
  H   H501      1.0  0.34395  0.40321  0.62037  1.0000
  H   H502      1.0  0.03227  0.44167  0.72475  1.0000
  H   H503      1.0  0.37698  0.47633  0.72050  1.0000
  C   C297      1.0  0.43739  0.44745  0.61210  1.0000
  H   H504      1.0  0.26222  0.14406  0.51154  1.0000
  H   H505      1.0  0.26512  0.08928  0.50314  1.0000
  C   C298      1.0  0.19898  0.38833  0.66384  1.0000
  H   H506      1.0  0.20738  0.04838  0.61028  1.0000
  C   C299      1.0  0.01713  0.30014  0.60091  1.0000
  H   H507      1.0  0.26057  0.02943  0.59624  1.0000
  H   H508      1.0  0.06931  0.22771  0.49850  1.0000
  C   C300      1.0  0.29338  0.42138  0.73522  1.0000
  H   H509      1.0  0.24836  0.14083  0.52858  1.0000
  H   H510      1.0  0.19735  0.44177  0.62469  1.0000
  H   H511      1.0  0.27418  0.08189  0.52040  1.0000
  H   H512      1.0  0.99951  0.38828  0.67775  1.0000
  H   H513      1.0  0.25125  0.05846  0.59660  1.0000
  H   H514      1.0  0.13608  0.37761  0.70454  1.0000
  H   H515      1.0  0.25384  0.04270  0.58018  1.0000
  H   H516      1.0  0.14583  0.42313  0.73294  1.0000
  H   H517      1.0  0.20642  0.38551  0.71428  1.0000
  H   H518      1.0  0.99281  0.37718  0.70361  1.0000
  H   H519      1.0  0.12044  0.44993  0.72761  1.0000
  C   C301      1.0  0.31519  0.41378  0.73682  1.0000
  C   C302      1.0  0.18007  0.07124  0.52228  1.0000
  H   H520      1.0  0.21380  0.00245  0.58285  1.0000
  H   H521      1.0  0.01529  0.35247  0.69825  1.0000
  S   S93       1.0  0.39046  0.47819  0.65039  1.0000
  H   H522      1.0  0.25493  0.47463  0.66040  1.0000
  H   H523      1.0  0.40738  0.00202  0.61147  1.0000
  H   H524      1.0  0.28207  0.11644  0.51676  1.0000
  H   H525      1.0  0.44219  0.43202  0.60610  1.0000
  C   C303      1.0  0.15840  0.00557  0.59568  1.0000
  H   H526      1.0  0.01449  0.27947  0.59834  1.0000
  C   C304      1.0  0.36830  0.48288  0.72971  1.0000
  H   H527      1.0  0.16193  0.00952  0.58425  1.0000
  H   H528      1.0  0.02338  0.31396  0.68682  1.0000
  H   H529      1.0  0.00239  0.32616  0.65901  1.0000
  N   N24       1.0  0.99362  0.34608  0.67749  1.0000
  H   H530      1.0  0.35452  0.49177  0.72531  1.0000
  H   H531      1.0  0.15435  0.48758  0.64621  1.0000
  C   C305      1.0  0.22893  0.00940  0.49139  1.0000
  H   H532      1.0  0.19327  0.44804  0.73991  1.0000
  Fe  Fe49      1.0  0.21085  0.03200  0.90312  1.0000
  S   S94       1.0  0.23893  0.01294  0.91091  1.0000
  S   S95       1.0  0.23171  0.07853  0.90246  1.0000
  H   H533      1.0  0.12634  0.39587  0.77136  1.0000
  H   H534      1.0  0.12041  0.38015  0.75346  1.0000
  H   H535      1.0  0.20793  0.14438  0.97997  1.0000
  H   H536      1.0  0.12017  0.41777  0.74524  1.0000
  H   H537      1.0  0.04284  0.42998  0.74899  1.0000
  H   H538      1.0  0.32912  0.07188  0.89976  1.0000
  Fe  Fe50      1.0  0.19744  0.21068  0.89767  1.0000
  S   S96       1.0  0.23963  0.24407  0.89974  1.0000
  S   S97       1.0  0.18403  0.16682  0.88880  1.0000
  Fe  Fe51      1.0  0.17190  0.24821  0.90962  1.0000
  S   S98       1.0  0.21226  0.28392  0.91269  1.0000
  S   S99       1.0  0.13581  0.25400  0.91808  1.0000
  Fe  Fe52      1.0  0.22096  0.27170  0.89074  1.0000
  S   S100      1.0  0.23081  0.30167  0.87237  1.0000
  Fe  Fe53      1.0  0.22692  0.25354  0.92141  1.0000
  S   S101      1.0  0.25042  0.25594  0.94250  1.0000
  S   S102      1.0  0.17926  0.23734  0.88746  1.0000
  S   S103      1.0  0.18606  0.21868  0.91956  1.0000
  Fe  Fe54      1.0  0.31247  0.41724  0.77531  1.0000
  S   S104      1.0  0.29943  0.45151  0.77819  1.0000
  S   S105      1.0  0.32815  0.40991  0.75393  1.0000
  Fe  Fe55      1.0  0.30266  0.40131  0.80710  1.0000
  S   S106      1.0  0.28945  0.43529  0.81177  1.0000
  S   S107      1.0  0.30700  0.37290  0.82413  1.0000
  Fe  Fe56      1.0  0.26598  0.42228  0.79063  1.0000
  S   S108      1.0  0.22139  0.41151  0.78579  1.0000
  Fe  Fe57      1.0  0.32468  0.46144  0.79892  1.0000
  H   H539      1.0  0.27389  0.07281  0.88680  1.0000
  S   S109      1.0  0.27741  0.38699  0.78645  1.0000
  S   S110      1.0  0.33961  0.42858  0.79555  1.0000
  Fe  Fe58      1.0  0.05423  0.45536  0.79846  1.0000
  S   S111      1.0  0.02867  0.41128  0.79138  1.0000
  Fe  Fe59      1.0  0.10353  0.44337  0.80584  1.0000
  S   S112      1.0  0.08186  0.39926  0.79920  1.0000
  S   S113      1.0  0.14832  0.46564  0.81222  1.0000
  Fe  Fe60      1.0  0.06546  0.41309  0.78009  1.0000
  S   S114      1.0  0.07002  0.39544  0.75830  1.0000
  Fe  Fe61      1.0  0.04687  0.40050  0.81124  1.0000
  S   S115      1.0  0.02413  0.36117  0.82321  1.0000
  S   S116      1.0  0.08969  0.45713  0.78604  1.0000
  S   S117      1.0  0.06988  0.44468  0.81904  1.0000
  H   H540      1.0  0.28182  0.01822  0.88922  1.0000
  C   C306      1.0  0.25575  0.06747  0.86567  1.0000
  S   S118      1.0  0.01916  0.21021  0.88652  1.0000
  H   H541      1.0  0.36992  0.39671  0.85147  1.0000
  C   C307      1.0  0.23895  0.20588  0.86146  1.0000
  C   C308      1.0  0.20031  0.02453  0.97807  1.0000
  C   C309      1.0  0.20034  0.15078  0.95764  1.0000
  C   C310      1.0  0.01679  0.34966  0.84092  1.0000
  H   H542      1.0  0.21845  0.44517  0.76106  1.0000
  H   H543      1.0  0.27020  0.21239  0.93347  1.0000
  C   C311      1.0  0.01959  0.36734  0.85273  1.0000
  H   H544      1.0  0.00455  0.30758  0.83407  1.0000
  H   H545      1.0  0.11705  0.27375  0.97389  1.0000
  S   S119      1.0  0.04074  0.48928  0.79285  1.0000
  C   C312      1.0  0.20280  0.42567  0.79573  1.0000
  C   C313      1.0  0.17490  0.41028  0.79670  1.0000
  C   C314      1.0  0.15834  0.42206  0.80246  1.0000
  C   C315      1.0  0.16946  0.44949  0.80707  1.0000
  C   C316      1.0  0.19762  0.46466  0.80669  1.0000
  C   C317      1.0  0.21433  0.45274  0.80106  1.0000
  H   H546      1.0  0.16591  0.38928  0.79269  1.0000
  H   H547      1.0  0.13688  0.41000  0.80298  1.0000
  H   H548      1.0  0.14011  0.37200  0.76659  1.0000
  H   H549      1.0  0.23585  0.46478  0.80028  1.0000
  C   C318      1.0  0.23832  0.26095  0.95932  1.0000
  C   C319      1.0  0.22010  0.27331  0.96051  1.0000
  C   C320      1.0  0.21262  0.27903  0.97408  1.0000
  C   C321      1.0  0.24810  0.25345  0.97185  1.0000
  H   H550      1.0  0.21254  0.27939  0.95100  1.0000
  H   H551      1.0  0.26237  0.24409  0.97109  1.0000
  C   C322      1.0  0.10330  0.23973  0.90937  1.0000
  C   C323      1.0  0.09853  0.22641  0.89585  1.0000
  C   C324      1.0  0.07244  0.21671  0.88900  1.0000
  C   C325      1.0  0.05112  0.22031  0.89565  1.0000
  C   C326      1.0  0.05584  0.23305  0.90928  1.0000
  C   C327      1.0  0.08185  0.24284  0.91607  1.0000
  H   H552      1.0  0.11497  0.22389  0.89064  1.0000
  H   H553      1.0  0.06884  0.20675  0.87847  1.0000
  H   H554      1.0  0.03948  0.23535  0.91466  1.0000
  H   H555      1.0  0.08537  0.25298  0.92656  1.0000
  C   C328      1.0  0.25267  0.32192  0.85927  1.0000
  C   C329      1.0  0.24340  0.33728  0.85032  1.0000
  C   C330      1.0  0.25958  0.35294  0.83956  1.0000
  C   C331      1.0  0.28533  0.35338  0.83748  1.0000
  C   C332      1.0  0.29458  0.33801  0.84643  1.0000
  C   C333      1.0  0.27852  0.32254  0.85726  1.0000
  H   H556      1.0  0.22349  0.33704  0.85170  1.0000
  H   H557      1.0  0.25201  0.36455  0.83283  1.0000
  H   H558      1.0  0.31442  0.33809  0.84499  1.0000
  H   H559      1.0  0.28611  0.31100  0.86401  1.0000
  N   N25       1.0  0.16093  0.43838  0.75457  1.0000
  H   H560      1.0  0.30280  0.00189  0.86533  1.0000
  C   C334      1.0  0.35685  0.40707  0.85487  1.0000
  Fe  Fe62      1.0  0.99097  0.22603  0.89691  1.0000
  H   H561      1.0  0.38684  0.44947  0.76859  1.0000
  C   C335      1.0  0.00677  0.32151  0.84308  1.0000
  H   H562      1.0  0.19763  0.04336  0.97875  1.0000
  C   C336      1.0  0.28138  0.02870  0.86202  1.0000
  C   C337      1.0  0.23998  0.25848  0.98542  1.0000
  H   H563      1.0  0.20798  0.46734  0.77171  1.0000
  C   C338      1.0  0.20286  0.01364  0.96460  1.0000
  H   H564      1.0  0.20205  0.02401  0.95502  1.0000
  C   C339      1.0  0.21783  0.10259  0.89862  1.0000
  C   C340      1.0  0.19041  0.09478  0.89457  1.0000
  C   C341      1.0  0.18044  0.11469  0.89159  1.0000
  C   C342      1.0  0.19754  0.14262  0.89295  1.0000
  C   C343      1.0  0.22496  0.15044  0.89704  1.0000
  C   C344      1.0  0.23507  0.13052  0.89970  1.0000
  H   H565      1.0  0.17691  0.07341  0.89359  1.0000
  H   H566      1.0  0.15925  0.10838  0.88830  1.0000
  H   H567      1.0  0.23847  0.17180  0.89792  1.0000
  H   H568      1.0  0.25635  0.13681  0.90274  1.0000
  H   H569      1.0  0.14100  0.26392  0.96533  1.0000
  H   H570      1.0  0.18387  0.13006  0.95777  1.0000
  H   H571      1.0  0.24270  0.05040  0.85818  1.0000
  S   S120      1.0  0.98980  0.31682  0.88556  1.0000
  N   N26       1.0  0.08143  0.30617  0.87945  1.0000
  C   C345      1.0  0.09679  0.28875  0.88254  1.0000
  C   C346      1.0  0.05192  0.28709  0.87678  1.0000
  C   C347      1.0  0.08497  0.32459  0.89257  1.0000
  C   C348      1.0  0.09333  0.32245  0.86670  1.0000
  C   C349      1.0  0.12714  0.30399  0.88730  1.0000
  C   C350      1.0  0.04506  0.26799  0.86327  1.0000
  C   C351      1.0  0.06391  0.33691  0.89441  1.0000
  C   C352      1.0  0.07840  0.33892  0.86027  1.0000
  H   H572      1.0  0.08719  0.27481  0.89115  1.0000
  H   H573      1.0  0.09604  0.27544  0.87309  1.0000
  H   H574      1.0  0.03845  0.29802  0.87600  1.0000
  H   H575      1.0  0.04475  0.27397  0.88601  1.0000
  H   H576      1.0  0.08430  0.31338  0.90246  1.0000
  H   H577      1.0  0.10532  0.34193  0.89306  1.0000
  H   H578      1.0  0.11444  0.33753  0.86942  1.0000
  H   H579      1.0  0.09587  0.30939  0.85792  1.0000
  H   H580      1.0  0.13917  0.31712  0.87898  1.0000
  H   H581      1.0  0.13015  0.31598  0.89753  1.0000
  H   H582      1.0  0.13574  0.28873  0.88926  1.0000
  H   H583      1.0  0.30083  0.46293  0.84415  1.0000
  H   H584      1.0  0.19946  0.28964  0.97483  1.0000
  H   H585      1.0  0.26209  0.01172  0.86469  1.0000
  H   H586      1.0  0.06080  0.34716  0.88495  1.0000
  H   H587      1.0  0.07098  0.35240  0.90344  1.0000
  H   H588      1.0  0.04411  0.32125  0.89733  1.0000
  H   H589      1.0  0.08667  0.35999  0.86510  1.0000
  H   H590      1.0  0.05624  0.32953  0.86126  1.0000
  H   H591      1.0  0.08107  0.34007  0.84858  1.0000
  H   H592      1.0  0.15364  0.13376  0.92139  1.0000
  C   C353      1.0  0.26828  0.05719  0.87795  1.0000
  H   H593      1.0  0.24233  0.07651  0.87019  1.0000
  H   H594      1.0  0.12605  0.23445  0.98438  1.0000
  H   H595      1.0  0.35471  0.46925  0.76145  1.0000
  C   C354      1.0  0.22251  0.27174  0.98663  1.0000
  H   H596      1.0  0.05068  0.27939  0.85341  1.0000
  H   H597      1.0  0.02274  0.25581  0.86235  1.0000
  H   H598      1.0  0.34860  0.48802  0.87937  1.0000
  H   H599      1.0  0.31602  0.03113  0.88419  1.0000
  H   H600      1.0  0.34344  0.48418  0.83954  1.0000
  C   C355      1.0  0.13555  0.38894  0.76254  1.0000
  H   H601      1.0  0.23887  0.20079  0.92331  1.0000
  C   C356      1.0  0.00159  0.32882  0.86842  1.0000
  C   C357      1.0  0.32257  0.10195  0.87738  1.0000
  H   H602      1.0  0.34607  0.46047  0.82720  1.0000
  H   H603      1.0  0.36248  0.41383  0.86625  1.0000
  C   C358      1.0  0.31587  0.07409  0.86948  1.0000
  H   H604      1.0  0.27134  0.08332  0.85973  1.0000
  H   H605      1.0  0.15650  0.12106  0.93841  1.0000
  H   H606      1.0  0.16191  0.44486  0.77734  1.0000
  H   H607      1.0  0.33444  0.06989  0.87028  1.0000
  H   H608      1.0  0.29406  0.06234  0.90466  1.0000
  H   H609      1.0  0.18757  0.09696  0.94113  1.0000
  C   C359      1.0  0.16218  0.41163  0.75798  1.0000
  H   H610      1.0  0.18931  0.47681  0.74679  1.0000
  H   H611      1.0  0.27627  0.03715  0.85223  1.0000
  C   C360      1.0  0.30104  0.01600  0.85738  1.0000
  H   H612      1.0  0.17732  0.41455  0.76690  1.0000
  C   C361      1.0  0.35385  0.47042  0.83800  1.0000
  H   H613      1.0  0.38601  0.45379  0.74992  1.0000
  H   H614      1.0  0.28361  0.42449  0.74457  1.0000
  H   H615      1.0  0.35518  0.42229  0.83400  1.0000
  C   C362      1.0  0.37660  0.48318  0.76314  1.0000
  H   H616      1.0  0.31437  0.11431  0.87108  1.0000
  H   H617      1.0  0.31071  0.42149  0.83748  1.0000
  C   C363      1.0  0.23634  0.18386  0.94460  1.0000
  H   H618      1.0  0.34496  0.11371  0.87807  1.0000
  H   H619      1.0  0.31589  0.10108  0.88841  1.0000
  H   H620      1.0  0.29267  0.00347  0.84729  1.0000
  C   C364      1.0  0.35681  0.46135  0.86407  1.0000
  H   H621      1.0  0.38374  0.44277  0.84534  1.0000
  H   H622      1.0  0.41446  0.47636  0.76123  1.0000
  H   H623      1.0  0.31182  0.04205  0.90918  1.0000
  H   H624      1.0  0.23684  0.19383  0.87110  1.0000
  H   H625      1.0  0.22563  0.13376  0.92752  1.0000
  H   H626      1.0  0.02713  0.38899  0.85132  1.0000
  S   S121      1.0  0.17805  0.00874  0.91783  1.0000
  S   S122      1.0  0.99187  0.25148  0.94803  1.0000
  C   C365      1.0  0.21982  0.15445  0.97077  1.0000
  C   C366      1.0  0.30903  0.05485  0.90073  1.0000
  H   H627      1.0  0.34594  0.44633  0.87206  1.0000
  N   N27       1.0  0.21178  0.22676  0.84650  1.0000
  C   C367      1.0  0.23801  0.25110  0.84441  1.0000
  C   C368      1.0  0.21546  0.21521  0.86046  1.0000
  C   C369      1.0  0.18960  0.23689  0.84766  1.0000
  C   C370      1.0  0.20601  0.20681  0.83385  1.0000
  C   C371      1.0  0.23795  0.26864  0.83170  1.0000
  C   C372      1.0  0.16083  0.21549  0.85005  1.0000
  C   C373      1.0  0.18723  0.17669  0.83613  1.0000
  H   H628      1.0  0.24430  0.26493  0.85418  1.0000
  H   H629      1.0  0.25495  0.24472  0.84279  1.0000
  H   H630      1.0  0.19693  0.19775  0.86323  1.0000
  H   H631      1.0  0.21920  0.23060  0.86938  1.0000
  H   H632      1.0  0.19500  0.25286  0.85647  1.0000
  H   H633      1.0  0.18726  0.24679  0.83780  1.0000
  H   H634      1.0  0.19713  0.21348  0.82461  1.0000
  H   H635      1.0  0.22538  0.20662  0.83021  1.0000
  H   H636      1.0  0.25916  0.28317  0.83008  1.0000
  H   H637      1.0  0.22993  0.25632  0.82158  1.0000
  H   H638      1.0  0.22652  0.28130  0.83395  1.0000
  H   H639      1.0  0.25891  0.22356  0.86283  1.0000
  H   H640      1.0  0.15984  0.20373  0.85964  1.0000
  H   H641      1.0  0.15217  0.20164  0.84046  1.0000
  H   H642      1.0  0.14731  0.22618  0.85181  1.0000
  H   H643      1.0  0.17403  0.16785  0.82630  1.0000
  H   H644      1.0  0.17350  0.17321  0.84501  1.0000
  H   H645      1.0  0.19936  0.16442  0.83752  1.0000
  C   C374      1.0  0.19290  0.15639  0.93225  1.0000
  C   C375      1.0  0.16782  0.12963  0.92886  1.0000
  H   H646      1.0  0.18547  0.17224  0.93530  1.0000
  H   H647      1.0  0.20219  0.16217  0.92183  1.0000
  H   H648      1.0  0.25678  0.17879  0.92526  1.0000
  C   C376      1.0  0.99952  0.31117  0.85672  1.0000
  H   H649      1.0  0.23886  0.19278  0.85211  1.0000
  H   H650      1.0  0.33574  0.39141  0.85375  1.0000
  H   H651      1.0  0.15338  0.29413  0.97654  1.0000
  H   H652      1.0  0.14498  0.48463  0.77448  1.0000
  S   S123      1.0  0.00872  0.26693  0.90843  1.0000
  H   H653      1.0  0.16923  0.40321  0.74873  1.0000
  H   H654      1.0  0.13025  0.43936  0.76866  1.0000
  H   H655      1.0  0.32142  0.03154  0.85527  1.0000
  H   H656      1.0  0.17342  0.11449  0.92311  1.0000
  C   C377      1.0  0.36134  0.43102  0.84516  1.0000
  C   C378      1.0  0.31709  0.43186  0.84823  1.0000
  H   H657      1.0  0.37920  0.48897  0.77475  1.0000
  H   H658      1.0  0.24607  0.14190  0.94350  1.0000
  H   H659      1.0  0.21245  0.10460  0.95577  1.0000
  H   H660      1.0  0.22894  0.19928  0.94852  1.0000
  C   C379      1.0  0.15266  0.44961  0.76765  1.0000
  H   H661      1.0  0.25247  0.18480  0.95259  1.0000
  C   C380      1.0  0.25113  0.19410  0.93075  1.0000
  C   C381      1.0  0.21250  0.46262  0.76079  1.0000
  H   H662      1.0  0.23472  0.14555  0.96881  1.0000
  N   N28       1.0  0.34724  0.44926  0.84910  1.0000
  H   H663      1.0  0.19014  0.16483  0.95962  1.0000
  C   C382      1.0  0.29820  0.44621  0.85133  1.0000
  H   H664      1.0  0.21815  0.09263  0.93881  1.0000
  N   N29       1.0  0.21340  0.15583  0.94346  1.0000
  C   C383      1.0  0.22465  0.13524  0.93930  1.0000
  C   C384      1.0  0.20953  0.10589  0.94411  1.0000
  H   H665      1.0  0.05439  0.25311  0.86392  1.0000
  C   C385      1.0  0.13726  0.27315  0.97536  1.0000
  C   C386      1.0  0.01180  0.35695  0.86631  1.0000
  H   H666      1.0  0.25155  0.03921  0.88207  1.0000
  C   C387      1.0  0.18855  0.45684  0.74983  1.0000
  H   H667      1.0  0.37872  0.46567  0.86594  1.0000
  C   C388      1.0  0.29929  0.03728  0.88672  1.0000
  C   C389      1.0  0.35422  0.48830  0.86808  1.0000
  H   H668      1.0  0.20641  0.48586  0.81034  1.0000
  H   H669      1.0  0.31283  0.07726  0.85798  1.0000
  N   N30       1.0  0.29161  0.05005  0.87418  1.0000
  C   C390      1.0  0.16102  0.48073  0.76898  1.0000
  C   C391      1.0  0.39219  0.46511  0.76044  1.0000
  H   H670      1.0  0.15997  0.25751  0.98898  1.0000
  H   H671      1.0  0.23056  0.48037  0.75760  1.0000
  H   H672      1.0  0.31170  0.41533  0.85587  1.0000
  H   H673      1.0  0.27683  0.43113  0.84940  1.0000
  H   H674      1.0  0.23099  0.17636  0.97404  1.0000
  H   H675      1.0  0.30031  0.45338  0.86269  1.0000
  H   H676      1.0  0.16358  0.49100  0.75880  1.0000
  S   S124      1.0  0.19382  0.00147  0.88437  1.0000
  H   H677      1.0  0.99194  0.28952  0.85808  1.0000
  C   C392      1.0  0.13874  0.25595  0.98796  1.0000
  H   H678      1.0  0.17960  0.49073  0.77611  1.0000
  H   H679      1.0  0.01346  0.37088  0.87522  1.0000
  H   H680      1.0  0.39434  0.47824  0.83039  1.0000
  C   C393      1.0  0.38435  0.48868  0.83694  1.0000
  H   H681      1.0  0.00446  0.24157  0.97656  1.0000
  H   H682      1.0  0.39700  0.49100  0.80110  1.0000
  C   C394      1.0  0.06276  0.40518  0.74128  1.0000
  C   C395      1.0  0.14026  0.43266  0.74231  1.0000
  H   H683      1.0  0.12483  0.46435  0.74527  1.0000
  H   H684      1.0  0.33876  0.49227  0.86170  1.0000
  H   H685      1.0  0.01929  0.81376  0.02267  1.0000
  S   S125      1.0  0.04361  0.82401  0.07071  1.0000
  C   C396      1.0  0.05268  0.87510  0.06101  1.0000
  H   H686      1.0  0.03083  0.86807  0.05995  1.0000
  N   N31       1.0  0.02070  0.75032  0.10322  1.0000
  C   C397      1.0  0.00873  0.86226  0.01804  1.0000
  C   C398      1.0  0.04227  0.73959  0.10556  1.0000
  H   H687      1.0  0.05530  0.74314  0.09624  1.0000
  H   H688      1.0  0.05645  0.75090  0.11473  1.0000
  C   C399      1.0  0.03409  0.77906  0.09842  1.0000
  C   C400      1.0  0.03835  0.82942  0.02783  1.0000
  C   C401      1.0  0.06415  0.85793  0.06626  1.0000
  N   N32       1.0  0.05190  0.85230  0.01796  1.0000
  C   C402      1.0  0.04631  0.84186  0.00255  1.0000
  H   H689      1.0  0.01878  0.78682  0.09490  1.0000
  H   H690      1.0  0.02407  0.83091  0.00006  1.0000
  H   H691      1.0  0.06034  0.91465  0.05314  1.0000
  H   H692      1.0  0.03192  0.83701  0.03759  1.0000
  C   C403      1.0  0.05539  0.81438  0.03361  1.0000
  H   H693      1.0  0.04204  0.79638  0.03926  1.0000
  H   H694      1.0  0.04591  0.77984  0.08883  1.0000
  C   C404      1.0  0.05854  0.82185  0.99782  1.0000
  H   H695      1.0  0.02214  0.75758  0.12610  1.0000
  H   H696      1.0  0.02040  0.74935  0.07211  1.0000
  H   H697      1.0  0.04581  0.88329  0.03077  1.0000
  H   H698      1.0  0.06498  0.80706  0.02521  1.0000
  C   C405      1.0  0.06948  0.90156  0.05718  1.0000
  H   H699      1.0  0.04455  0.80214  0.11936  1.0000
  C   C406      1.0  0.05418  0.80021  0.10941  1.0000
  C   C407      1.0  0.03187  0.70917  0.10877  1.0000
  C   C408      1.0  0.01069  0.72972  0.07730  1.0000
  H   H700      1.0  0.02042  0.70451  0.11863  1.0000
  H   H701      1.0  0.02495  0.71970  0.07808  1.0000
  C   C409      1.0  0.99969  0.73321  0.09186  1.0000
  H   H702      1.0  0.01921  0.69567  0.09975  1.0000
  H   H703      1.0  0.06182  0.82048  0.10466  1.0000
  C   C410      1.0  0.00678  0.74922  0.11700  1.0000
  H   H704      1.0  0.00257  0.87921  0.02043  1.0000
  H   H705      1.0  0.99829  0.84628  0.02552  1.0000
  H   H706      1.0  0.04929  0.80244  0.00322  1.0000
  H   H707      1.0  0.99341  0.71640  0.06999  1.0000
  H   H708      1.0  0.00113  0.85454  0.00695  1.0000
  Fe  Fe63      1.0  0.99864  0.80177  0.06381  1.0000
  H   H709      1.0  0.07140  0.82750  0.04160  1.0000
  H   H710      1.0  0.04959  0.70390  0.11053  1.0000
  C   C411      1.0  0.03994  0.87306  0.01995  1.0000
  H   H711      1.0  0.04804  0.88948  0.01229  1.0000
  H   H712      1.0  0.08096  0.83064  0.99938  1.0000
  H   H713      1.0  0.05341  0.85905  0.99530  1.0000
  H   H714      1.0  0.99802  0.78411  0.12398  1.0000
  H   H715      1.0  0.99413  0.72773  0.11944  1.0000
  H   H716      1.0  0.38244  0.98294  0.11692  1.0000
  S   S126      1.0  0.19831  0.97760  0.04175  1.0000
  H   H717      1.0  0.39076  0.98330  0.13509  1.0000
  H   H718      1.0  0.30663  0.98964  0.10742  1.0000
  H   H719      1.0  0.07217  0.79582  0.11193  1.0000
  H   H720      1.0  0.10179  0.85473  0.07192  1.0000
  C   C412      1.0  0.31648  0.98759  0.11767  1.0000
  H   H721      1.0  0.33567  0.94985  0.13540  1.0000
  H   H722      1.0  0.33101  0.98499  0.14378  1.0000
  H   H723      1.0  0.09591  0.88796  0.00207  1.0000
  C   C413      1.0  0.37363  0.98156  0.12756  1.0000
  H   H724      1.0  0.37150  0.98207  0.15686  1.0000
  C   C414      1.0  0.09823  0.89197  0.01380  1.0000
  H   H725      1.0  0.20603  0.97689  0.99925  1.0000
  H   H726      1.0  0.13138  0.90139  0.06490  1.0000
  C   C415      1.0  0.09796  0.91125  0.05843  1.0000
  C   C416      1.0  0.08193  0.86642  0.02194  1.0000
  H   H727      1.0  0.08510  0.87284  0.03352  1.0000
  H   H728      1.0  0.31227  0.96586  0.11840  1.0000
  C   C417      1.0  0.10951  0.89425  0.06388  1.0000
  Fe  Fe64      1.0  0.16134  0.97664  0.05294  1.0000
  S   S127      1.0  0.11754  0.94383  0.05198  1.0000
  H   H729      1.0  0.34190  0.94491  0.11694  1.0000
  H   H730      1.0  0.09300  0.90927  0.01686  1.0000
  C   C418      1.0  0.35155  0.95231  0.12779  1.0000
  C   C419      1.0  0.09265  0.86776  0.06782  1.0000
  H   H731      1.0  0.09227  0.85249  0.02057  1.0000
  H   H732      1.0  0.36106  0.93861  0.13142  1.0000
  H   H733      1.0  0.12017  0.89880  0.01691  1.0000
  H   H734      1.0  0.18630  0.94153  0.33648  1.0000
  C   C420      1.0  0.11010  0.91544  0.45919  1.0000
  H   H735      1.0  0.14913  0.95014  0.46541  1.0000
  Fe  Fe65      1.0  0.17944  0.99051  0.39909  1.0000
  H   H736      1.0  0.11398  0.90096  0.46618  1.0000
  Fe  Fe66      1.0  0.02321  0.81173  0.40411  1.0000
  S   S128      1.0  0.06872  0.83926  0.40317  1.0000
  S   S129      1.0  0.01396  0.77274  0.41560  1.0000
  C   C421      1.0  0.12549  0.95460  0.43010  1.0000
  H   H737      1.0  0.08686  0.92855  0.43811  1.0000
  S   S130      1.0  0.13639  0.96436  0.39014  1.0000
  C   C422      1.0  0.08680  0.87401  0.39924  1.0000
  C   C423      1.0  0.07386  0.89015  0.39425  1.0000
  C   C424      1.0  0.08929  0.91768  0.39142  1.0000
  C   C425      1.0  0.11770  0.92962  0.39390  1.0000
  C   C426      1.0  0.13059  0.91353  0.39902  1.0000
  C   C427      1.0  0.11528  0.88586  0.40144  1.0000
  H   H738      1.0  0.05200  0.88136  0.39244  1.0000
  H   H739      1.0  0.07908  0.92987  0.38741  1.0000
  H   H740      1.0  0.15236  0.92235  0.40106  1.0000
  H   H741      1.0  0.12555  0.87357  0.40523  1.0000
  N   N33       1.0  0.11480  0.91011  0.44385  1.0000
  S   S131      1.0  0.20923  0.97227  0.40385  1.0000
  H   H742      1.0  0.19103  0.98350  0.34193  1.0000
  C   C428      1.0  0.19429  0.93323  0.34537  1.0000
  C   C429      1.0  0.21300  0.98171  0.48839  1.0000
  H   H743      1.0  0.08849  0.91172  0.46047  1.0000
  H   H744      1.0  0.20591  0.90464  0.33352  1.0000
  C   C430      1.0  0.13552  0.89480  0.35958  1.0000
  C   C431      1.0  0.12695  0.94425  0.46576  1.0000
  H   H745      1.0  0.14358  0.93584  0.36538  1.0000
  H   H746      1.0  0.10420  0.87443  0.42956  1.0000
  S   S132      1.0  0.99176  0.79072  0.38610  1.0000
  C   C432      1.0  0.06742  0.87004  0.43951  1.0000
  H   H747      1.0  0.00435  0.75507  0.45967  1.0000
  H   H748      1.0  0.09758  0.91490  0.42337  1.0000
  H   H749      1.0  0.18266  0.92789  0.38149  1.0000
  H   H750      1.0  0.14709  0.91249  0.43019  1.0000
  H   H751      1.0  0.18630  0.97008  0.37382  1.0000
  H   H752      1.0  0.18890  0.89055  0.34883  1.0000
  H   H753      1.0  0.22542  0.92132  0.38293  1.0000
  H   H754      1.0  0.11472  0.96479  0.42388  1.0000
  H   H755      1.0  0.13607  0.96814  0.43948  1.0000
  C   C433      1.0  0.19091  0.92379  0.37139  1.0000
  H   H756      1.0  0.17909  0.90860  0.44853  1.0000
  H   H757      1.0  0.05822  0.84789  0.43648  1.0000
  H   H758      1.0  0.12129  0.95958  0.46067  1.0000
  H   H759      1.0  0.15585  0.90403  0.46222  1.0000
  C   C434      1.0  0.09869  0.88014  0.44011  1.0000
  C   C435      1.0  0.14428  0.91641  0.44163  1.0000
  H   H760      1.0  0.11370  0.88925  0.35667  1.0000
  H   H761      1.0  0.10356  0.86740  0.44790  1.0000
  H   H762      1.0  0.19664  0.94945  0.47200  1.0000
  H   H763      1.0  0.05964  0.87251  0.44999  1.0000
  C   C436      1.0  0.01002  0.65350  0.34283  1.0000
  H   H764      1.0  0.99916  0.63209  0.31672  1.0000
  H   H765      1.0  0.05986  0.87988  0.43123  1.0000
  C   C437      1.0  0.22181  0.93283  0.37406  1.0000
  C   C438      1.0  0.20806  0.97105  0.47415  1.0000
  C   C439      1.0  0.15710  0.90074  0.45060  1.0000
  H   H766      1.0  0.16969  0.89456  0.33355  1.0000
  H   H767      1.0  0.14102  0.95297  0.42312  1.0000
  H   H768      1.0  0.23139  0.92840  0.36461  1.0000
  H   H769      1.0  0.15726  0.93827  0.44395  1.0000
  C   C440      1.0  0.18901  0.90399  0.34016  1.0000
  H   H770      1.0  0.23236  0.95464  0.37748  1.0000
  C   C441      1.0  0.10484  0.92613  0.43390  1.0000
  C   C442      1.0  0.15163  0.92544  0.35751  1.0000
  H   H771      1.0  0.14825  0.87870  0.44751  1.0000
  H   H772      1.0  0.14212  0.88169  0.35283  1.0000
  N   N34       1.0  0.18230  0.93662  0.35919  1.0000
  H   H773      1.0  0.13650  0.89000  0.37096  1.0000
  C   C443      1.0  0.19275  0.96673  0.36304  1.0000
  H   H774      1.0  0.14504  0.92972  0.34683  1.0000
  H   H775      1.0  0.21661  0.94583  0.34561  1.0000
  S   S133      1.0  0.21273  0.97327  0.44510  1.0000
  H   H776      1.0  0.06095  0.84597  0.48782  1.0000
  H   H777      1.0  0.12259  0.94486  0.47723  1.0000
  H   H778      1.0  0.18221  0.90131  0.37007  1.0000
  H   H779      1.0  0.01298  0.74018  0.48349  1.0000
  H   H780      1.0  0.04447  0.80913  0.48606  1.0000
  H   H781      1.0  0.01424  0.66863  0.35193  1.0000
  H   H782      1.0  0.00659  0.60089  0.33283  1.0000
  H   H783      1.0  0.02341  0.64271  0.34463  1.0000
  S   S134      1.0  0.99473  0.82343  0.41677  1.0000
  C   C444      1.0  0.21826  0.98803  0.46274  1.0000
  H   H784      1.0  0.01554  0.66543  0.33312  1.0000
  C   C445      1.0  0.18358  0.98363  0.35278  1.0000
  C   C446      1.0  0.00186  0.75290  0.48265  1.0000
  H   H785      1.0  0.16121  0.97701  0.35220  1.0000
  C   C447      1.0  0.99699  0.76130  0.46912  1.0000
  H   H786      1.0  0.21535  0.97652  0.36368  1.0000
  H   H787      1.0  0.43878  0.49884  0.33692  1.0000
  H   H788      1.0  0.09861  0.83417  0.48985  1.0000
  H   H789      1.0  0.98864  0.55533  0.32809  1.0000
  H   H790      1.0  0.46552  0.59587  0.66521  1.0000
  H   H791      1.0  0.06936  0.78801  0.49469  1.0000
  H   H792      1.0  0.04707  0.61254  0.71217  1.0000
  H   H793      1.0  0.35286  0.94903  0.62984  1.0000
  S   S135      1.0  0.04617  0.83977  0.56779  1.0000
  S   S136      1.0  0.01692  0.76482  0.55273  1.0000
  Fe  Fe67      1.0  0.15929  0.96198  0.53716  1.0000
  S   S137      1.0  0.11891  0.93090  0.52772  1.0000
  S   S138      1.0  0.19866  0.95817  0.53400  1.0000
  Fe  Fe68      1.0  0.07140  0.67638  0.67770  1.0000
  S   S139      1.0  0.11205  0.67533  0.68071  1.0000
  S   S140      1.0  0.04178  0.66470  0.69552  1.0000
  Fe  Fe69      1.0  0.08106  0.69342  0.64645  1.0000
  S   S141      1.0  0.12261  0.69218  0.64753  1.0000
  S   S142      1.0  0.07104  0.71664  0.62842  1.0000
  Fe  Fe70      1.0  0.10269  0.65310  0.65910  1.0000
  S   S143      1.0  0.11549  0.61756  0.66074  1.0000
  Fe  Fe71      1.0  0.12831  0.71380  0.66901  1.0000
  S   S144      1.0  0.16313  0.75180  0.67831  1.0000
  S   S145      1.0  0.06067  0.65257  0.65647  1.0000
  S   S146      1.0  0.08807  0.71672  0.66766  1.0000
  Fe  Fe72      1.0  0.29461  0.90208  0.67341  1.0000
  S   S147      1.0  0.31399  0.87267  0.67010  1.0000
  S   S148      1.0  0.27460  0.90411  0.69416  1.0000
  Fe  Fe73      1.0  0.30104  0.91952  0.64190  1.0000
  S   S149      1.0  0.32073  0.89084  0.63657  1.0000
  S   S150      1.0  0.30025  0.95164  0.62637  1.0000
  Fe  Fe74      1.0  0.28841  0.86102  0.64954  1.0000
  S   S151      1.0  0.26450  0.81700  0.64219  1.0000
  Fe  Fe75      1.0  0.34475  0.90508  0.65758  1.0000
  S   S152      1.0  0.39111  0.92245  0.66131  1.0000
  S   S153      1.0  0.26708  0.88853  0.65340  1.0000
  S   S154      1.0  0.32690  0.93558  0.66238  1.0000
  H   H794      1.0  0.12627  0.74923  0.60136  1.0000
  C   C448      1.0  0.41198  0.51109  0.64502  1.0000
  C   C449      1.0  0.44025  0.52013  0.64742  1.0000
  C   C450      1.0  0.45825  0.54605  0.64340  1.0000
  C   C451      1.0  0.44820  0.56322  0.63676  1.0000
  C   C452      1.0  0.41993  0.55397  0.63412  1.0000
  C   C453      1.0  0.40188  0.52818  0.63834  1.0000
  H   H795      1.0  0.02238  0.56981  0.68315  1.0000
  H   H796      1.0  0.41195  0.56688  0.62877  1.0000
  H   H797      1.0  0.38022  0.52147  0.63630  1.0000
  C   C454      1.0  0.45637  0.89515  0.64508  1.0000
  C   C455      1.0  0.46354  0.92088  0.65177  1.0000
  C   C456      1.0  0.44326  0.92887  0.65656  1.0000
  C   C457      1.0  0.41555  0.91139  0.65461  1.0000
  C   C458      1.0  0.40830  0.88592  0.64761  1.0000
  C   C459      1.0  0.42862  0.87789  0.64286  1.0000
  H   H798      1.0  0.05730  0.77827  0.51172  1.0000
  H   H799      1.0  0.44910  0.94873  0.66184  1.0000
  H   H800      1.0  0.38708  0.87227  0.64598  1.0000
  H   H801      1.0  0.42280  0.85804  0.63757  1.0000
  C   C460      1.0  0.19220  0.76892  0.66867  1.0000
  C   C461      1.0  0.20839  0.79640  0.67235  1.0000
  C   C462      1.0  0.23102  0.81112  0.66450  1.0000
  C   C463      1.0  0.23779  0.79834  0.65301  1.0000
  C   C464      1.0  0.22214  0.77060  0.64962  1.0000
  C   C465      1.0  0.19928  0.75593  0.65738  1.0000
  H   H802      1.0  0.20303  0.80653  0.68108  1.0000
  H   H803      1.0  0.24298  0.83248  0.66721  1.0000
  H   H804      1.0  0.22757  0.76055  0.64088  1.0000
  H   H805      1.0  0.18718  0.73461  0.65464  1.0000
  C   C466      1.0  0.10053  0.58258  0.65501  1.0000
  C   C467      1.0  0.08404  0.57312  0.64248  1.0000
  C   C468      1.0  0.07538  0.54572  0.63752  1.0000
  C   C469      1.0  0.08259  0.52736  0.64517  1.0000
  C   C470      1.0  0.09819  0.53661  0.65800  1.0000
  C   C471      1.0  0.10732  0.56411  0.66279  1.0000
  H   H806      1.0  0.07886  0.58712  0.63630  1.0000
  H   H807      1.0  0.06337  0.53881  0.62756  1.0000
  H   H808      1.0  0.10394  0.52281  0.66401  1.0000
  H   H809      1.0  0.12030  0.57127  0.67242  1.0000
  C   C472      1.0  0.26670  0.97336  0.59173  1.0000
  C   C473      1.0  0.28373  0.97347  0.60357  1.0000
  C   C474      1.0  0.27807  0.95007  0.61144  1.0000
  C   C475      1.0  0.40845  0.92298  0.61654  1.0000
  H   H810      1.0  0.15691  0.50652  0.67078  1.0000
  H   H811      1.0  0.16620  0.74392  0.60765  1.0000
  C   C476      1.0  0.06615  0.86479  0.55644  1.0000
  C   C477      1.0  0.09226  0.88305  0.56135  1.0000
  C   C478      1.0  0.10861  0.90348  0.55264  1.0000
  C   C479      1.0  0.09867  0.90610  0.53908  1.0000
  C   C480      1.0  0.07229  0.88823  0.53429  1.0000
  C   C481      1.0  0.05618  0.86736  0.54286  1.0000
  H   H812      1.0  0.10006  0.88119  0.57186  1.0000
  H   H813      1.0  0.12898  0.91703  0.55640  1.0000
  H   H814      1.0  0.06442  0.89049  0.52388  1.0000
  H   H815      1.0  0.03599  0.85351  0.53902  1.0000
  H   H816      1.0  0.08167  0.81740  0.54776  1.0000
  C   C482      1.0  0.02801  0.73681  0.59753  1.0000
  C   C483      1.0  0.04769  0.73752  0.60807  1.0000
  C   C484      1.0  0.04499  0.71417  0.61537  1.0000
  C   C485      1.0  0.16179  0.50680  0.62187  1.0000
  H   H817      1.0  0.17427  0.54039  0.66538  1.0000
  H   H818      1.0  0.03056  0.75496  0.59200  1.0000
  H   H819      1.0  0.06504  0.75643  0.61061  1.0000
  H   H820      1.0  0.11340  0.77331  0.62911  1.0000
  C   C486      1.0  0.08239  0.68755  0.71687  1.0000
  C   C487      1.0  0.05469  0.67257  0.71355  1.0000
  C   C488      1.0  0.03705  0.66309  0.72477  1.0000
  H   H821      1.0  0.25115  0.85704  0.71514  1.0000
  H   H822      1.0  0.09623  0.69515  0.70841  1.0000
  C   C489      1.0  0.09882  0.59290  0.70420  1.0000
  C   C490      1.0  0.27719  0.90950  0.72344  1.0000
  C   C491      1.0  0.29190  0.91094  0.71118  1.0000
  C   C492      1.0  0.31975  0.91755  0.71278  1.0000
  H   H823      1.0  0.25571  0.90482  0.72229  1.0000
  H   H824      1.0  0.06239  0.59513  0.73353  1.0000
  H   H825      1.0  0.21086  0.84345  0.63889  1.0000
  C   C493      1.0  0.33278  0.92305  0.72650  1.0000
  C   C494      1.0  0.25507  0.92649  0.60729  1.0000
  H   H826      1.0  0.19220  0.84073  0.62246  1.0000
  C   C495      1.0  0.00204  0.68943  0.60170  1.0000
  H   H827      1.0  0.36157  0.98007  0.62121  1.0000
  C   C496      1.0  0.07529  0.79232  0.50628  1.0000
  H   H828      1.0  0.05257  0.81135  0.53628  1.0000
  C   C497      1.0  0.17007  0.74432  0.61935  1.0000
  H   H829      1.0  0.03720  0.70421  0.65368  1.0000
  C   C498      1.0  0.02194  0.69006  0.61212  1.0000
  H   H830      1.0  0.34011  0.91530  0.59311  1.0000
  H   H831      1.0  0.13391  0.80860  0.63066  1.0000
  H   H832      1.0  0.00473  0.89696  0.55615  1.0000
  C   C499      1.0  0.19916  0.53967  0.63692  1.0000
  C   C500      1.0  0.05573  0.82582  0.50835  1.0000
  H   H833      1.0  0.12264  0.83686  0.50346  1.0000
  H   H834      1.0  0.30146  0.99183  0.60664  1.0000
  H   H835      1.0  0.22632  0.76684  0.72015  1.0000
  H   H836      1.0  0.08064  0.63481  0.70898  1.0000
  H   H837      1.0  0.41965  0.52104  0.68559  1.0000
  H   H838      1.0  0.07439  0.63113  0.73438  1.0000
  H   H839      1.0  0.20004  0.79926  0.62700  1.0000
  H   H840      1.0  0.45281  0.62607  0.69798  1.0000
  C   C501      1.0  0.13370  0.78667  0.64964  1.0000
  H   H841      1.0  0.17342  0.51776  0.61274  1.0000
  H   H842      1.0  0.44832  0.50693  0.65240  1.0000
  C   C502      1.0  0.09237  0.69281  0.73121  1.0000
  C   C503      1.0  0.10360  0.83979  0.50144  1.0000
  H   H843      1.0  0.47307  0.89049  0.73035  1.0000
  H   H844      1.0  0.17239  0.97328  0.59428  1.0000
  C   C504      1.0  0.02685  0.73848  0.65095  1.0000
  H   H845      1.0  0.17609  0.83806  0.63937  1.0000
  C   C505      1.0  0.19056  0.83268  0.63328  1.0000
  C   C506      1.0  0.99321  0.69591  0.69006  1.0000
  C   C507      1.0  0.46746  0.87930  0.71976  1.0000
  H   H846      1.0  0.21677  0.97465  0.60108  1.0000
  H   H847      1.0  0.03436  0.59852  0.67232  1.0000
  C   C508      1.0  0.44529  0.89140  0.68802  1.0000
  H   H848      1.0  0.25950  0.80287  0.73037  1.0000
  H   H849      1.0  0.44507  0.86908  0.71873  1.0000
  H   H850      1.0  0.39593  0.52793  0.69593  1.0000
  C   C509      1.0  0.41913  0.87239  0.69479  1.0000
  N   N35       1.0  0.99812  0.69368  0.66268  1.0000
  H   H851      1.0  0.47995  0.55250  0.64508  1.0000
  C   C510      1.0  0.21431  0.52076  0.63693  1.0000
  C   C511      1.0  0.46755  0.61986  0.70357  1.0000
  C   C512      1.0  0.37046  0.96768  0.62709  1.0000
  H   H852      1.0  0.48813  0.90171  0.67203  1.0000
  C   C513      1.0  0.03539  0.59193  0.68334  1.0000
  H   H853      1.0  0.44166  0.88865  0.67621  1.0000
  H   H854      1.0  0.41599  0.88186  0.70486  1.0000
  H   H855      1.0  0.07234  0.58688  0.67985  1.0000
  H   H856      1.0  0.13449  0.53676  0.63184  1.0000
  H   H857      1.0  0.20479  0.50330  0.64372  1.0000
  H   H858      1.0  0.10089  0.57821  0.69621  1.0000
  C   C514      1.0  0.43444  0.56320  0.69508  1.0000
  C   C515      1.0  0.41201  0.53680  0.68821  1.0000
  H   H859      1.0  0.03069  0.70832  0.67923  1.0000
  C   C516      1.0  0.05069  0.56501  0.70687  1.0000
  C   C517      1.0  0.23798  0.92642  0.59551  1.0000
  H   H860      1.0  0.41836  0.85198  0.69672  1.0000
  H   H861      1.0  0.45858  0.60867  0.71314  1.0000
  C   C518      1.0  0.47973  0.89959  0.70804  1.0000
  H   H862      1.0  0.38678  0.94488  0.59586  1.0000
  H   H863      1.0  0.40153  0.86861  0.68719  1.0000
  H   H864      1.0  0.20531  0.96836  0.49707  1.0000
  N   N36       1.0  0.07075  0.59251  0.70284  1.0000
  C   C519      1.0  0.18350  0.80188  0.63274  1.0000
  C   C520      1.0  0.12246  0.62058  0.70210  1.0000
  N   N37       1.0  0.23069  0.82147  0.72712  1.0000
  H   H865      1.0  0.11906  0.88121  0.49397  1.0000
  S   S155      1.0  0.16904  0.97582  0.56020  1.0000
  H   H866      1.0  0.03837  0.80912  0.51297  1.0000
  H   H867      1.0  0.06974  0.78861  0.53540  1.0000
  H   H868      1.0  0.01443  0.66405  0.66738  1.0000
  C   C521      1.0  0.01005  0.70791  0.67703  1.0000
  H   H869      1.0  0.42739  0.97648  0.59511  1.0000
  H   H870      1.0  0.02696  0.60320  0.69035  1.0000
  C   C522      1.0  0.09161  0.82831  0.52593  1.0000
  H   H871      1.0  0.01118  0.69865  0.64080  1.0000
  Fe  Fe76      1.0  0.20971  0.97443  0.55699  1.0000
  N   N38       1.0  0.15600  0.78363  0.62605  1.0000
  H   H872      1.0  0.18954  0.79785  0.71851  1.0000
  H   H873      1.0  0.44580  0.97236  0.61092  1.0000
  H   H874      1.0  0.28234  0.84165  0.70781  1.0000
  C   C523      1.0  0.04976  0.54036  0.69758  1.0000
  H   H875      1.0  0.00518  0.86809  0.59174  1.0000
  C   C524      1.0  0.37414  0.94930  0.60371  1.0000
  H   H876      1.0  0.09496  0.87598  0.50706  1.0000
  H   H877      1.0  0.42753  0.92387  0.62190  1.0000
  H   H878      1.0  0.22336  0.83124  0.70554  1.0000
  H   H879      1.0  0.33132  0.91897  0.70341  1.0000
  C   C525      1.0  0.07259  0.81013  0.53679  1.0000
  H   H880      1.0  0.15218  0.80238  0.65515  1.0000
  H   H881      1.0  0.15497  0.75098  0.63920  1.0000
  H   H882      1.0  0.99904  0.65465  0.64085  1.0000
  H   H883      1.0  0.18575  0.79625  0.64381  1.0000
  C   C526      1.0  0.26122  0.82633  0.70545  1.0000
  H   H884      1.0  0.11098  0.77258  0.60545  1.0000
  H   H885      1.0  0.12121  0.62786  0.69132  1.0000
  C   C527      1.0  0.09833  0.78284  0.50917  1.0000
  C   C528      1.0  0.24360  0.94981  0.58764  1.0000
  H   H886      1.0  0.13021  0.74032  0.62495  1.0000
  H   H887      1.0  0.13126  0.77713  0.59035  1.0000
  C   C529      1.0  0.22194  0.84000  0.73610  1.0000
  C   C530      1.0  0.39723  0.94033  0.62555  1.0000
  H   H888      1.0  0.16563  0.72307  0.62212  1.0000
  C   C531      1.0  0.15520  0.78963  0.61050  1.0000
  H   H889      1.0  0.25037  0.90833  0.61320  1.0000
  H   H890      1.0  0.28553  0.85664  0.73214  1.0000
  H   H891      1.0  0.04174  0.74983  0.65981  1.0000
  H   H892      1.0  0.11609  0.79003  0.65358  1.0000
  H   H893      1.0  0.40201  0.54070  0.67852  1.0000
  H   H894      1.0  0.17308  0.78888  0.60523  1.0000
  H   H895      1.0  0.13126  0.76627  0.65296  1.0000
  H   H896      1.0  0.15677  0.81070  0.60932  1.0000
  H   H897      1.0  0.19191  0.75643  0.62212  1.0000
  H   H898      1.0  0.18940  0.51623  0.66372  1.0000
  H   H899      1.0  0.01958  0.67180  0.61746  1.0000
  H   H900      1.0  0.09502  0.84959  0.52907  1.0000
  H   H901      1.0  0.36840  0.96482  0.59866  1.0000
  H   H902      1.0  0.45843  0.54221  0.67498  1.0000
  C   C532      1.0  0.46051  0.84747  0.67533  1.0000
  N   N39       1.0  0.16862  0.52552  0.63512  1.0000
  H   H903      1.0  0.25768  0.82696  0.69375  1.0000
  H   H904      1.0  0.43570  0.56660  0.66515  1.0000
  H   H905      1.0  0.45581  0.84653  0.69777  1.0000
  C   C533      1.0  0.15585  0.50877  0.64768  1.0000
  H   H906      1.0  0.11388  0.70436  0.73363  1.0000
  H   H907      1.0  0.44009  0.84611  0.67193  1.0000
  H   H908      1.0  0.25986  0.80572  0.70737  1.0000
  H   H909      1.0  0.01558  0.65146  0.72233  1.0000
  H   H910      1.0  0.35147  0.90677  0.60961  1.0000
  H   H911      1.0  0.12365  0.63642  0.71027  1.0000
  H   H912      1.0  0.05539  0.56097  0.71797  1.0000
  H   H913      1.0  0.05464  0.54496  0.68635  1.0000
  C   C534      1.0  0.47145  0.55923  0.68251  1.0000
  H   H914      1.0  0.11189  0.82780  0.52770  1.0000
  H   H915      1.0  0.19120  0.75387  0.71482  1.0000
  C   C535      1.0  0.00500  0.71272  0.59422  1.0000
  C   C536      1.0  0.03358  0.90291  0.57346  1.0000
  H   H916      1.0  0.19804  0.78605  0.73471  1.0000
  H   H917      1.0  0.07712  0.61986  0.68557  1.0000
  H   H918      1.0  0.41258  0.95092  0.63441  1.0000
  N   N40       1.0  0.47138  0.88932  0.69268  1.0000
  C   C537      1.0  0.43233  0.60332  0.67255  1.0000
  N   N41       1.0  0.45776  0.57813  0.68586  1.0000
  C   C538      1.0  0.19845  0.84613  0.72963  1.0000
  C   C539      1.0  0.17017  0.51899  0.66259  1.0000
  C   C540      1.0  0.34793  0.92311  0.60419  1.0000
  C   C541      1.0  0.20626  0.79483  0.72439  1.0000
  H   H919      1.0  0.22015  0.90810  0.59250  1.0000
  C   C542      1.0  0.15165  0.75443  0.62782  1.0000
  C   C543      1.0  0.06523  0.59813  0.68767  1.0000
  C   C544      1.0  0.13368  0.78848  0.63323  1.0000
  C   C545      1.0  0.07622  0.61376  0.72854  1.0000
  C   C546      1.0  0.12938  0.77088  0.60157  1.0000
  N   N42       1.0  0.08159  0.82161  0.51050  1.0000
  Fe  Fe77      1.0  0.01067  0.80241  0.55861  1.0000
  H   H920      1.0  0.47519  0.85800  0.66727  1.0000
  H   H921      1.0  0.00305  0.70947  0.69966  1.0000
  H   H922      1.0  0.12841  0.87943  0.51249  1.0000
  H   H923      1.0  0.42400  0.57613  0.69857  1.0000
  C   C547      1.0  0.46982  0.86081  0.69049  1.0000
  H   H924      1.0  0.05699  0.84447  0.51427  1.0000
  H   H925      1.0  0.11617  0.79362  0.50281  1.0000
  H   H926      1.0  0.33159  0.92703  0.60934  1.0000
  H   H927      1.0  0.04959  0.91462  0.56617  1.0000
  H   H928      1.0  0.27142  0.99146  0.58579  1.0000
  C   C548      1.0  0.21043  0.77256  0.71540  1.0000
  H   H929      1.0  0.37672  0.88649  0.72856  1.0000
  H   H930      1.0  0.39286  0.97286  0.64800  1.0000
  C   C549      1.0  0.00796  0.88404  0.56442  1.0000
  H   H931      1.0  0.14193  0.61820  0.70308  1.0000
  H   H932      1.0  0.35445  0.92901  0.72756  1.0000
  H   H933      1.0  0.01316  0.86872  0.55850  1.0000
  H   H934      1.0  0.44670  0.91232  0.69031  1.0000
  H   H935      1.0  0.47458  0.54953  0.69234  1.0000
  C   C550      1.0  0.43546  0.98438  0.60610  1.0000
  H   H936      1.0  0.10252  0.58578  0.71475  1.0000
  C   C551      1.0  0.38279  0.98326  0.64149  1.0000
  C   C552      1.0  0.11189  0.87073  0.50399  1.0000
  H   H937      1.0  0.02885  0.52405  0.69710  1.0000
  H   H938      1.0  0.41934  0.59951  0.66257  1.0000
  H   H939      1.0  0.45917  0.82633  0.67524  1.0000
  H   H940      1.0  0.02978  0.56421  0.70734  1.0000
  H   H941      1.0  0.00923  0.74405  0.65099  1.0000
  H   H942      1.0  0.18717  0.58244  0.64499  1.0000
  H   H943      1.0  0.47514  0.91762  0.71047  1.0000
  H   H944      1.0  0.06404  0.53218  0.70214  1.0000
  H   H945      1.0  0.16564  0.98192  0.61175  1.0000
  C   C553      1.0  0.06828  0.61410  0.71260  1.0000
  C   C554      1.0  0.44814  0.58514  0.67189  1.0000
  H   H946      1.0  0.10465  0.78471  0.52066  1.0000
  H   H947      1.0  0.23562  0.53228  0.64112  1.0000
  H   H948      1.0  0.44644  0.62519  0.67339  1.0000
  H   H949      1.0  0.09758  0.61647  0.73037  1.0000
  H   H950      1.0  0.44222  0.55785  0.70517  1.0000
  H   H951      1.0  0.23909  0.86022  0.73830  1.0000
  C   C555      1.0  0.01840  0.70754  0.65172  1.0000
  S   S156      1.0  0.47013  0.59534  0.63067  1.0000
  H   H952      1.0  0.02970  0.91774  0.58047  1.0000
  H   H953      1.0  0.41323  0.92904  0.60552  1.0000
  S   S157      1.0  0.22009  0.94879  0.57349  1.0000
  H   H954      1.0  0.39405  0.90119  0.61619  1.0000
  N   N43       1.0  0.38930  0.96047  0.61791  1.0000
  C   C556      1.0  0.16497  0.57026  0.64367  1.0000
  H   H955      1.0  0.36615  0.98435  0.64777  1.0000
  H   H956      1.0  0.39906  0.52342  0.73402  1.0000
  H   H957      1.0  0.41803  0.59865  0.68122  1.0000
  H   H958      1.0  0.13441  0.50629  0.64843  1.0000
  H   H959      1.0  0.15622  0.56333  0.65403  1.0000
  H   H960      1.0  0.20577  0.55263  0.64694  1.0000
  H   H961      1.0  0.37947  0.92556  0.63089  1.0000
  H   H962      1.0  0.16325  0.55554  0.62201  1.0000
  H   H963      1.0  0.21458  0.77839  0.70421  1.0000
  H   H964      1.0  0.15589  0.58432  0.64002  1.0000
  H   H965      1.0  0.03723  0.74542  0.64087  1.0000
  C   C557      1.0  0.29003  0.91402  0.73719  1.0000
  C   C558      1.0  0.15712  0.54640  0.63251  1.0000
  H   H966      1.0  0.21522  0.51294  0.62595  1.0000
  H   H967      1.0  0.20735  0.55398  0.62821  1.0000
  C   C559      1.0  0.24074  0.83465  0.71325  1.0000
  H   H968      1.0  0.04221  0.89109  0.57989  1.0000
  H   H969      1.0  0.18706  0.95467  0.61939  1.0000
  S   S158      1.0  0.48119  0.88377  0.63921  1.0000
  C   C560      1.0  0.25215  0.81676  0.73596  1.0000
  H   H970      1.0  0.22032  0.96534  0.62759  1.0000
  H   H971      1.0  0.12525  0.50867  0.61154  1.0000
  C   C561      1.0  0.47840  0.60327  0.69386  1.0000
  S   S159      1.0  0.07337  0.49378  0.63778  1.0000
  H   H972      1.0  0.09071  0.76088  0.50589  1.0000
  H   H973      1.0  0.47621  0.86385  0.71993  1.0000
  C   C562      1.0  0.39349  0.89197  0.73690  1.0000
  C   C563      1.0  0.41385  0.98641  0.61581  1.0000
  C   C564      1.0  0.99233  0.76067  0.49507  1.0000
  C   C565      1.0  0.20572  0.97290  0.62279  1.0000
  H   H974      1.0  0.48486  0.63886  0.70756  1.0000
  S   S160      1.0  0.99956  0.75002  0.51189  1.0000
  H   H975      1.0  0.99797  0.84065  0.57904  1.0000
  H   H976      1.0  0.20206  0.85317  0.71861  1.0000
  H   H977      1.0  0.48373  0.94353  0.68228  1.0000
  C   C566      1.0  0.99489  0.66459  0.66353  1.0000
  H   H978      1.0  0.02665  0.82842  0.49250  1.0000
  H   H979      1.0  0.01291  0.72957  0.67720  1.0000
  H   H980      1.0  0.41260  0.90356  0.73164  1.0000
  C   C567      1.0  0.17545  0.99088  0.60181  1.0000
  H   H981      1.0  0.99284  0.67575  0.69248  1.0000
  H   H982      1.0  0.20078  0.98487  0.63117  1.0000
  C   C568      1.0  0.31797  0.92109  0.73877  1.0000
  C   C569      1.0  0.21828  0.98966  0.60982  1.0000
  C   C570      1.0  0.04679  0.82737  0.49272  1.0000
  H   H983      1.0  0.48475  0.93463  0.65324  1.0000
  H   H984      1.0  0.17865  0.82834  0.72990  1.0000
  H   H985      1.0  0.19669  0.86278  0.73623  1.0000
  H   H986      1.0  0.13649  0.99213  0.59617  1.0000
  C   C571      1.0  0.04707  0.66843  0.73918  1.0000
  C   C572      1.0  0.13155  0.49376  0.61674  1.0000
  H   H987      1.0  0.40835  0.49729  0.73969  1.0000
  C   C573      1.0  0.39134  0.50385  0.73952  1.0000
  C   C574      1.0  0.98926  0.85426  0.58389  1.0000
  C   C575      1.0  0.20665  0.98946  0.96359  1.0000
  C   C576      1.0  0.13718  0.92742  0.94955  1.0000
  H   H988      1.0  0.17173  0.91919  0.95653  1.0000
  Fe  Fe78      1.0  0.00886  0.80987  0.91562  1.0000
  S   S161      1.0  0.05168  0.84142  0.92114  1.0000
  H   H989      1.0  0.03474  0.81571  0.85338  1.0000
  S   S162      1.0  0.47763  0.57668  0.79723  1.0000
  S   S163      1.0  0.18805  0.95433  0.90730  1.0000
  S   S164      1.0  0.11813  0.95428  0.89380  1.0000
  Fe  Fe79      1.0  0.28923  0.91135  0.80506  1.0000
  S   S165      1.0  0.28648  0.86949  0.80974  1.0000
  S   S166      1.0  0.26623  0.93294  0.81707  1.0000
  Fe  Fe80      1.0  0.31480  0.91015  0.77592  1.0000
  S   S167      1.0  0.31284  0.86838  0.77886  1.0000
  S   S168      1.0  0.33530  0.92916  0.75580  1.0000
  Fe  Fe81      1.0  0.27142  0.85833  0.78682  1.0000
  S   S169      1.0  0.23466  0.82232  0.77731  1.0000
  Fe  Fe82      1.0  0.32876  0.88354  0.80133  1.0000
  S   S170      1.0  0.36076  0.86929  0.80995  1.0000
  S   S171      1.0  0.27221  0.89922  0.78227  1.0000
  S   S172      1.0  0.33278  0.92634  0.79818  1.0000
  Fe  Fe83      1.0  0.07972  0.68461  0.78381  1.0000
  S   S173      1.0  0.11041  0.67389  0.79617  1.0000
  S   S174      1.0  0.08935  0.69022  0.76022  1.0000
  Fe  Fe84      1.0  0.05452  0.69391  0.81170  1.0000
  S   S175      1.0  0.08377  0.68401  0.82536  1.0000
  S   S176      1.0  0.02261  0.70710  0.82106  1.0000
  Fe  Fe85      1.0  0.11554  0.70955  0.81080  1.0000
  S   S177      1.0  0.15624  0.74068  0.81986  1.0000
  Fe  Fe86      1.0  0.07581  0.64900  0.80937  1.0000
  S   S178      1.0  0.07056  0.60921  0.81971  1.0000
  S   S179      1.0  0.08689  0.72175  0.79802  1.0000
  S   S180      1.0  0.04436  0.65735  0.79622  1.0000
  C   C577      1.0  0.40222  0.96094  0.76915  1.0000
  C   C578      1.0  0.44234  0.55760  0.79958  1.0000
  C   C579      1.0  0.42418  0.56992  0.80127  1.0000
  C   C580      1.0  0.39637  0.55384  0.80303  1.0000
  C   C581      1.0  0.38621  0.52525  0.80284  1.0000
  C   C582      1.0  0.40433  0.51291  0.80107  1.0000
  C   C583      1.0  0.43220  0.52901  0.79957  1.0000
  H   H990      1.0  0.43161  0.59186  0.80136  1.0000
  H   H991      1.0  0.38264  0.56367  0.80454  1.0000
  H   H992      1.0  0.42135  0.89762  0.77856  1.0000
  S   S181      1.0  0.99630  0.72716  0.88546  1.0000
  H   H993      1.0  0.34104  0.49690  0.74827  1.0000
  H   H994      1.0  0.16214  0.55254  0.79234  1.0000
  C   C584      1.0  0.06253  0.57617  0.81190  1.0000
  C   C585      1.0  0.06047  0.55504  0.82088  1.0000
  C   C586      1.0  0.05433  0.52850  0.81522  1.0000
  C   C587      1.0  0.05013  0.52273  0.80047  1.0000
  C   C588      1.0  0.05186  0.54379  0.79150  1.0000
  C   C589      1.0  0.05823  0.57042  0.79715  1.0000
  H   H995      1.0  0.06353  0.55921  0.83231  1.0000
  H   H996      1.0  0.05222  0.51233  0.82227  1.0000
  H   H997      1.0  0.04818  0.53946  0.78010  1.0000
  H   H998      1.0  0.05962  0.58641  0.79011  1.0000
  C   C590      1.0  0.24992  0.95306  0.86335  1.0000
  H   H999      1.0  0.20500  0.88841  0.80389  1.0000
  H   H1000     1.0  0.14027  0.89367  0.96128  1.0000
  C   C591      1.0  0.24123  0.95123  0.83755  1.0000
  H   H1001     1.0  0.09884  0.51557  0.81277  1.0000
  C   C592      1.0  0.21372  0.79847  0.78896  1.0000
  C   C593      1.0  0.22282  0.79716  0.80294  1.0000
  C   C594      1.0  0.20515  0.77908  0.81228  1.0000
  C   C595      1.0  0.17838  0.76200  0.80765  1.0000
  C   C596      1.0  0.16950  0.76285  0.79356  1.0000
  C   C597      1.0  0.18713  0.78102  0.78425  1.0000
  H   H1002     1.0  0.24346  0.81007  0.80656  1.0000
  H   H1003     1.0  0.21227  0.77824  0.82310  1.0000
  H   H1004     1.0  0.14897  0.74965  0.78985  1.0000
  H   H1005     1.0  0.17998  0.78176  0.77342  1.0000
  C   C598      1.0  0.39652  0.88545  0.80828  1.0000
  C   C599      1.0  0.41019  0.91374  0.80817  1.0000
  C   C600      1.0  0.43855  0.92591  0.80683  1.0000
  C   C601      1.0  0.45366  0.91001  0.80556  1.0000
  C   C602      1.0  0.44007  0.88169  0.80587  1.0000
  C   C603      1.0  0.41169  0.86954  0.80734  1.0000
  H   H1006     1.0  0.39890  0.92626  0.80923  1.0000
  H   H1007     1.0  0.44887  0.94783  0.80676  1.0000
  H   H1008     1.0  0.45139  0.86917  0.80499  1.0000
  H   H1009     1.0  0.40138  0.84764  0.80765  1.0000
  H   H1010     1.0  0.48027  0.73064  0.77550  1.0000
  H   H1011     1.0  0.22162  0.96664  0.85319  1.0000
  C   C604      1.0  0.26852  0.94128  0.86089  1.0000
  C   C605      1.0  0.27351  0.93457  0.84689  1.0000
  C   C606      1.0  0.26012  0.93981  0.83508  1.0000
  H   H1012     1.0  0.44606  0.51925  0.79837  1.0000
  H   H1013     1.0  0.27948  0.93765  0.86989  1.0000
  H   H1014     1.0  0.28809  0.92583  0.84524  1.0000
  C   C607      1.0  0.23600  0.95764  0.85155  1.0000
  H   H1015     1.0  0.15501  0.92667  0.97101  1.0000
  H   H1016     1.0  0.47244  0.70173  0.76357  1.0000
  C   C608      1.0  0.06933  0.87186  0.91258  1.0000
  C   C609      1.0  0.09763  0.88459  0.91493  1.0000
  C   C610      1.0  0.11268  0.90964  0.90910  1.0000
  C   C611      1.0  0.09963  0.92223  0.90077  1.0000
  C   C612      1.0  0.07134  0.90918  0.89809  1.0000
  C   C613      1.0  0.05618  0.88401  0.90398  1.0000
  H   H1017     1.0  0.10803  0.87504  0.92133  1.0000
  H   H1018     1.0  0.13436  0.91923  0.91114  1.0000
  H   H1019     1.0  0.06110  0.91878  0.89161  1.0000
  H   H1020     1.0  0.03434  0.87435  0.90210  1.0000
  C   C614      1.0  0.01787  0.71540  0.83907  1.0000
  C   C615      1.0  0.03133  0.70987  0.85076  1.0000
  C   C616      1.0  0.02455  0.71377  0.86482  1.0000
  H   H1021     1.0  0.13567  0.91665  0.93901  1.0000
  C   C617      1.0  0.11045  0.93918  0.96785  1.0000
  H   H1022     1.0  0.12328  0.50333  0.81688  1.0000
  H   H1023     1.0  0.04649  0.70194  0.84898  1.0000
  H   H1024     1.0  0.03444  0.70849  0.87373  1.0000
  N   N44       1.0  0.10964  0.92578  0.95338  1.0000
  C   C618      1.0  0.03105  0.63449  0.85181  1.0000
  H   H1025     1.0  0.08861  0.92286  0.93282  1.0000
  S   S182      1.0  0.24637  0.96322  0.88125  1.0000
  N   N45       1.0  0.13996  0.54604  0.81177  1.0000
  H   H1026     1.0  0.04945  0.86659  0.95558  1.0000
  C   C619      1.0  0.11901  0.52175  0.81844  1.0000
  C   C620      1.0  0.39883  0.93191  0.77275  1.0000
  H   H1027     1.0  0.44208  0.52913  0.75224  1.0000
  C   C621      1.0  0.38845  0.90922  0.74897  1.0000
  H   H1028     1.0  0.44946  0.55238  0.76723  1.0000
  H   H1029     1.0  0.18359  0.52730  0.81212  1.0000
  H   H1030     1.0  0.43565  0.51728  0.77031  1.0000
  H   H1031     1.0  0.42109  0.97649  0.77447  1.0000
  H   H1032     1.0  0.40164  0.53562  0.77294  1.0000
  H   H1033     1.0  0.01618  0.82780  0.86491  1.0000
  C   C622      1.0  0.43470  0.53221  0.76272  1.0000
  H   H1034     1.0  0.01937  0.61653  0.85792  1.0000
  H   H1035     1.0  0.13252  0.53822  0.84090  1.0000
  H   H1036     1.0  0.36370  0.54308  0.77155  1.0000
  H   H1037     1.0  0.09010  0.93849  0.97011  1.0000
  C   C623      1.0  0.09110  0.89594  0.95393  1.0000
  H   H1038     1.0  0.34663  0.50740  0.77523  1.0000
  H   H1039     1.0  0.38481  0.85320  0.77713  1.0000
  H   H1040     1.0  0.09293  0.88428  0.94431  1.0000
  H   H1041     1.0  0.14924  0.97478  0.96478  1.0000
  H   H1042     1.0  0.19908  0.54559  0.82848  1.0000
  C   C624      1.0  0.07487  0.68333  0.74246  1.0000
  S   S183      1.0  0.48365  0.70662  0.80700  1.0000
  H   H1043     1.0  0.23068  0.95537  0.82853  1.0000
  H   H1044     1.0  0.09696  0.88671  0.96319  1.0000
  H   H1045     1.0  0.15520  0.60068  0.82648  1.0000
  C   C625      1.0  0.14384  0.53692  0.79692  1.0000
  H   H1046     1.0  0.04221  0.65182  0.85959  1.0000
  H   H1047     1.0  0.36721  0.89805  0.75217  1.0000
  H   H1048     1.0  0.13683  0.97366  0.98181  1.0000
  C   C626      1.0  0.38138  0.86964  0.77168  1.0000
  H   H1049     1.0  0.16676  0.56567  0.83053  1.0000
  H   H1050     1.0  0.12368  0.57631  0.83300  1.0000
  H   H1051     1.0  0.32952  0.52367  0.76507  1.0000
  H   H1052     1.0  0.15171  0.94855  0.94802  1.0000
  H   H1053     1.0  0.38539  0.96490  0.77376  1.0000
  H   H1054     1.0  0.05364  0.81668  0.98621  1.0000
  H   H1055     1.0  0.02361  0.62122  0.81878  1.0000
  S   S184      1.0  0.48835  0.64885  0.78248  1.0000
  C   C627      1.0  0.43620  0.93457  0.75725  1.0000
  C   C628      1.0  0.40630  0.53253  0.76174  1.0000
  H   H1056     1.0  0.02626  0.65805  0.83468  1.0000
  C   C629      1.0  0.99869  0.72635  0.84174  1.0000
  N   N46       1.0  0.19656  0.85058  0.82601  1.0000
  C   C630      1.0  0.22624  0.85626  0.82845  1.0000
  C   C631      1.0  0.18981  0.84562  0.81015  1.0000
  C   C632      1.0  0.18016  0.82530  0.83375  1.0000
  C   C633      1.0  0.19258  0.87499  0.83190  1.0000
  C   C634      1.0  0.23680  0.85827  0.84415  1.0000
  C   C635      1.0  0.20637  0.86902  0.80075  1.0000
  C   C636      1.0  0.15051  0.80861  0.82816  1.0000
  H   H1057     1.0  0.23090  0.84029  0.82282  1.0000
  H   H1058     1.0  0.23939  0.87585  0.82393  1.0000
  H   H1059     1.0  0.16815  0.84065  0.80739  1.0000
  H   H1060     1.0  0.19265  0.82729  0.80629  1.0000
  H   H1061     1.0  0.18985  0.81053  0.83326  1.0000
  H   H1062     1.0  0.17974  0.83036  0.84531  1.0000
  H   H1063     1.0  0.19702  0.87765  0.84365  1.0000
  H   H1064     1.0  0.22633  0.83912  0.84965  1.0000
  H   H1065     1.0  0.25867  0.86212  0.84429  1.0000
  H   H1066     1.0  0.23558  0.87560  0.85031  1.0000
  H   H1067     1.0  0.19835  0.86358  0.78949  1.0000
  H   H1068     1.0  0.22791  0.87198  0.80081  1.0000
  H   H1069     1.0  0.13838  0.82085  0.82743  1.0000
  H   H1070     1.0  0.14049  0.79216  0.83557  1.0000
  H   H1071     1.0  0.14969  0.79820  0.81762  1.0000
  H   H1072     1.0  0.14757  0.51804  0.79715  1.0000
  C   C637      1.0  0.13356  0.58743  0.82366  1.0000
  H   H1073     1.0  0.05174  0.89446  0.94530  1.0000
  H   H1074     1.0  0.12414  0.52196  0.77581  1.0000
  H   H1075     1.0  0.01621  0.59588  0.83150  1.0000
  S   S185      1.0  0.00655  0.76817  0.91953  1.0000
  H   H1076     1.0  0.46640  0.75049  0.80931  1.0000
  H   H1077     1.0  0.47792  0.95935  0.76485  1.0000
  H   H1078     1.0  0.10626  0.97123  0.92778  1.0000
  H   H1079     1.0  0.10862  0.56024  0.80661  1.0000
  H   H1080     1.0  0.40848  0.55143  0.75636  1.0000
  H   H1081     1.0  0.16606  0.51867  0.82861  1.0000
  H   H1082     1.0  0.45405  0.95779  0.77781  1.0000
  H   H1083     1.0  0.29383  0.83671  0.74487  1.0000
  C   C638      1.0  0.09808  0.93788  0.94196  1.0000
  Fe  Fe87      1.0  0.21978  0.98089  0.89301  1.0000
  H   H1084     1.0  0.37706  0.92010  0.77487  1.0000
  C   C639      1.0  0.00515  0.72442  0.86748  1.0000
  C   C640      1.0  0.40905  0.89201  0.76829  1.0000
  H   H1085     1.0  0.12359  0.60135  0.82118  1.0000
  H   H1086     1.0  0.04668  0.63058  0.84587  1.0000
  H   H1087     1.0  0.03338  0.66098  0.74772  1.0000
  H   H1088     1.0  0.46264  0.92912  0.77428  1.0000
  C   C641      1.0  0.11998  0.53084  0.78581  1.0000
  C   C642      1.0  0.00660  0.60579  0.82425  1.0000
  H   H1089     1.0  0.11749  0.54957  0.78297  1.0000
  S   S186      1.0  0.35111  0.50601  0.80556  1.0000
  H   H1090     1.0  0.00209  0.57266  0.80914  1.0000
  N   N47       1.0  0.38359  0.50807  0.75441  1.0000
  N   N48       1.0  0.07249  0.81619  0.87745  1.0000
  C   C643      1.0  0.09584  0.83430  0.88746  1.0000
  C   C644      1.0  0.05661  0.79080  0.88512  1.0000
  C   C645      1.0  0.05445  0.83100  0.87466  1.0000
  C   C646      1.0  0.08376  0.81054  0.86378  1.0000
  C   C647      1.0  0.11338  0.86278  0.88223  1.0000
  C   C648      1.0  0.07315  0.77555  0.89113  1.0000
  C   C649      1.0  0.02911  0.81617  0.86461  1.0000
  C   C650      1.0  0.06695  0.78342  0.85530  1.0000
  H   H1091     1.0  0.08835  0.83713  0.89804  1.0000
  H   H1092     1.0  0.11022  0.82466  0.88967  1.0000
  H   H1093     1.0  0.03986  0.77602  0.87815  1.0000
  H   H1094     1.0  0.04639  0.79560  0.89429  1.0000
  H   H1095     1.0  0.04744  0.83620  0.88494  1.0000
  H   H1096     1.0  0.06569  0.85069  0.86972  1.0000
  H   H1097     1.0  0.08711  0.82718  0.85633  1.0000
  H   H1098     1.0  0.10421  0.81050  0.86585  1.0000
  H   H1099     1.0  0.10254  0.87640  0.88261  1.0000
  H   H1100     1.0  0.13174  0.87259  0.88955  1.0000
  H   H1101     1.0  0.12039  0.86184  0.87135  1.0000
  H   H1102     1.0  0.08418  0.78558  0.90136  1.0000
  H   H1103     1.0  0.05900  0.75456  0.89352  1.0000
  H   H1104     1.0  0.08780  0.77401  0.88354  1.0000
  H   H1105     1.0  0.99337  0.64510  0.81508  1.0000
  H   H1106     1.0  0.05615  0.89852  0.96465  1.0000
  H   H1107     1.0  0.37417  0.50590  0.86767  1.0000
  H   H1108     1.0  0.06750  0.76582  0.86088  1.0000
  H   H1109     1.0  0.07598  0.78339  0.84484  1.0000
  H   H1110     1.0  0.04555  0.77993  0.85300  1.0000
  Fe  Fe88      1.0  0.16319  0.97654  0.89984  1.0000
  H   H1111     1.0  0.20770  0.89429  0.82794  1.0000
  C   C651      1.0  0.11432  0.52460  0.83443  1.0000
  C   C652      1.0  0.20768  0.97630  0.97619  1.0000
  H   H1112     1.0  0.15077  0.86405  0.83824  1.0000
  C   C653      1.0  0.16414  0.87492  0.82969  1.0000
  H   H1113     1.0  0.15413  0.86639  0.81912  1.0000
  N   N49       1.0  0.40817  0.91694  0.76179  1.0000
  H   H1114     1.0  0.10050  0.51589  0.78945  1.0000
  H   H1115     1.0  0.16618  0.89633  0.83003  1.0000
  H   H1116     1.0  0.36823  0.86015  0.76195  1.0000
  C   C654      1.0  0.06049  0.88900  0.95497  1.0000
  H   H1117     1.0  0.18235  0.57376  0.81419  1.0000
  C   C655      1.0  0.35896  0.51468  0.75305  1.0000
  Fe  Fe89      1.0  0.20493  0.98796  0.92446  1.0000
  C   C656      1.0  0.16724  0.55665  0.81983  1.0000
  C   C657      1.0  0.01265  0.64238  0.84164  1.0000
  C   C658      1.0  0.17936  0.53558  0.82227  1.0000
  H   H1118     1.0  0.11457  0.92769  0.97662  1.0000
  C   C659      1.0  0.13039  0.56865  0.81034  1.0000
  N   N50       1.0  0.99160  0.61929  0.83259  1.0000
  C   C660      1.0  0.20499  0.98712  0.98966  1.0000
  H   H1119     1.0  0.41023  0.93405  0.78307  1.0000
  H   H1120     1.0  0.21078  0.95769  0.97554  1.0000
  C   C661      1.0  0.45862  0.94568  0.76936  1.0000
  H   H1121     1.0  0.37047  0.87745  0.77912  1.0000
  H   H1122     1.0  0.01627  0.79538  0.86778  1.0000
  C   C662      1.0  0.15142  0.91590  0.96037  1.0000
  H   H1123     1.0  0.41953  0.88253  0.76141  1.0000
  H   H1124     1.0  0.00350  0.65343  0.84827  1.0000
  H   H1125     1.0  0.40143  0.96434  0.75762  1.0000
  H   H1126     1.0  0.10833  0.50440  0.83913  1.0000
  H   H1127     1.0  0.12037  0.98299  0.96712  1.0000
  H   H1128     1.0  0.13216  0.95892  0.92839  1.0000
  H   H1129     1.0  0.14159  0.58257  0.80198  1.0000
  S   S187      1.0  0.20960  0.97455  0.94691  1.0000
  H   H1130     1.0  0.27850  0.91291  0.74653  1.0000
  H   H1131     1.0  0.09766  0.53136  0.83588  1.0000
  H   H1132     1.0  0.44335  0.92305  0.74960  1.0000
  C   C663      1.0  0.13020  0.96932  0.97031  1.0000
  H   H1133     1.0  0.27306  0.85371  0.74993  1.0000
  C   C664      1.0  0.34949  0.52268  0.76712  1.0000
  H   H1134     1.0  0.21590  0.83159  0.74678  1.0000
  H   H1135     1.0  0.08136  0.94271  0.94608  1.0000
  H   H1136     1.0  0.36256  0.53155  0.74570  1.0000
  H   H1137     1.0  0.43611  0.95216  0.75138  1.0000
  H   H1138     1.0  0.12961  0.98040  0.94297  1.0000
  H   H1139     1.0  0.38842  0.92761  0.74398  1.0000
  C   C665      1.0  0.98964  0.58352  0.81284  1.0000
  C   C666      1.0  0.11795  0.96363  0.93511  1.0000
  H   H1140     1.0  0.38659  0.50739  0.83145  1.0000
  H   H1141     1.0  0.24339  0.80616  0.74582  1.0000
  H   H1142     1.0  0.39539  0.49527  0.84748  1.0000
  C   C667      1.0  0.99265  0.73122  0.85583  1.0000
  C   C668      1.0  0.27748  0.84262  0.74087  1.0000
  H   H1143     1.0  0.39344  0.87263  0.74062  1.0000
  C   C669      1.0  0.48836  0.75928  0.80931  1.0000
  Fe  Fe90      1.0  0.94892  0.24219  0.02866  1.0000
  S   S188      1.0  0.97354  0.27548  0.04499  1.0000
  H   H1144     1.0  0.86264  0.08939  0.01039  1.0000
  Fe  Fe91      1.0  0.94327  0.25285  0.06113  1.0000
  S   S189      1.0  0.96667  0.22811  0.06772  1.0000
  S   S190      1.0  0.92260  0.27530  0.07447  1.0000
  Fe  Fe92      1.0  0.94213  0.19840  0.04975  1.0000
  S   S191      1.0  0.92386  0.15237  0.04910  1.0000
  S   S192      1.0  0.91699  0.22144  0.04427  1.0000
  Fe  Fe93      1.0  0.74992  0.04662  0.02987  1.0000
  S   S193      1.0  0.78293  0.03537  0.03870  1.0000
  S   S194      1.0  0.76131  0.06714  0.00868  1.0000
  Fe  Fe94      1.0  0.71717  0.02834  0.05694  1.0000
  S   S195      1.0  0.74754  0.01423  0.06683  1.0000
  S   S196      1.0  0.67859  0.02237  0.06857  1.0000
  Fe  Fe95      1.0  0.77823  0.05388  0.05954  1.0000
  S   S197      1.0  0.81015  0.08442  0.07481  1.0000
  C   C670      1.0  0.50587  0.48760  0.14998  1.0000
  S   S198      1.0  0.74789  0.06850  0.05042  1.0000
  H   H1145     1.0  0.83299  0.11419  0.03989  1.0000
  Fe  Fe96      1.0  0.82246  0.31557  0.15316  1.0000
  S   S199      1.0  0.84940  0.29633  0.16148  1.0000
  S   S200      1.0  0.77967  0.29053  0.14399  1.0000
  Fe  Fe97      1.0  0.86438  0.37341  0.16153  1.0000
  S   S201      1.0  0.89447  0.35739  0.17025  1.0000
  S   S202      1.0  0.87080  0.41722  0.16788  1.0000
  Fe  Fe98      1.0  0.88244  0.32901  0.15029  1.0000
  S   S203      1.0  0.91144  0.31428  0.13863  1.0000
  Fe  Fe99      1.0  0.85882  0.32595  0.18049  1.0000
  S   S204      1.0  0.84999  0.30914  0.20275  1.0000
  S   S205      1.0  0.85475  0.34721  0.14095  1.0000
  S   S206      1.0  0.82954  0.34296  0.17265  1.0000
  Fe  Fe100     1.0  0.64085  0.09022  0.14383  1.0000
  S   S207      1.0  0.64804  0.13386  0.14081  1.0000
  S   S208      1.0  0.63774  0.05928  0.12564  1.0000
  Fe  Fe101     1.0  0.63260  0.09559  0.17639  1.0000
  S   S209      1.0  0.63946  0.13941  0.17530  1.0000
  S   S210      1.0  0.62312  0.07272  0.19700  1.0000
  Fe  Fe102     1.0  0.61270  0.12588  0.15503  1.0000
  S   S211      1.0  0.58047  0.14209  0.14969  1.0000
  Fe  Fe103     1.0  0.67370  0.14289  0.16134  1.0000
  S   S212      1.0  0.71736  0.17235  0.16654  1.0000
  S   S213      1.0  0.60388  0.08173  0.15682  1.0000
  S   S214      1.0  0.66840  0.09954  0.16361  1.0000
  C   C671      1.0  0.76200  0.25771  0.15029  1.0000
  C   C672      1.0  0.77528  0.24607  0.15912  1.0000
  C   C673      1.0  0.76145  0.21951  0.16351  1.0000
  C   C674      1.0  0.73393  0.20458  0.15952  1.0000
  C   C675      1.0  0.72046  0.21607  0.15067  1.0000
  C   C676      1.0  0.73459  0.24255  0.14597  1.0000
  H   H1146     1.0  0.79619  0.25753  0.16265  1.0000
  H   H1147     1.0  0.77201  0.21065  0.17028  1.0000
  H   H1148     1.0  0.69920  0.20468  0.14755  1.0000
  H   H1149     1.0  0.72419  0.25138  0.13907  1.0000
  C   C677      1.0  0.66900  0.03547  0.08420  1.0000
  C   C678      1.0  0.64427  0.01892  0.08979  1.0000
  C   C679      1.0  0.63535  0.02699  0.10226  1.0000
  C   C680      1.0  0.65067  0.05206  0.10947  1.0000
  C   C681      1.0  0.67528  0.06933  0.10379  1.0000
  C   C682      1.0  0.68448  0.06099  0.09119  1.0000
  H   H1150     1.0  0.78087  0.28907  0.18025  1.0000
  H   H1151     1.0  0.61636  0.01345  0.10642  1.0000
  H   H1152     1.0  0.68731  0.08884  0.10917  1.0000
  H   H1153     1.0  0.70338  0.07425  0.08687  1.0000
  C   C683      1.0  0.89272  0.13393  0.05680  1.0000
  C   C684      1.0  0.87980  0.10572  0.05389  1.0000
  C   C685      1.0  0.85433  0.09045  0.05924  1.0000
  C   C686      1.0  0.84197  0.10324  0.06789  1.0000
  C   C687      1.0  0.85516  0.13137  0.07109  1.0000
  C   C688      1.0  0.88030  0.14679  0.06537  1.0000
  H   H1154     1.0  0.88942  0.09567  0.04733  1.0000
  H   H1155     1.0  0.84440  0.06875  0.05684  1.0000
  H   H1156     1.0  0.84572  0.14132  0.07784  1.0000
  H   H1157     1.0  0.89019  0.16853  0.06769  1.0000
  C   C689      1.0  0.91981  0.28576  0.09245  1.0000
  C   C690      1.0  0.93105  0.27809  0.10430  1.0000
  C   C691      1.0  0.92846  0.28719  0.11826  1.0000
  C   C692      1.0  0.91412  0.30361  0.12068  1.0000
  C   C693      1.0  0.90273  0.31114  0.10883  1.0000
  C   C694      1.0  0.90562  0.30233  0.09486  1.0000
  H   H1158     1.0  0.87089  0.25090  0.11349  1.0000
  H   H1159     1.0  0.89207  0.32413  0.11041  1.0000
  H   H1160     1.0  0.89684  0.30849  0.08582  1.0000
  C   C695      1.0  0.85009  0.31311  0.23201  1.0000
  C   C696      1.0  0.86499  0.32337  0.21992  1.0000
  C   C697      1.0  0.89159  0.34323  0.22190  1.0000
  H   H1161     1.0  0.82960  0.29766  0.23064  1.0000
  H   H1162     1.0  0.90339  0.35109  0.21271  1.0000
  H   H1163     1.0  0.70582  0.03214  0.99828  1.0000
  C   C698      1.0  0.62079  0.07364  0.22633  1.0000
  C   C699      1.0  0.62997  0.08921  0.21429  1.0000
  C   C700      1.0  0.64523  0.11726  0.21635  1.0000
  H   H1164     1.0  0.77460  0.18875  0.11528  1.0000
  H   H1165     1.0  0.60899  0.05193  0.22485  1.0000
  H   H1166     1.0  0.65249  0.12947  0.20722  1.0000
  H   H1167     1.0  0.92413  0.36688  0.23726  1.0000
  H   H1168     1.0  0.74972  0.99722  0.00991  1.0000
  C   C701      1.0  0.52836  0.13954  0.14881  1.0000
  C   C702      1.0  0.54459  0.12494  0.15091  1.0000
  C   C703      1.0  0.53180  0.09703  0.15303  1.0000
  H   H1169     1.0  0.56929  0.15534  0.11609  1.0000
  C   C704      1.0  0.85751  0.48481  0.16050  1.0000
  H   H1170     1.0  0.53797  0.16109  0.14709  1.0000
  H   H1171     1.0  0.54392  0.08549  0.15476  1.0000
  H   H1172     1.0  0.80269  0.46819  0.15002  1.0000
  H   H1173     1.0  0.79580  0.12759  0.00973  1.0000
  C   C705      1.0  0.85877  0.46195  0.16685  1.0000
  C   C706      1.0  0.86411  0.44240  0.15875  1.0000
  C   C707      1.0  0.86715  0.44545  0.14408  1.0000
  C   C708      1.0  0.86604  0.46843  0.13774  1.0000
  H   H1174     1.0  0.85635  0.45973  0.17820  1.0000
  H   H1175     1.0  0.87146  0.43069  0.13773  1.0000
  C   C709      1.0  0.85385  0.23734  0.13964  1.0000
  C   C710      1.0  0.81584  0.14493  0.01229  1.0000
  H   H1176     1.0  0.81942  0.09706  0.00803  1.0000
  H   H1177     1.0  0.77095  0.01301  0.11188  1.0000
  H   H1178     1.0  0.88333  0.39510  0.22543  1.0000
  C   C711      1.0  0.82757  0.28382  0.10727  1.0000
  C   C712      1.0  0.98604  0.33605  0.07472  1.0000
  H   H1179     1.0  0.84836  0.12183  0.00126  1.0000
  H   H1180     1.0  0.69688  0.48277  0.14387  1.0000
  H   H1181     1.0  0.85863  0.37910  0.23793  1.0000
  S   S215      1.0  0.97248  0.21704  0.03307  1.0000
  H   H1182     1.0  0.78282  0.23769  0.10839  1.0000
  H   H1183     1.0  0.71037  0.01644  0.09344  1.0000
  H   H1184     1.0  0.78266  0.24620  0.12670  1.0000
  H   H1185     1.0  0.49353  0.06227  0.15428  1.0000
  H   H1186     1.0  0.72427  0.25745  0.21611  1.0000
  S   S216      1.0  0.71611  0.00740  0.03534  1.0000
  C   C713      1.0  0.55057  0.48519  0.18257  1.0000
  N   N51       1.0  0.81857  0.24035  0.12093  1.0000
  C   C714      1.0  0.73530  0.21951  0.20062  1.0000
  H   H1187     1.0  0.56338  0.48805  0.13612  1.0000
  H   H1188     1.0  0.56314  0.47385  0.18535  1.0000
  H   H1189     1.0  0.82007  0.20404  0.11117  1.0000
  H   H1190     1.0  0.66372  0.15112  0.23172  1.0000
  H   H1191     1.0  0.76420  0.29263  0.23258  1.0000
  H   H1192     1.0  0.72354  0.26457  0.19192  1.0000
  N   N52       1.0  0.57440  0.09317  0.10892  1.0000
  C   C715      1.0  0.58321  0.12354  0.11117  1.0000
  C   C716      1.0  0.59984  0.08813  0.10795  1.0000
  C   C717      1.0  0.55926  0.07996  0.12182  1.0000
  C   C718      1.0  0.55623  0.08387  0.09550  1.0000
  C   C719      1.0  0.56018  0.13335  0.11274  1.0000
  C   C720      1.0  0.61731  0.10000  0.09514  1.0000
  C   C721      1.0  0.55718  0.05124  0.12494  1.0000
  C   C722      1.0  0.54775  0.05416  0.08991  1.0000
  H   H1193     1.0  0.59729  0.13145  0.12084  1.0000
  H   H1194     1.0  0.59484  0.13461  0.10213  1.0000
  H   H1195     1.0  0.59548  0.06617  0.10749  1.0000
  H   H1196     1.0  0.61305  0.09640  0.11785  1.0000
  H   H1197     1.0  0.56905  0.09264  0.13173  1.0000
  H   H1198     1.0  0.53811  0.07865  0.12118  1.0000
  H   H1199     1.0  0.53687  0.08608  0.09709  1.0000
  H   H1200     1.0  0.56514  0.09742  0.08661  1.0000
  C   C723      1.0  0.50316  0.08390  0.15277  1.0000
  H   H1201     1.0  0.85915  0.24855  0.09508  1.0000
  C   C724      1.0  0.74282  0.26258  0.18972  1.0000
  H   H1202     1.0  0.62737  0.12253  0.09604  1.0000
  H   H1203     1.0  0.63391  0.09280  0.09506  1.0000
  H   H1204     1.0  0.60557  0.09296  0.08479  1.0000
  H   H1205     1.0  0.57720  0.05171  0.12856  1.0000
  H   H1206     1.0  0.54856  0.03642  0.11580  1.0000
  H   H1207     1.0  0.54362  0.04349  0.13392  1.0000
  H   H1208     1.0  0.98247  0.24008  0.99956  1.0000
  H   H1209     1.0  0.56331  0.04607  0.09185  1.0000
  H   H1210     1.0  0.54454  0.05298  0.07810  1.0000
  C   C725      1.0  0.95033  0.24935  0.99039  1.0000
  C   C726      1.0  0.74122  0.05305  0.11303  1.0000
  H   H1211     1.0  0.81317  0.20872  0.13584  1.0000
  H   H1212     1.0  0.75311  0.29811  0.17692  1.0000
  H   H1213     1.0  0.70175  0.09064  0.21551  1.0000
  C   C727      1.0  0.76316  0.29061  0.18524  1.0000
  H   H1214     1.0  0.81157  0.16013  0.01887  1.0000
  H   H1215     1.0  0.56732  0.48964  0.20923  1.0000
  H   H1216     1.0  0.82686  0.28054  0.13005  1.0000
  C   C728      1.0  0.48909  0.45950  0.14829  1.0000
  H   H1217     1.0  0.74308  0.11378  0.23184  1.0000
  H   H1218     1.0  0.74949  0.45858  0.13336  1.0000
  C   C729      1.0  0.82407  0.23114  0.13527  1.0000
  H   H1219     1.0  0.82790  0.15780  0.04741  1.0000
  H   H1220     1.0  0.69805  0.21591  0.18833  1.0000
  H   H1221     1.0  0.77720  0.08232  0.10387  1.0000
  C   C730      1.0  0.72348  0.10058  0.23638  1.0000
  H   H1222     1.0  0.78408  0.29827  0.21767  1.0000
  H   H1223     1.0  0.72249  0.07954  0.23565  1.0000
  H   H1224     1.0  0.74741  0.24757  0.22502  1.0000
  C   C731      1.0  0.85709  0.10130  0.01858  1.0000
  H   H1225     1.0  0.73812  0.24908  0.17987  1.0000
  N   N53       1.0  0.76451  0.49080  0.14987  1.0000
  C   C732      1.0  0.65157  0.12947  0.23027  1.0000
  S   S217      1.0  0.93347  0.24782  0.00649  1.0000
  C   C733      1.0  0.83920  0.11406  0.01142  1.0000
  N   N54       1.0  0.83456  0.13530  0.02047  1.0000
  C   C734      1.0  0.76274  0.29033  0.22072  1.0000
  H   H1226     1.0  0.63197  0.99935  0.08451  1.0000
  C   C735      1.0  0.74648  0.05326  0.99151  1.0000
  H   H1227     1.0  0.68008  0.08793  0.22980  1.0000
  C   C736      1.0  0.79287  0.24313  0.21302  1.0000
  C   C737      1.0  0.52073  0.46474  0.18350  1.0000
  C   C738      1.0  0.78112  0.25496  0.20113  1.0000
  C   C739      1.0  0.73909  0.01345  0.12676  1.0000
  H   H1228     1.0  0.54853  0.13122  0.10246  1.0000
  H   H1229     1.0  0.98096  0.29516  0.07697  1.0000
  H   H1230     1.0  0.89126  0.19245  0.01507  1.0000
  C   C740      1.0  0.75976  0.46255  0.14423  1.0000
  H   H1231     1.0  0.87760  0.16260  0.00373  1.0000
  H   H1232     1.0  0.70233  0.12098  0.22384  1.0000
  H   H1233     1.0  0.73889  0.20949  0.21019  1.0000
  H   H1234     1.0  0.86921  0.47098  0.12646  1.0000
  H   H1235     1.0  0.90101  0.16542  0.01848  1.0000
  C   C741      1.0  0.87258  0.39930  0.23447  1.0000
  H   H1236     1.0  0.86246  0.22052  0.10287  1.0000
  H   H1237     1.0  0.85621  0.17646  0.02948  1.0000
  C   C742      1.0  0.78853  0.48663  0.17355  1.0000
  H   H1238     1.0  0.80151  0.10261  0.02999  1.0000
  H   H1239     1.0  0.81498  0.24964  0.21163  1.0000
  H   H1240     1.0  0.98416  0.31347  0.09346  1.0000
  H   H1241     1.0  0.75298  0.30340  0.21651  1.0000
  H   H1242     1.0  0.72917  0.06081  0.10603  1.0000
  H   H1243     1.0  0.79444  0.27688  0.20122  1.0000
  C   C743      1.0  0.76922  0.20345  0.12156  1.0000
  H   H1244     1.0  0.76711  0.04922  0.09593  1.0000
  H   H1245     1.0  0.87626  0.11682  0.02360  1.0000
  C   C744      1.0  0.49887  0.44167  0.14190  1.0000
  H   H1246     1.0  0.80334  0.12669  0.05334  1.0000
  C   C745      1.0  0.52580  0.45227  0.13756  1.0000
  H   H1247     1.0  0.71045  0.48215  0.16129  1.0000
  H   H1248     1.0  0.79167  0.45847  0.13152  1.0000
  C   C746      1.0  0.81993  0.12127  0.03331  1.0000
  C   C747      1.0  0.70047  0.10017  0.22598  1.0000
  H   H1249     1.0  0.79370  0.14226  0.03903  1.0000
  C   C748      1.0  0.81090  0.13842  0.04370  1.0000
  C   C749      1.0  0.83287  0.27095  0.12085  1.0000
  N   N55       1.0  0.75162  0.24997  0.20201  1.0000
  H   H1250     1.0  0.52847  0.04055  0.09447  1.0000
  H   H1251     1.0  0.78453  0.24670  0.19072  1.0000
  H   H1252     1.0  0.51649  0.45670  0.19429  1.0000
  H   H1253     1.0  0.50154  0.40921  0.23153  1.0000
  H   H1254     1.0  0.84588  0.08677  0.02662  1.0000
  H   H1255     1.0  0.69533  0.21649  0.20758  1.0000
  C   C750      1.0  0.88342  0.16990  0.01495  1.0000
  H   H1256     1.0  0.74182  0.21043  0.19145  1.0000
  C   C751      1.0  0.70415  0.20969  0.19857  1.0000
  H   H1257     1.0  0.69475  0.18706  0.19803  1.0000
  C   C752      1.0  0.78844  0.23326  0.11925  1.0000
  C   C753      1.0  0.86055  0.15895  0.02561  1.0000
  H   H1258     1.0  0.77040  0.30618  0.19413  1.0000
  H   H1259     1.0  0.98602  0.27142  0.09783  1.0000
  H   H1260     1.0  0.74817  0.20015  0.11807  1.0000
  H   H1261     1.0  0.81625  0.24029  0.14386  1.0000
  H   H1262     1.0  0.86189  0.22535  0.13288  1.0000
  H   H1263     1.0  0.86730  0.25928  0.13980  1.0000
  H   H1264     1.0  0.70785  0.45638  0.14759  1.0000
  H   H1265     1.0  0.84151  0.30575  0.10772  1.0000
  H   H1266     1.0  0.80665  0.28293  0.10665  1.0000
  C   C754      1.0  0.82613  0.22586  0.10891  1.0000
  H   H1267     1.0  0.76861  0.19901  0.13305  1.0000
  H   H1268     1.0  0.84399  0.17831  0.00018  1.0000
  H   H1269     1.0  0.79088  0.25095  0.22380  1.0000
  H   H1270     1.0  0.83140  0.27436  0.09741  1.0000
  H   H1271     1.0  0.94145  0.26490  0.10274  1.0000
  H   H1272     1.0  0.54609  0.12287  0.12104  1.0000
  H   H1273     1.0  0.78469  0.46483  0.17204  1.0000
  H   H1274     1.0  0.85480  0.23105  0.15074  1.0000
  C   C755      1.0  0.74583  0.26016  0.21612  1.0000
  C   C756      1.0  0.85631  0.23754  0.10513  1.0000
  H   H1275     1.0  0.81449  0.22578  0.09885  1.0000
  H   H1276     1.0  0.85511  0.27831  0.12251  1.0000
  H   H1277     1.0  0.93732  0.28113  0.12730  1.0000
  H   H1278     1.0  0.86977  0.15343  0.03513  1.0000
  H   H1279     1.0  0.77972  0.43454  0.14483  1.0000
  H   H1280     1.0  0.86108  0.41052  0.23007  1.0000
  C   C757      1.0  0.78516  0.45626  0.14268  1.0000
  H   H1281     1.0  0.78367  0.22058  0.21240  1.0000
  H   H1282     1.0  0.53355  0.43873  0.13252  1.0000
  H   H1283     1.0  0.74563  0.44694  0.15103  1.0000
  H   H1284     1.0  0.50610  0.47344  0.18024  1.0000
  C   C758      1.0  0.76593  0.99862  0.00272  1.0000
  C   C759      1.0  0.90331  0.35208  0.23584  1.0000
  C   C760      1.0  0.82592  0.15881  0.99825  1.0000
  C   C761      1.0  0.54277  0.48028  0.13954  1.0000
  H   H1285     1.0  0.51677  0.44706  0.17593  1.0000
  H   H1286     1.0  0.80974  0.16402  0.99331  1.0000
  H   H1287     1.0  0.96440  0.33201  0.07617  1.0000
  H   H1288     1.0  0.70527  0.06094  0.13112  1.0000
  H   H1289     1.0  0.77992  0.02050  0.00277  1.0000
  H   H1290     1.0  0.94149  0.46979  0.16384  1.0000
  C   C762      1.0  0.71261  0.47821  0.14982  1.0000
  Fe  Fe104     1.0  0.74911  0.99658  0.04490  1.0000
  H   H1291     1.0  0.74691  0.47827  0.17029  1.0000
  H   H1292     1.0  0.53643  0.49280  0.20981  1.0000
  C   C763      1.0  0.76875  0.06042  0.10626  1.0000
  C   C764      1.0  0.76067  0.00364  0.12154  1.0000
  H   H1293     1.0  0.78852  0.49084  0.18522  1.0000
  H   H1294     1.0  0.55386  0.48966  0.17110  1.0000
  H   H1295     1.0  0.92356  0.49199  0.18054  1.0000
  H   H1296     1.0  0.49251  0.43656  0.22846  1.0000
  H   H1297     1.0  0.74598  0.06571  0.12318  1.0000
  C   C765      1.0  0.86190  0.48856  0.14597  1.0000
  H   H1298     1.0  0.68537  0.02452  0.11251  1.0000
  C   C766      1.0  0.49975  0.12651  0.14883  1.0000
  H   H1299     1.0  0.78382  0.05796  0.11377  1.0000
  C   C767      1.0  0.69917  0.03956  0.13413  1.0000
  N   N56       1.0  0.72487  0.02341  0.11562  1.0000
  H   H1300     1.0  0.67846  0.03310  0.13820  1.0000
  C   C768      1.0  0.69793  0.02078  0.12110  1.0000
  H   H1301     1.0  0.71278  0.03852  0.14299  1.0000
  H   H1302     1.0  0.74893  0.02946  0.13543  1.0000
  C   C769      1.0  0.71887  0.00704  0.10160  1.0000
  H   H1303     1.0  0.77689  0.00842  0.13011  1.0000
  H   H1304     1.0  0.73743  0.00708  0.09700  1.0000
  C   C770      1.0  0.95103  0.49243  0.16454  1.0000
  H   H1305     1.0  0.68570  0.99966  0.12423  1.0000
  H   H1306     1.0  0.98805  0.33385  0.06306  1.0000
  H   H1307     1.0  0.72393  0.99577  0.13201  1.0000
  C   C771      1.0  0.76605  0.49278  0.16598  1.0000
  H   H1308     1.0  0.49859  0.24205  0.23502  1.0000
  H   H1309     1.0  0.82976  0.14534  0.99030  1.0000
  Fe  Fe105     1.0  0.74893  0.01673  0.42253  1.0000
  Fe  Fe106     1.0  0.97274  0.25560  0.42674  1.0000
  H   H1310     1.0  0.89061  0.06670  0.40909  1.0000
  Fe  Fe107     1.0  0.72249  0.02873  0.39493  1.0000
  H   H1311     1.0  0.93084  0.22532  0.48508  1.0000
  S   S218      1.0  0.69110  0.04315  0.38537  1.0000
  C   C772      1.0  0.74796  0.11102  0.25958  1.0000
  Fe  Fe108     1.0  0.78108  0.03617  0.39582  1.0000
  S   S219      1.0  0.82051  0.06282  0.38625  1.0000
  H   H1312     1.0  0.93128  0.16799  0.48119  1.0000
  S   S220      1.0  0.75885  0.05415  0.40964  1.0000
  H   H1313     1.0  0.96387  0.28934  0.47652  1.0000
  C   C773      1.0  0.88191  0.49313  0.30541  1.0000
  C   C774      1.0  0.51132  0.09013  0.26931  1.0000
  Fe  Fe109     1.0  0.95597  0.24547  0.39457  1.0000
  S   S221      1.0  0.95959  0.20510  0.39447  1.0000
  S   S222      1.0  0.94505  0.25314  0.37161  1.0000
  Fe  Fe110     1.0  0.93886  0.19822  0.41509  1.0000
  S   S223      1.0  0.90952  0.15925  0.42409  1.0000
  S   S224      1.0  0.93204  0.23656  0.41452  1.0000
  Fe  Fe111     1.0  0.64295  0.11867  0.28247  1.0000
  S   S225      1.0  0.62460  0.14416  0.29375  1.0000
  S   S226      1.0  0.65361  0.13029  0.25952  1.0000
  Fe  Fe112     1.0  0.65123  0.09344  0.31086  1.0000
  S   S227      1.0  0.63329  0.11736  0.32360  1.0000
  S   S228      1.0  0.67201  0.06740  0.32026  1.0000
  Fe  Fe113     1.0  0.60142  0.10665  0.30546  1.0000
  S   S229      1.0  0.55610  0.08947  0.30969  1.0000
  Fe  Fe114     1.0  0.65807  0.15270  0.31058  1.0000
  S   S230      1.0  0.68295  0.19520  0.32039  1.0000
  S   S231      1.0  0.61787  0.08020  0.29324  1.0000
  S   S232      1.0  0.67773  0.12944  0.29888  1.0000
  Fe  Fe115     1.0  0.88009  0.34171  0.28543  1.0000
  S   S233      1.0  0.83738  0.33818  0.28408  1.0000
  S   S234      1.0  0.90414  0.35289  0.26529  1.0000
  Fe  Fe116     1.0  0.87864  0.33277  0.31798  1.0000
  S   S235      1.0  0.83562  0.32982  0.31833  1.0000
  S   S236      1.0  0.89687  0.32943  0.34009  1.0000
  Fe  Fe117     1.0  0.82813  0.30324  0.29836  1.0000
  S   S237      1.0  0.79474  0.26185  0.29197  1.0000
  Fe  Fe118     1.0  0.84928  0.36553  0.30405  1.0000
  S   S238      1.0  0.83427  0.39968  0.30467  1.0000
  S   S239      1.0  0.87046  0.30468  0.29845  1.0000
  S   S240      1.0  0.89267  0.37056  0.30501  1.0000
  C   C775      1.0  0.90538  0.07728  0.40100  1.0000
  H   H1314     1.0  0.93951  0.43721  0.28338  1.0000
  H   H1315     1.0  0.69137  0.99673  0.36732  1.0000
  H   H1316     1.0  0.70365  0.13694  0.24625  1.0000
  H   H1317     1.0  0.94457  0.12902  0.36736  1.0000
  C   C776      1.0  0.88735  0.16607  0.46638  1.0000
  C   C777      1.0  0.74698  0.01067  0.48879  1.0000
  H   H1318     1.0  0.50631  0.10067  0.27832  1.0000
  C   C778      1.0  0.71364  0.21450  0.31226  1.0000
  C   C779      1.0  0.72119  0.20409  0.30013  1.0000
  C   C780      1.0  0.74598  0.21907  0.29406  1.0000
  C   C781      1.0  0.76335  0.24489  0.29984  1.0000
  C   C782      1.0  0.75560  0.25583  0.31174  1.0000
  C   C783      1.0  0.73088  0.24054  0.31801  1.0000
  H   H1319     1.0  0.70787  0.18457  0.29531  1.0000
  H   H1320     1.0  0.75169  0.21061  0.28478  1.0000
  H   H1321     1.0  0.76863  0.27594  0.31611  1.0000
  H   H1322     1.0  0.72509  0.24893  0.32729  1.0000
  C   C784      1.0  0.53165  0.10340  0.30701  1.0000
  C   C785      1.0  0.53881  0.13017  0.30304  1.0000
  C   C786      1.0  0.51902  0.14102  0.30220  1.0000
  H   H1323     1.0  0.49435  0.22962  0.27314  1.0000
  C   C787      1.0  0.98408  0.26930  0.46426  1.0000
  H   H1324     1.0  0.88897  0.15562  0.45625  1.0000
  H   H1325     1.0  0.55963  0.14258  0.30079  1.0000
  H   H1326     1.0  0.52492  0.16195  0.29948  1.0000
  H   H1327     1.0  0.63026  0.20151  0.31960  1.0000
  S   S241      1.0  0.74536  0.01249  0.38064  1.0000
  C   C788      1.0  0.69681  0.08943  0.25774  1.0000
  C   C789      1.0  0.83936  0.45261  0.30400  1.0000
  C   C790      1.0  0.85331  0.43559  0.30514  1.0000
  C   C791      1.0  0.88173  0.44753  0.30642  1.0000
  H   H1328     1.0  0.81739  0.44362  0.30305  1.0000
  H   H1329     1.0  0.89275  0.43474  0.30740  1.0000
  H   H1330     1.0  0.93536  0.14278  0.39711  1.0000
  H   H1331     1.0  0.50490  0.25566  0.25304  1.0000
  C   C792      1.0  0.93175  0.27471  0.36313  1.0000
  C   C793      1.0  0.92612  0.29442  0.37071  1.0000
  C   C794      1.0  0.91581  0.31108  0.36344  1.0000
  C   C795      1.0  0.91078  0.30825  0.34850  1.0000
  C   C796      1.0  0.91638  0.28850  0.34090  1.0000
  C   C797      1.0  0.92688  0.27195  0.34817  1.0000
  H   H1332     1.0  0.92975  0.29692  0.38219  1.0000
  H   H1333     1.0  0.91156  0.32625  0.36945  1.0000
  H   H1334     1.0  0.91279  0.28610  0.32943  1.0000
  H   H1335     1.0  0.93116  0.25683  0.34215  1.0000
  C   C798      1.0  0.84298  0.09103  0.39692  1.0000
  C   C799      1.0  0.84450  0.08997  0.41178  1.0000
  C   C800      1.0  0.86465  0.11139  0.42001  1.0000
  C   C801      1.0  0.88297  0.13424  0.41347  1.0000
  C   C802      1.0  0.88077  0.13586  0.39867  1.0000
  C   C803      1.0  0.86104  0.11411  0.39040  1.0000
  H   H1336     1.0  0.83068  0.07223  0.41688  1.0000
  H   H1337     1.0  0.86617  0.11005  0.43146  1.0000
  H   H1338     1.0  0.89455  0.15359  0.39358  1.0000
  H   H1339     1.0  0.85981  0.11503  0.37891  1.0000
  C   C804      1.0  0.68793  0.05233  0.36745  1.0000
  C   C805      1.0  0.70437  0.04992  0.35674  1.0000
  C   C806      1.0  0.69945  0.05495  0.34244  1.0000
  C   C807      1.0  0.67862  0.06331  0.33866  1.0000
  C   C808      1.0  0.66270  0.06652  0.34945  1.0000
  C   C809      1.0  0.66719  0.06083  0.36369  1.0000
  H   H1340     1.0  0.72064  0.04377  0.35941  1.0000
  H   H1341     1.0  0.71195  0.05243  0.33424  1.0000
  H   H1342     1.0  0.64648  0.07273  0.34676  1.0000
  H   H1343     1.0  0.65432  0.06281  0.37184  1.0000
  C   C810      1.0  0.83404  0.38758  0.26073  1.0000
  H   H1344     1.0  0.57207  0.18637  0.34664  1.0000
  C   C811      1.0  0.64256  0.11392  0.24230  1.0000
  C   C812      1.0  0.93096  0.12230  0.37639  1.0000
  C   C813      1.0  0.94709  0.13384  0.39081  1.0000
  C   C814      1.0  0.72438  0.02386  0.46426  1.0000
  C   C815      1.0  0.74507  0.01474  0.46282  1.0000
  H   H1345     1.0  0.96589  0.15149  0.38815  1.0000
  C   C816      1.0  0.60778  0.19292  0.31897  1.0000
  C   C817      1.0  0.88844  0.34161  0.24792  1.0000
  H   H1346     1.0  0.51344  0.45081  0.26834  1.0000
  N   N57       1.0  0.95441  0.11463  0.39969  1.0000
  H   H1347     1.0  0.82796  0.36543  0.25854  1.0000
  H   H1348     1.0  0.84994  0.31401  0.25508  1.0000
  H   H1349     1.0  0.90891  0.06130  0.39480  1.0000
  H   H1350     1.0  0.70737  0.14231  0.27249  1.0000
  H   H1351     1.0  0.59373  0.14360  0.36116  1.0000
  H   H1352     1.0  0.91785  0.48511  0.30763  1.0000
  H   H1353     1.0  0.65594  0.00293  0.35270  1.0000
  S   S242      1.0  0.97564  0.27965  0.44763  1.0000
  H   H1354     1.0  0.96125  0.16447  0.46301  1.0000
  C   C818      1.0  0.71519  0.02652  0.47791  1.0000
  H   H1355     1.0  0.49602  0.13468  0.26952  1.0000
  H   H1356     1.0  0.69236  0.06843  0.25346  1.0000
  H   H1357     1.0  0.88436  0.15044  0.47440  1.0000
  H   H1358     1.0  0.59938  0.15109  0.32257  1.0000
  H   H1359     1.0  0.91945  0.10003  0.37536  1.0000
  H   H1360     1.0  0.96089  0.13807  0.42957  1.0000
  N   N58       1.0  0.91298  0.19131  0.46971  1.0000
  H   H1361     1.0  0.91583  0.13122  0.37476  1.0000
  H   H1362     1.0  0.51059  0.07037  0.27287  1.0000
  C   C819      1.0  0.50147  0.44683  0.25800  1.0000
  C   C820      1.0  0.50427  0.08729  0.30944  1.0000
  H   H1363     1.0  0.53263  0.10256  0.26669  1.0000
  C   C821      1.0  0.90740  0.23051  0.45614  1.0000
  N   N59       1.0  0.82469  0.24232  0.34073  1.0000
  C   C822      1.0  0.84182  0.25329  0.35446  1.0000
  C   C823      1.0  0.81823  0.26505  0.33508  1.0000
  C   C824      1.0  0.84146  0.23461  0.33034  1.0000
  C   C825      1.0  0.79962  0.21783  0.34414  1.0000
  C   C826      1.0  0.85513  0.23533  0.36090  1.0000
  C   C827      1.0  0.80072  0.27470  0.34453  1.0000
  C   C828      1.0  0.83277  0.23203  0.31433  1.0000
  C   C829      1.0  0.77698  0.20535  0.33223  1.0000
  H   H1364     1.0  0.85853  0.27353  0.35296  1.0000
  H   H1365     1.0  0.82970  0.25688  0.36300  1.0000
  H   H1366     1.0  0.80760  0.25975  0.32440  1.0000
  H   H1367     1.0  0.83744  0.28306  0.33339  1.0000
  H   H1368     1.0  0.86290  0.25008  0.33114  1.0000
  H   H1369     1.0  0.84228  0.21496  0.33305  1.0000
  H   H1370     1.0  0.80516  0.20096  0.34735  1.0000
  H   H1371     1.0  0.79018  0.22208  0.35376  1.0000
  H   H1372     1.0  0.83995  0.21505  0.36350  1.0000
  H   H1373     1.0  0.87026  0.23303  0.35387  1.0000
  H   H1374     1.0  0.86651  0.24545  0.37105  1.0000
  H   H1375     1.0  0.79663  0.29072  0.33904  1.0000
  H   H1376     1.0  0.78070  0.25802  0.34620  1.0000
  H   H1377     1.0  0.81133  0.28414  0.35491  1.0000
  H   H1378     1.0  0.81132  0.21823  0.31187  1.0000
  H   H1379     1.0  0.84528  0.22379  0.30825  1.0000
  H   H1380     1.0  0.83676  0.25222  0.31011  1.0000
  H   H1381     1.0  0.77935  0.18850  0.32614  1.0000
  H   H1382     1.0  0.77562  0.22008  0.32470  1.0000
  H   H1383     1.0  0.75686  0.19698  0.33707  1.0000
  N   N60       1.0  0.60269  0.17061  0.34350  1.0000
  C   C830      1.0  0.58934  0.14270  0.34944  1.0000
  C   C831      1.0  0.63300  0.17951  0.34558  1.0000
  H   H1384     1.0  0.54785  0.14134  0.35102  1.0000
  C   C832      1.0  0.59261  0.18957  0.35111  1.0000
  C   C833      1.0  0.89382  0.41549  0.24646  1.0000
  C   C834      1.0  0.64391  0.18062  0.36111  1.0000
  H   H1385     1.0  0.84337  0.15072  0.46650  1.0000
  C   C835      1.0  0.61080  0.22045  0.35112  1.0000
  H   H1386     1.0  0.59769  0.12861  0.34473  1.0000
  H   H1387     1.0  0.94908  0.18151  0.45047  1.0000
  H   H1388     1.0  0.64459  0.19976  0.34141  1.0000
  H   H1389     1.0  0.63961  0.16569  0.33927  1.0000
  C   C836      1.0  0.49470  0.23671  0.24632  1.0000
  C   C837      1.0  0.86074  0.16997  0.46425  1.0000
  H   H1390     1.0  0.60022  0.20861  0.32185  1.0000
  H   H1391     1.0  0.59001  0.18469  0.36256  1.0000
  H   H1392     1.0  0.60154  0.18696  0.30752  1.0000
  H   H1393     1.0  0.95481  0.20043  0.47629  1.0000
  H   H1394     1.0  0.62452  0.22698  0.34222  1.0000
  H   H1395     1.0  0.63952  0.15989  0.36473  1.0000
  H   H1396     1.0  0.66639  0.19175  0.36161  1.0000
  H   H1397     1.0  0.63576  0.19136  0.36861  1.0000
  H   H1398     1.0  0.96677  0.08122  0.39781  1.0000
  H   H1399     1.0  0.76851  0.08639  0.26748  1.0000
  C   C838      1.0  0.97364  0.14987  0.42104  1.0000
  H   H1400     1.0  0.92670  0.14865  0.45640  1.0000
  H   H1401     1.0  0.93826  0.08726  0.41673  1.0000
  H   H1402     1.0  0.62282  0.22764  0.36142  1.0000
  C   C839      1.0  0.75193  0.08422  0.25951  1.0000
  C   C840      1.0  0.91976  0.20929  0.45707  1.0000
  H   H1403     1.0  0.54708  0.44914  0.30689  1.0000
  H   H1404     1.0  0.90968  0.43323  0.24161  1.0000
  H   H1405     1.0  0.50004  0.10518  0.25033  1.0000
  H   H1406     1.0  0.92225  0.45882  0.26467  1.0000
  N   N61       1.0  0.88351  0.42477  0.25943  1.0000
  C   C841      1.0  0.90773  0.44025  0.26958  1.0000
  H   H1407     1.0  0.87644  0.47070  0.27467  1.0000
  C   C842      1.0  0.55810  0.12841  0.34725  1.0000
  C   C843      1.0  0.86385  0.40078  0.26687  1.0000
  C   C844      1.0  0.92420  0.42444  0.27498  1.0000
  H   H1408     1.0  0.49487  0.07074  0.24871  1.0000
  H   H1409     1.0  0.55062  0.10975  0.35345  1.0000
  H   H1410     1.0  0.85798  0.17502  0.45307  1.0000
  H   H1411     1.0  0.90131  0.44761  0.27938  1.0000
  C   C845      1.0  0.97546  0.27702  0.47699  1.0000
  H   H1412     1.0  0.82023  0.38942  0.26883  1.0000
  H   H1413     1.0  0.96430  0.16268  0.41623  1.0000
  H   H1414     1.0  0.85913  0.18541  0.47174  1.0000
  C   C846      1.0  0.87175  0.44472  0.25518  1.0000
  H   H1415     1.0  0.87134  0.38436  0.26713  1.0000
  H   H1416     1.0  0.86312  0.40648  0.27832  1.0000
  H   H1417     1.0  0.73346  0.06673  0.26243  1.0000
  H   H1418     1.0  0.91128  0.40545  0.27998  1.0000
  H   H1419     1.0  0.93563  0.41984  0.26645  1.0000
  C   C847      1.0  0.59480  0.16755  0.32775  1.0000
  C   C848      1.0  0.50521  0.44032  0.30084  1.0000
  H   H1420     1.0  0.84877  0.46727  0.26277  1.0000
  H   H1421     1.0  0.91385  0.19686  0.44684  1.0000
  H   H1422     1.0  0.84575  0.43963  0.27362  1.0000
  H   H1423     1.0  0.94205  0.22120  0.45678  1.0000
  S   S243      1.0  0.97816  0.21690  0.42816  1.0000
  H   H1424     1.0  0.49777  0.41931  0.30369  1.0000
  N   N62       1.0  0.72249  0.10954  0.25172  1.0000
  H   H1425     1.0  0.98627  0.11790  0.41545  1.0000
  C   C849      1.0  0.49715  0.47825  0.29214  1.0000
  H   H1426     1.0  0.49757  0.40568  0.25672  1.0000
  H   H1427     1.0  0.90378  0.40182  0.24947  1.0000
  H   H1428     1.0  0.82980  0.39553  0.25070  1.0000
  H   H1429     1.0  0.71078  0.10568  0.28046  1.0000
  H   H1430     1.0  0.69872  0.06929  0.27757  1.0000
  C   C850      1.0  0.93593  0.18258  0.47251  1.0000
  H   H1431     1.0  0.92449  0.11204  0.41512  1.0000
  H   H1432     1.0  0.91202  0.24017  0.44571  1.0000
  C   C851      1.0  0.98769  0.10942  0.38197  1.0000
  H   H1433     1.0  0.91687  0.24718  0.46448  1.0000
  H   H1434     1.0  0.69936  0.03382  0.47891  1.0000
  C   C852      1.0  0.69618  0.08772  0.27418  1.0000
  H   H1435     1.0  0.70028  0.99735  0.34245  1.0000
  H   H1436     1.0  0.57256  0.16122  0.32600  1.0000
  C   C853      1.0  0.72264  0.13763  0.25159  1.0000
  H   H1437     1.0  0.67564  0.08493  0.27745  1.0000
  H   H1438     1.0  0.71564  0.02908  0.45488  1.0000
  H   H1439     1.0  0.88509  0.22154  0.45678  1.0000
  C   C854      1.0  0.97853  0.13130  0.40967  1.0000
  C   C855      1.0  0.53322  0.45732  0.30264  1.0000
  H   H1440     1.0  0.72539  0.17308  0.26426  1.0000
  H   H1441     1.0  0.59758  0.23175  0.35044  1.0000
  C   C856      1.0  0.85351  0.48117  0.30409  1.0000
  H   H1442     1.0  0.94593  0.08223  0.38325  1.0000
  H   H1443     1.0  0.55168  0.12147  0.33595  1.0000
  C   C857      1.0  0.89591  0.47612  0.30656  1.0000
  H   H1444     1.0  0.73953  0.15119  0.24524  1.0000
  H   H1445     1.0  0.50442  0.22257  0.24875  1.0000
  C   C858      1.0  0.96253  0.09557  0.39082  1.0000
  H   H1446     1.0  0.61997  0.07367  0.24942  1.0000
  H   H1447     1.0  0.49849  0.06654  0.31250  1.0000
  H   H1448     1.0  0.76624  0.12671  0.25502  1.0000
  C   C859      1.0  0.93134  0.09838  0.40880  1.0000
  C   C860      1.0  0.86012  0.45595  0.26737  1.0000
  C   C861      1.0  0.94333  0.16854  0.45975  1.0000
  C   C862      1.0  0.49170  0.12499  0.30482  1.0000
  H   H1449     1.0  0.51637  0.45401  0.24960  1.0000
  C   C863      1.0  0.86160  0.32236  0.24592  1.0000
  C   C864      1.0  0.54349  0.48483  0.29912  1.0000
  H   H1450     1.0  0.89516  0.08709  0.39423  1.0000
  H   H1451     1.0  0.88746  0.46253  0.25029  1.0000
  H   H1452     1.0  0.74434  0.15645  0.27236  1.0000
  C   C865      1.0  0.91136  0.20712  0.48297  1.0000
  H   H1453     1.0  0.89584  0.21552  0.48164  1.0000
  H   H1454     1.0  0.85544  0.43620  0.24669  1.0000
  C   C866      1.0  0.72523  0.15274  0.26614  1.0000
  C   C867      1.0  0.49209  0.08600  0.25605  1.0000
  H   H1455     1.0  0.74918  0.11793  0.27092  1.0000
  H   H1456     1.0  0.67905  0.09341  0.25405  1.0000
  H   H1457     1.0  0.98764  0.26503  0.35140  1.0000
  H   H1458     1.0  0.75829  0.07962  0.24898  1.0000
  S   S244      1.0  0.75797  0.01112  0.44603  1.0000
  S   S245      1.0  0.77381  0.00046  0.40936  1.0000
  H   H1459     1.0  0.98656  0.12620  0.37583  1.0000
  C   C868      1.0  0.75619  0.00808  0.47516  1.0000
  H   H1460     1.0  0.77221  0.00104  0.47420  1.0000
  H   H1461     1.0  0.48935  0.45920  0.25843  1.0000
  C   C869      1.0  0.62692  0.08592  0.24027  1.0000
  Fe  Fe119     1.0  0.77212  0.03728  0.55379  1.0000
  S   S246      1.0  0.72956  0.03484  0.54965  1.0000
  S   S247      1.0  0.80956  0.07127  0.56496  1.0000
  H   H1462     1.0  0.67308  0.05263  0.53948  1.0000
  H   H1463     1.0  0.86226  0.06333  0.52380  1.0000
  Fe  Fe120     1.0  0.73121  0.01485  0.52825  1.0000
  H   H1464     1.0  0.81039  0.00175  0.55157  1.0000
  C   C870      1.0  0.85125  0.04849  0.54528  1.0000
  C   C871      1.0  0.87059  0.06831  0.53501  1.0000
  S   S248      1.0  0.77430  0.02016  0.53198  1.0000
  H   H1465     1.0  0.85828  0.02033  0.52314  1.0000
  Fe  Fe121     1.0  0.94014  0.20668  0.54677  1.0000
  S   S249      1.0  0.95849  0.25028  0.54020  1.0000
  S   S250      1.0  0.89477  0.18208  0.54120  1.0000
  H   H1466     1.0  0.87235  0.08924  0.53768  1.0000
  H   H1467     1.0  0.81595  0.99933  0.57689  1.0000
  H   H1468     1.0  0.89132  0.06887  0.53579  1.0000
  H   H1469     1.0  0.96019  0.33552  0.65127  1.0000
  S   S251      1.0  0.97008  0.19607  0.53498  1.0000
  S   S252      1.0  0.96457  0.21616  0.56781  1.0000
  H   H1470     1.0  0.98800  0.34597  0.63987  1.0000
  H   H1471     1.0  0.83498  0.03383  0.57315  1.0000
  H   H1472     1.0  0.90775  0.03643  0.56953  1.0000
  N   N63       1.0  0.85229  0.02097  0.54593  1.0000
  C   C872      1.0  0.66436  0.04296  0.52880  1.0000
  H   H1473     1.0  0.69317  0.00571  0.59643  1.0000
  H   H1474     1.0  0.92229  0.18657  0.50065  1.0000
  H   H1475     1.0  0.87841  0.00267  0.55431  1.0000
  C   C873      1.0  0.63960  0.00318  0.55062  1.0000
  C   C874      1.0  0.94456  0.30810  0.67462  1.0000
  C   C875      1.0  0.83368  0.10104  0.55759  1.0000
  C   C876      1.0  0.85914  0.11517  0.56487  1.0000
  C   C877      1.0  0.87859  0.13931  0.55967  1.0000
  C   C878      1.0  0.87250  0.15002  0.54729  1.0000
  C   C879      1.0  0.84713  0.13577  0.53996  1.0000
  C   C880      1.0  0.82798  0.11125  0.54495  1.0000
  H   H1476     1.0  0.86379  0.10749  0.57466  1.0000
  H   H1477     1.0  0.89794  0.15004  0.56547  1.0000
  H   H1478     1.0  0.84212  0.14387  0.53041  1.0000
  H   H1479     1.0  0.80851  0.10068  0.53923  1.0000
  C   C881      1.0  0.90516  0.19142  0.49682  1.0000
  C   C882      1.0  0.66069  0.01301  0.52780  1.0000
  C   C883      1.0  0.98166  0.34965  0.65061  1.0000
  H   H1480     1.0  0.61058  0.01292  0.50934  1.0000
  C   C884      1.0  0.83079  0.00364  0.55557  1.0000
  H   H1481     1.0  0.67061  0.00471  0.61924  1.0000
  H   H1482     1.0  0.97220  0.31720  0.69326  1.0000
  H   H1483     1.0  0.96773  0.38708  0.69623  1.0000
  C   C885      1.0  0.97361  0.31848  0.68146  1.0000
  C   C886      1.0  0.98367  0.36813  0.68033  1.0000
  S   S253      1.0  0.71450  0.02400  0.50728  1.0000
  H   H1484     1.0  0.94296  0.29689  0.66425  1.0000
  H   H1485     1.0  0.93713  0.32420  0.67312  1.0000
  C   C887      1.0  0.88001  0.02274  0.55066  1.0000
  N   N64       1.0  0.89472  0.24228  0.57369  1.0000
  C   C888      1.0  0.92413  0.25754  0.57881  1.0000
  C   C889      1.0  0.89325  0.24549  0.55780  1.0000
  C   C890      1.0  0.88667  0.21261  0.57646  1.0000
  C   C891      1.0  0.87778  0.25377  0.58183  1.0000
  C   C892      1.0  0.93141  0.25397  0.59445  1.0000
  C   C893      1.0  0.90367  0.27508  0.55311  1.0000
  C   C894      1.0  0.85745  0.19289  0.57172  1.0000
  C   C895      1.0  0.84999  0.24984  0.57473  1.0000
  H   H1486     1.0  0.93759  0.25179  0.57199  1.0000
  H   H1487     1.0  0.93087  0.27987  0.57780  1.0000
  H   H1488     1.0  0.87249  0.23450  0.55293  1.0000
  H   H1489     1.0  0.90528  0.23586  0.55230  1.0000
  H   H1490     1.0  0.90067  0.20500  0.57122  1.0000
  H   H1491     1.0  0.88852  0.20963  0.58805  1.0000
  H   H1492     1.0  0.87403  0.24526  0.59261  1.0000
  H   H1493     1.0  0.88921  0.27618  0.58380  1.0000
  H   H1494     1.0  0.93189  0.23376  0.59576  1.0000
  H   H1495     1.0  0.95228  0.26931  0.59744  1.0000
  H   H1496     1.0  0.91759  0.25722  0.60201  1.0000
  H   H1497     1.0  0.92621  0.28521  0.55410  1.0000
  H   H1498     1.0  0.89778  0.27495  0.54163  1.0000
  H   H1499     1.0  0.89506  0.28737  0.55920  1.0000
  H   H1500     1.0  0.85292  0.19290  0.56012  1.0000
  H   H1501     1.0  0.84228  0.19669  0.57805  1.0000
  H   H1502     1.0  0.85489  0.17183  0.57387  1.0000
  H   H1503     1.0  0.83507  0.24617  0.58315  1.0000
  H   H1504     1.0  0.84094  0.23262  0.56678  1.0000
  H   H1505     1.0  0.85138  0.26883  0.56982  1.0000
  H   H1506     1.0  0.85188  0.01124  0.57680  1.0000
  H   H1507     1.0  0.82374  0.00477  0.52759  1.0000
  H   H1508     1.0  0.93018  0.29399  0.68190  1.0000
  H   H1509     1.0  0.95877  0.35182  0.69886  1.0000
  H   H1510     1.0  0.91178  0.06273  0.55781  1.0000
  H   H1511     1.0  0.96592  0.36566  0.67323  1.0000
  H   H1512     1.0  0.66006  0.00751  0.51630  1.0000
  C   C896      1.0  0.89619  0.04467  0.56250  1.0000
  H   H1513     1.0  0.89324  0.02724  0.54137  1.0000
  H   H1514     1.0  0.85547  0.05934  0.55587  1.0000
  H   H1515     1.0  0.90241  0.20455  0.50545  1.0000
  H   H1516     1.0  0.88393  0.05139  0.56957  1.0000
  H   H1517     1.0  0.64515  0.04515  0.52633  1.0000
  H   H1518     1.0  0.67922  0.05451  0.52094  1.0000
  H   H1519     1.0  0.83035  0.04617  0.54207  1.0000
  C   C897      1.0  0.83409  0.01305  0.57144  1.0000
  S   S254      1.0  0.75713  0.99645  0.56396  1.0000
  H   H1520     1.0  0.97524  0.27527  0.50005  1.0000
  H   H1521     1.0  0.98357  0.37098  0.65104  1.0000
  C   C898      1.0  0.84470  0.00745  0.53110  1.0000
  H   H1522     1.0  0.88612  0.17268  0.49567  1.0000
  H   H1523     1.0  0.63830  0.02324  0.55158  1.0000
  H   H1524     1.0  0.67986  0.01242  0.53217  1.0000
  H   H1525     1.0  0.75584  0.00555  0.49815  1.0000
  H   H1526     1.0  0.60522  0.00790  0.53324  1.0000
  H   H1527     1.0  0.66002  0.00665  0.55544  1.0000
  H   H1528     1.0  0.98100  0.30263  0.67847  1.0000
  C   C899      1.0  0.97537  0.37079  0.69569  1.0000
  Fe  Fe122     1.0  0.98514  0.25930  0.56067  1.0000
  H   H1529     1.0  0.62151  0.99513  0.57126  1.0000
  C   C900      1.0  0.98179  0.26899  0.49033  1.0000
  C   C901      1.0  0.72650  0.02006  0.49026  1.0000
  H   H1530     1.0  0.91104  0.25248  0.84009  1.0000
  H   H1531     1.0  0.69209  0.06554  0.90489  1.0000
  Fe  Fe123     1.0  0.77513  0.03649  0.90520  1.0000
  S   S255      1.0  0.73585  0.04228  0.90589  1.0000
  S   S256      1.0  0.81833  0.06550  0.90009  1.0000
  Fe  Fe124     1.0  0.73082  0.02107  0.92671  1.0000
  H   H1532     1.0  0.92048  0.13730  0.95383  1.0000
  S   S257      1.0  0.70807  0.02537  0.94600  1.0000
  C   C902      1.0  0.89193  0.19014  0.97343  1.0000
  S   S258      1.0  0.77094  0.01794  0.92674  1.0000
  H   H1533     1.0  0.89807  0.27332  0.90099  1.0000
  Fe  Fe125     1.0  0.93272  0.21859  0.90147  1.0000
  S   S259      1.0  0.94712  0.25998  0.91300  1.0000
  S   S260      1.0  0.88653  0.19463  0.89970  1.0000
  C   C903      1.0  0.97511  0.25057  0.96408  1.0000
  H   H1534     1.0  0.87660  0.11206  0.93625  1.0000
  H   H1535     1.0  0.94874  0.31891  0.86216  1.0000
  H   H1536     1.0  0.66135  0.02357  0.89590  1.0000
  S   S261      1.0  0.96051  0.23479  0.88332  1.0000
  S   S262      1.0  0.96179  0.20600  0.91378  1.0000
  C   C904      1.0  0.63749  0.00934  0.92942  1.0000
  C   C905      1.0  0.92352  0.15534  0.94744  1.0000
  C   C906      1.0  0.91128  0.17945  0.96642  1.0000
  H   H1537     1.0  0.70075  0.00812  0.75558  1.0000
  C   C907      1.0  0.72360  0.03531  0.96344  1.0000
  C   C908      1.0  0.75154  0.05072  0.96571  1.0000
  C   C909      1.0  0.76282  0.06005  0.97966  1.0000
  H   H1538     1.0  0.76430  0.05627  0.95668  1.0000
  H   H1539     1.0  0.88338  0.27619  0.84607  1.0000
  H   H1540     1.0  0.91134  0.18408  0.93023  1.0000
  C   C910      1.0  0.98616  0.24516  0.97681  1.0000
  H   H1541     1.0  0.87212  0.23130  0.86724  1.0000
  H   H1542     1.0  0.59852  0.00764  0.93679  1.0000
  C   C911      1.0  0.86803  0.15869  0.90005  1.0000
  C   C912      1.0  0.88042  0.14060  0.89812  1.0000
  C   C913      1.0  0.86486  0.11225  0.89821  1.0000
  C   C914      1.0  0.83680  0.10155  0.90039  1.0000
  C   C915      1.0  0.82449  0.11967  0.90255  1.0000
  C   C916      1.0  0.83998  0.14803  0.90227  1.0000
  H   H1543     1.0  0.90191  0.14840  0.89634  1.0000
  H   H1544     1.0  0.87462  0.09847  0.89648  1.0000
  H   H1545     1.0  0.80296  0.11181  0.90420  1.0000
  H   H1546     1.0  0.83015  0.16180  0.90375  1.0000
  C   C917      1.0  0.90592  0.18919  0.94095  1.0000
  H   H1547     1.0  0.87014  0.28257  0.86219  1.0000
  C   C918      1.0  0.87572  0.14457  0.95082  1.0000
  C   C919      1.0  0.61713  0.02635  0.91033  1.0000
  H   H1548     1.0  0.69227  0.05451  0.92287  1.0000
  C   C920      1.0  0.92720  0.31061  0.85799  1.0000
  H   H1549     1.0  0.92779  0.30758  0.84624  1.0000
  Fe  Fe126     1.0  0.97721  0.27516  0.89560  1.0000
  C   C921      1.0  0.86582  0.24110  0.85850  1.0000
  H   H1550     1.0  0.93136  0.30078  0.88519  1.0000
  H   H1551     1.0  0.74816  0.00334  0.98274  1.0000
  C   C922      1.0  0.70727  0.02851  0.97529  1.0000
  H   H1552     1.0  0.87299  0.25704  0.88704  1.0000
  C   C923      1.0  0.89519  0.26595  0.88960  1.0000
  H   H1553     1.0  0.94589  0.27733  0.84228  1.0000
  H   H1554     1.0  0.64803  0.03015  0.93458  1.0000
  H   H1555     1.0  0.68560  0.01680  0.97365  1.0000
  H   H1556     1.0  0.93149  0.19696  0.96706  1.0000
  H   H1557     1.0  0.89550  0.32691  0.85711  1.0000
  H   H1558     1.0  0.94306  0.26001  0.95491  1.0000
  H   H1559     1.0  0.65111  0.99904  0.93216  1.0000
  H   H1560     1.0  0.92015  0.14775  0.93604  1.0000
  H   H1561     1.0  0.88617  0.21323  0.93154  1.0000
  H   H1562     1.0  0.89925  0.19652  0.98473  1.0000
  H   H1563     1.0  0.89257  0.20871  0.96845  1.0000
  H   H1564     1.0  0.92291  0.20890  0.94444  1.0000
  H   H1565     1.0  0.86447  0.17806  0.93157  1.0000
  C   C924      1.0  0.88245  0.27218  0.85767  1.0000
  H   H1566     1.0  0.87169  0.19919  0.94775  1.0000
  H   H1567     1.0  0.59549  0.01408  0.91255  1.0000
  H   H1568     1.0  0.60224  0.04441  0.89346  1.0000
  H   H1569     1.0  0.92199  0.34261  0.87119  1.0000
  H   H1570     1.0  0.93736  0.24301  0.84666  1.0000
  C   C925      1.0  0.92998  0.25950  0.84694  1.0000
  C   C926      1.0  0.93939  0.25499  0.97768  1.0000
  H   H1571     1.0  0.87084  0.17460  0.97364  1.0000
  H   H1572     1.0  0.91337  0.16419  0.97357  1.0000
  C   C927      1.0  0.91740  0.33363  0.86009  1.0000
  H   H1573     1.0  0.87254  0.13940  0.92734  1.0000
  H   H1574     1.0  0.78430  0.07273  0.98125  1.0000
  C   C928      1.0  0.66207  0.02431  0.90779  1.0000
  C   C929      1.0  0.95156  0.25541  0.96457  1.0000
  H   H1575     1.0  0.61105  0.01765  0.88696  1.0000
  C   C930      1.0  0.88046  0.19496  0.93802  1.0000
  H   H1576     1.0  0.87417  0.13062  0.95960  1.0000
  C   C931      1.0  0.67907  0.05399  0.91341  1.0000
  H   H1577     1.0  0.66683  0.06534  0.91639  1.0000
  C   C932      1.0  0.71869  0.03708  0.98928  1.0000
  H   H1578     1.0  0.91555  0.24609  0.86748  1.0000
  C   C933      1.0  0.86710  0.12687  0.93678  1.0000
  H   H1579     1.0  0.86567  0.23032  0.84819  1.0000
  H   H1580     1.0  0.90028  0.30440  0.88229  1.0000
  H   H1581     1.0  0.95823  0.19435  0.94443  1.0000
  C   C934      1.0  0.92564  0.26589  0.86257  1.0000
  C   C935      1.0  0.95387  0.17473  0.94935  1.0000
  H   H1582     1.0  0.85981  0.15221  0.95269  1.0000
  N   N65       1.0  0.90367  0.16746  0.95130  1.0000
  H   H1583     1.0  0.62309  0.04481  0.91759  1.0000
  C   C936      1.0  0.91024  0.29023  0.88042  1.0000
  H   H1584     1.0  0.84473  0.11494  0.93608  1.0000
  C   C937      1.0  0.67847  0.99574  0.75516  1.0000
  H   H1585     1.0  0.84424  0.23712  0.86009  1.0000
  H   H1586     1.0  0.94604  0.27525  0.86821  1.0000
  H   H1587     1.0  0.90327  0.25011  0.88892  1.0000
  H   H1588     1.0  0.92879  0.35038  0.85309  1.0000
  N   N66       1.0  0.91076  0.28405  0.86465  1.0000
  H   H1589     1.0  0.67454  0.01285  0.91053  1.0000
  H   H1590     1.0  0.66892  0.00913  0.75904  1.0000
  H   H1591     1.0  0.96623  0.16529  0.94404  1.0000
  H   H1592     1.0  0.92141  0.25914  0.97800  1.0000
  C   C938      1.0  0.61714  0.03515  0.89484  1.0000
  H   H1593     1.0  0.96098  0.17858  0.96078  1.0000
  Fe  Fe127     1.0  0.97737  0.24786  0.92457  1.0000
  H   H1594     1.0  0.65229  0.00777  0.77990  1.0000
  H   H1595     1.0  0.63724  0.05084  0.89232  1.0000
  C   C939      1.0  0.97378  0.24437  0.98988  1.0000
  H   H1596     1.0  0.69985  0.99831  0.85374  1.0000
  N   N67       1.0  0.63420  0.01068  0.91349  1.0000
  Fe  Fe128     1.0  0.71598  0.00031  0.89477  1.0000
  S   S263      1.0  0.75548  0.99563  0.89269  1.0000
  C   C940      1.0  0.61085  0.99544  0.93711  1.0000
  H   H1597     1.0  0.61592  0.99392  0.94855  1.0000
  H   H1598     1.0  0.62265  0.99344  0.78962  1.0000
  Fe  Fe129     1.0  0.71123  0.76269  0.02659  1.0000
  S   S264      1.0  0.74369  0.80479  0.03032  1.0000
  S   S265      1.0  0.68828  0.74524  0.00511  1.0000
  Fe  Fe130     1.0  0.71913  0.74594  0.05750  1.0000
  S   S266      1.0  0.75307  0.78712  0.06312  1.0000
  S   S267      1.0  0.70792  0.70688  0.07013  1.0000
  Fe  Fe131     1.0  0.72663  0.80472  0.05176  1.0000
  S   S268      1.0  0.72245  0.84168  0.06209  1.0000
  Fe  Fe132     1.0  0.76754  0.78439  0.04124  1.0000
  S   S269      1.0  0.81000  0.79632  0.03392  1.0000
  S   S270      1.0  0.69155  0.76363  0.04746  1.0000
  S   S271      1.0  0.73611  0.74219  0.03623  1.0000
  Fe  Fe133     1.0  0.93971  0.79552  0.06461  1.0000
  S   S272      1.0  0.90991  0.80880  0.07514  1.0000
  S   S273      1.0  0.92393  0.75823  0.04992  1.0000
  Fe  Fe134     1.0  0.86556  0.55720  0.14941  1.0000
  S   S274      1.0  0.90476  0.59347  0.15541  1.0000
  H   H1599     1.0  0.73647  0.79167  0.99680  1.0000
  Fe  Fe135     1.0  0.83154  0.58474  0.16185  1.0000
  S   S275      1.0  0.86793  0.62269  0.16892  1.0000
  S   S276      1.0  0.79036  0.57857  0.16941  1.0000
  Fe  Fe136     1.0  0.88342  0.61908  0.14710  1.0000
  S   S277      1.0  0.90240  0.65934  0.13542  1.0000
  Fe  Fe137     1.0  0.88595  0.59423  0.17655  1.0000
  S   S278      1.0  0.90801  0.59514  0.19797  1.0000
  S   S279      1.0  0.84528  0.58262  0.13971  1.0000
  S   S280      1.0  0.84855  0.55652  0.17083  1.0000
  Fe  Fe138     1.0  0.64061  0.61703  0.13876  1.0000
  S   S281      1.0  0.62374  0.57610  0.12693  1.0000
  S   S282      1.0  0.65183  0.65833  0.12844  1.0000
  Fe  Fe139     1.0  0.64469  0.59146  0.16784  1.0000
  S   S283      1.0  0.63030  0.54948  0.15738  1.0000
  S   S284      1.0  0.66014  0.59645  0.19122  1.0000
  Fe  Fe140     1.0  0.65673  0.56954  0.13954  1.0000
  S   S285      1.0  0.68691  0.55678  0.12880  1.0000
  Fe  Fe141     1.0  0.59847  0.55968  0.14605  1.0000
  H   H1600     1.0  0.87369  0.87020  0.05977  1.0000
  S   S286      1.0  0.67395  0.61063  0.15084  1.0000
  S   S287      1.0  0.61246  0.60157  0.15702  1.0000
  S   S288      1.0  0.75330  0.95831  0.03617  1.0000
  C   C941      1.0  0.64309  0.59604  0.20715  1.0000
  C   C942      1.0  0.65394  0.59104  0.22004  1.0000
  C   C943      1.0  0.74082  0.49708  0.14489  1.0000
  C   C944      1.0  0.60703  0.60076  0.22038  1.0000
  C   C945      1.0  0.61958  0.60103  0.20739  1.0000
  H   H1601     1.0  0.67224  0.58740  0.22000  1.0000
  H   H1602     1.0  0.61125  0.60535  0.19759  1.0000
  H   H1603     1.0  0.96103  0.57041  0.16233  1.0000
  C   C946      1.0  0.63907  0.68348  0.05113  1.0000
  H   H1604     1.0  0.81159  0.52698  0.12525  1.0000
  H   H1605     1.0  0.76857  0.51351  0.16991  1.0000
  H   H1606     1.0  0.67766  0.97502  0.10276  1.0000
  H   H1607     1.0  0.95185  0.54365  0.13716  1.0000
  H   H1608     1.0  0.98479  0.57506  0.20088  1.0000
  H   H1609     1.0  0.81340  0.74121  0.05374  1.0000
  C   C947      1.0  0.89408  0.59674  0.21477  1.0000
  C   C948      1.0  0.87190  0.60370  0.21592  1.0000
  H   H1610     1.0  0.66563  0.71506  0.03030  1.0000
  C   C949      1.0  0.90594  0.59156  0.22732  1.0000
  H   H1611     1.0  0.86270  0.60800  0.20641  1.0000
  H   H1612     1.0  0.92318  0.58628  0.22659  1.0000
  C   C950      1.0  0.76243  0.57335  0.15769  1.0000
  C   C951      1.0  0.76370  0.57096  0.14286  1.0000
  C   C952      1.0  0.74025  0.56525  0.13399  1.0000
  C   C953      1.0  0.71582  0.56266  0.13991  1.0000
  C   C954      1.0  0.71481  0.56548  0.15469  1.0000
  C   C955      1.0  0.73798  0.57060  0.16355  1.0000
  H   H1613     1.0  0.78254  0.57314  0.13828  1.0000
  H   H1614     1.0  0.74108  0.56313  0.12253  1.0000
  H   H1615     1.0  0.69608  0.56361  0.15934  1.0000
  H   H1616     1.0  0.73692  0.57251  0.17501  1.0000
  C   C956      1.0  0.92565  0.69052  0.09004  1.0000
  C   C957      1.0  0.91561  0.66247  0.09236  1.0000
  C   C958      1.0  0.90821  0.65245  0.10606  1.0000
  C   C959      1.0  0.91082  0.67040  0.11772  1.0000
  C   C960      1.0  0.92077  0.69846  0.11536  1.0000
  C   C961      1.0  0.92809  0.70845  0.10166  1.0000
  H   H1617     1.0  0.91359  0.64831  0.08350  1.0000
  H   H1618     1.0  0.90065  0.63085  0.10762  1.0000
  H   H1619     1.0  0.92275  0.71257  0.12423  1.0000
  H   H1620     1.0  0.93556  0.73000  0.10011  1.0000
  C   C962      1.0  0.83711  0.79920  0.04570  1.0000
  C   C963      1.0  0.86123  0.80055  0.03998  1.0000
  C   C964      1.0  0.88359  0.80338  0.04898  1.0000
  C   C965      1.0  0.88217  0.80562  0.06377  1.0000
  C   C966      1.0  0.85814  0.80460  0.06954  1.0000
  C   C967      1.0  0.83543  0.80093  0.06052  1.0000
  H   H1621     1.0  0.86259  0.79925  0.02852  1.0000
  H   H1622     1.0  0.90208  0.80424  0.04446  1.0000
  H   H1623     1.0  0.85699  0.80621  0.08100  1.0000
  H   H1624     1.0  0.81682  0.79975  0.06500  1.0000
  C   C968      1.0  0.73050  0.87374  0.05453  1.0000
  C   C969      1.0  0.72711  0.89454  0.06258  1.0000
  C   C970      1.0  0.73378  0.92049  0.05712  1.0000
  C   C971      1.0  0.74403  0.92593  0.04355  1.0000
  C   C972      1.0  0.74752  0.90516  0.03552  1.0000
  C   C973      1.0  0.74072  0.87919  0.04094  1.0000
  H   H1625     1.0  0.71922  0.89053  0.07310  1.0000
  H   H1626     1.0  0.73101  0.93624  0.06343  1.0000
  H   H1627     1.0  0.75548  0.90916  0.02502  1.0000
  H   H1628     1.0  0.74336  0.86339  0.03461  1.0000
  C   C974      1.0  0.69256  0.69407  0.08652  1.0000
  C   C975      1.0  0.68778  0.66716  0.08982  1.0000
  C   C976      1.0  0.67516  0.65579  0.10245  1.0000
  C   C977      1.0  0.66740  0.67131  0.11213  1.0000
  C   C978      1.0  0.67233  0.69824  0.10887  1.0000
  C   C979      1.0  0.68468  0.70952  0.09617  1.0000
  H   H1629     1.0  0.69360  0.65486  0.08246  1.0000
  H   H1630     1.0  0.67137  0.63502  0.10469  1.0000
  H   H1631     1.0  0.66640  0.71049  0.11622  1.0000
  H   H1632     1.0  0.68808  0.73018  0.09387  1.0000
  H   H1633     1.0  0.59684  0.65428  0.03431  1.0000
  H   H1634     1.0  0.53342  0.56170  0.18920  1.0000
  C   C980      1.0  0.80527  0.91607  0.06225  1.0000
  H   H1635     1.0  0.91220  0.49460  0.16315  1.0000
  H   H1636     1.0  0.95344  0.57628  0.19549  1.0000
  H   H1637     1.0  0.65725  0.70245  0.05442  1.0000
  H   H1638     1.0  0.62127  0.68873  0.05206  1.0000
  H   H1639     1.0  0.80319  0.87749  0.08044  1.0000
  H   H1640     1.0  0.60365  0.69338  0.02310  1.0000
  C   C981      1.0  0.74941  0.66305  0.15062  1.0000
  C   C982      1.0  0.74565  0.64156  0.16183  1.0000
  H   H1641     1.0  0.76602  0.68231  0.15500  1.0000
  H   H1642     1.0  0.76882  0.62485  0.14144  1.0000
  H   H1643     1.0  0.77961  0.63881  0.12487  1.0000
  H   H1644     1.0  0.76481  0.63941  0.16460  1.0000
  H   H1645     1.0  0.73904  0.64800  0.17185  1.0000
  H   H1646     1.0  0.72985  0.62138  0.15840  1.0000
  H   H1647     1.0  0.62011  0.62400  0.01469  1.0000
  H   H1648     1.0  0.62911  0.72497  0.01817  1.0000
  S   S289      1.0  0.86326  0.51839  0.13780  1.0000
  H   H1649     1.0  0.75805  0.58531  0.23936  1.0000
  H   H1650     1.0  0.59513  0.54985  0.19312  1.0000
  C   C983      1.0  0.93049  0.50272  0.17053  1.0000
  H   H1651     1.0  0.58889  0.60466  0.22046  1.0000
  C   C984      1.0  0.53997  0.52441  0.18800  1.0000
  Fe  Fe142     1.0  0.95098  0.74516  0.06391  1.0000
  S   S290      1.0  0.96541  0.78186  0.07894  1.0000
  S   S291      1.0  0.93482  0.70207  0.07249  1.0000
  C   C985      1.0  0.69887  0.97695  0.10204  1.0000
  H   H1652     1.0  0.77796  0.98792  0.00722  1.0000
  H   H1653     1.0  0.91333  0.53646  0.19898  1.0000
  C   C986      1.0  0.62401  0.70929  0.02631  1.0000
  H   H1654     1.0  0.67742  0.95174  0.00439  1.0000
  C   C987      1.0  0.77599  0.64432  0.13590  1.0000
  C   C988      1.0  0.80403  0.66335  0.14273  1.0000
  C   C989      1.0  0.69939  0.96368  0.00294  1.0000
  H   H1655     1.0  0.79137  0.70725  0.07324  1.0000
  H   H1656     1.0  0.73075  0.66714  0.15053  1.0000
  C   C990      1.0  0.64608  0.69800  0.02676  1.0000
  H   H1657     1.0  0.84091  0.85621  0.04225  1.0000
  H   H1658     1.0  0.86655  0.74691  0.06057  1.0000
  H   H1659     1.0  0.55957  0.56244  0.20164  1.0000
  H   H1660     1.0  0.81000  0.70728  0.05085  1.0000
  H   H1661     1.0  0.98113  0.58610  0.18354  1.0000
  C   C991      1.0  0.87472  0.72000  0.08056  1.0000
  Fe  Fe143     1.0  0.96048  0.78032  0.03710  1.0000
  C   C992      1.0  0.96039  0.54158  0.18594  1.0000
  H   H1662     1.0  0.73870  0.49629  0.13303  1.0000
  N   N68       1.0  0.64106  0.67420  0.03600  1.0000
  H   H1663     1.0  0.74276  0.94683  0.00543  1.0000
  H   H1664     1.0  0.61650  0.64475  0.06143  1.0000
  H   H1665     1.0  0.80904  0.49969  0.17025  1.0000
  H   H1666     1.0  0.86621  0.71104  0.04476  1.0000
  H   H1667     1.0  0.72183  0.61589  0.13517  1.0000
  H   H1668     1.0  0.80286  0.67051  0.15378  1.0000
  H   H1669     1.0  0.68169  0.67987  0.04339  1.0000
  C   C993      1.0  0.53279  0.49819  0.14562  1.0000
  H   H1670     1.0  0.87039  0.73334  0.10244  1.0000
  H   H1671     1.0  0.86531  0.91186  0.06032  1.0000
  C   C994      1.0  0.58764  0.52937  0.18774  1.0000
  H   H1672     1.0  0.62349  0.71976  0.03659  1.0000
  H   H1673     1.0  0.64895  0.69339  0.01551  1.0000
  H   H1674     1.0  0.62982  0.53478  0.18886  1.0000
  H   H1675     1.0  0.80567  0.83858  0.05666  1.0000
  C   C995      1.0  0.61487  0.65021  0.03170  1.0000
  C   C996      1.0  0.86212  0.60599  0.22942  1.0000
  N   N69       1.0  0.75476  0.65578  0.13569  1.0000
  H   H1676     1.0  0.79295  0.53295  0.14938  1.0000
  H   H1677     1.0  0.61268  0.63262  0.03823  1.0000
  S   S292      1.0  0.97412  0.81899  0.05105  1.0000
  C   C997      1.0  0.56989  0.52796  0.21841  1.0000
  C   C998      1.0  0.55058  0.55550  0.19072  1.0000
  C   C999      1.0  0.61098  0.63900  0.01608  1.0000
  C   C1000     1.0  0.80192  0.85719  0.05881  1.0000
  H   H1678     1.0  0.61894  0.65483  0.00822  1.0000
  H   H1679     1.0  0.58889  0.62866  0.01314  1.0000
  H   H1680     1.0  0.65316  0.65623  0.06302  1.0000
  H   H1681     1.0  0.70400  0.98548  0.00528  1.0000
  C   C1001     1.0  0.63617  0.66277  0.06268  1.0000
  H   H1682     1.0  0.80222  0.56258  0.21622  1.0000
  H   H1683     1.0  0.77370  0.84771  0.07594  1.0000
  C   C1002     1.0  0.64128  0.59051  0.23298  1.0000
  H   H1684     1.0  0.73560  0.60700  0.11330  1.0000
  C   C1003     1.0  0.72873  0.63448  0.12896  1.0000
  H   H1685     1.0  0.71157  0.64091  0.12944  1.0000
  H   H1686     1.0  0.81722  0.65198  0.14330  1.0000
  H   H1687     1.0  0.85424  0.89050  0.03715  1.0000
  H   H1688     1.0  0.81359  0.88242  0.02218  1.0000
  H   H1689     1.0  0.79503  0.84978  0.02970  1.0000
  H   H1690     1.0  0.76643  0.54955  0.21836  1.0000
  H   H1691     1.0  0.98732  0.71254  0.09555  1.0000
  H   H1692     1.0  0.88571  0.69725  0.05550  1.0000
  H   H1693     1.0  0.78115  0.69826  0.13357  1.0000
  N   N70       1.0  0.55928  0.51131  0.19165  1.0000
  H   H1694     1.0  0.56563  0.56641  0.18281  1.0000
  H   H1695     1.0  0.85391  0.49987  0.16693  1.0000
  C   C1004     1.0  0.61769  0.59527  0.23322  1.0000
  H   H1696     1.0  0.80844  0.51009  0.14798  1.0000
  H   H1697     1.0  0.70949  0.61812  0.10794  1.0000
  H   H1698     1.0  0.58907  0.54422  0.21542  1.0000
  S   S293      1.0  0.96291  0.79220  0.01374  1.0000
  H   H1699     1.0  0.81431  0.68112  0.13618  1.0000
  C   C1005     1.0  0.96253  0.77676  0.99666  1.0000
  H   H1700     1.0  0.69364  0.65852  0.02262  1.0000
  C   C1006     1.0  0.60965  0.51866  0.19098  1.0000
  H   H1701     1.0  0.92326  0.51928  0.14477  1.0000
  C   C1007     1.0  0.76460  0.68124  0.12737  1.0000
  H   H1702     1.0  0.73162  0.69417  0.13239  1.0000
  H   H1703     1.0  0.84386  0.90099  0.07454  1.0000
  H   H1704     1.0  0.61069  0.51398  0.20234  1.0000
  H   H1705     1.0  0.96962  0.75244  0.12331  1.0000
  C   C1008     1.0  0.97022  0.57148  0.19158  1.0000
  H   H1706     1.0  0.49785  0.50126  0.15462  1.0000
  C   C1009     1.0  0.81534  0.86474  0.02715  1.0000
  H   H1707     1.0  0.87715  0.88322  0.07776  1.0000
  H   H1708     1.0  0.92672  0.55376  0.14457  1.0000
  C   C1010     1.0  0.90083  0.52825  0.18892  1.0000
  H   H1709     1.0  0.79289  0.53661  0.23746  1.0000
  H   H1710     1.0  0.84714  0.85422  0.07193  1.0000
  H   H1711     1.0  0.66394  0.65604  0.01259  1.0000
  H   H1712     1.0  0.82070  0.92572  0.07110  1.0000
  C   C1011     1.0  0.74289  0.69183  0.12315  1.0000
  H   H1713     1.0  0.77411  0.67855  0.11744  1.0000
  C   C1012     1.0  0.93803  0.54074  0.14605  1.0000
  C   C1013     1.0  0.79036  0.51512  0.12820  1.0000
  C   C1014     1.0  0.72987  0.62463  0.11345  1.0000
  H   H1714     1.0  0.95629  0.49902  0.15356  1.0000
  H   H1715     1.0  0.88343  0.53422  0.18939  1.0000
  H   H1716     1.0  0.78629  0.90079  0.06626  1.0000
  H   H1717     1.0  0.98464  0.74194  0.08962  1.0000
  H   H1718     1.0  0.65919  0.64536  0.03961  1.0000
  C   C1015     1.0  0.79176  0.55677  0.23840  1.0000
  H   H1719     1.0  0.72828  0.67830  0.11474  1.0000
  H   H1720     1.0  0.74396  0.64063  0.10699  1.0000
  H   H1721     1.0  0.53350  0.52079  0.17644  1.0000
  H   H1722     1.0  0.70993  0.95669  0.01114  1.0000
  H   H1723     1.0  0.78269  0.85359  0.05257  1.0000
  H   H1724     1.0  0.55504  0.53668  0.22096  1.0000
  H   H1725     1.0  0.76033  0.94091  0.99126  1.0000
  H   H1726     1.0  0.79985  0.93235  0.05799  1.0000
  C   C1016     1.0  0.78642  0.56392  0.22312  1.0000
  C   C1017     1.0  0.55790  0.50420  0.20710  1.0000
  H   H1727     1.0  0.98089  0.76843  0.10705  1.0000
  C   C1018     1.0  0.84642  0.73476  0.06490  1.0000
  H   H1728     1.0  0.74421  0.51811  0.14850  1.0000
  H   H1729     1.0  0.68984  0.68889  0.01855  1.0000
  H   H1730     1.0  0.69943  0.96603  0.09189  1.0000
  H   H1731     1.0  0.82307  0.85467  0.01898  1.0000
  H   H1732     1.0  0.75173  0.98113  0.11986  1.0000
  H   H1733     1.0  0.84293  0.74906  0.07256  1.0000
  H   H1734     1.0  0.83543  0.73462  0.04211  1.0000
  H   H1735     1.0  0.75282  0.71213  0.11859  1.0000
  H   H1736     1.0  0.95169  0.52854  0.19504  1.0000
  H   H1737     1.0  0.77826  0.52638  0.12454  1.0000
  H   H1738     1.0  0.92316  0.56260  0.17646  1.0000
  H   H1739     1.0  0.78807  0.58508  0.22272  1.0000
  C   C1019     1.0  0.82510  0.72852  0.05228  1.0000
  C   C1020     1.0  0.81574  0.90382  0.05003  1.0000
  C   C1021     1.0  0.83531  0.87364  0.04037  1.0000
  H   H1740     1.0  0.69893  0.90863  0.99582  1.0000
  H   H1741     1.0  0.87612  0.75927  0.08952  1.0000
  H   H1742     1.0  0.60695  0.50077  0.18390  1.0000
  H   H1743     1.0  0.78274  0.68372  0.08695  1.0000
  N   N71       1.0  0.94060  0.53314  0.17312  1.0000
  H   H1744     1.0  0.82848  0.71838  0.09135  1.0000
  C   C1022     1.0  0.67847  0.66749  0.02147  1.0000
  C   C1023     1.0  0.79601  0.85729  0.07486  1.0000
  H   H1745     1.0  0.79016  0.67320  0.07011  1.0000
  H   H1746     1.0  0.84553  0.61223  0.23011  1.0000
  H   H1747     1.0  0.73478  0.53917  0.23528  1.0000
  C   C1024     1.0  0.86224  0.87391  0.06859  1.0000
  H   H1748     1.0  0.95122  0.73603  0.00353  1.0000
  C   C1025     1.0  0.79607  0.69085  0.07784  1.0000
  H   H1749     1.0  0.97439  0.54627  0.15901  1.0000
  H   H1750     1.0  0.84612  0.67054  0.06890  1.0000
  H   H1751     1.0  0.70410  0.96663  0.11095  1.0000
  C   C1026     1.0  0.84439  0.68716  0.06269  1.0000
  C   C1027     1.0  0.86517  0.69354  0.05098  1.0000
  C   C1028     1.0  0.88103  0.74209  0.09269  1.0000
  H   H1752     1.0  0.89147  0.72836  0.07316  1.0000
  C   C1029     1.0  0.84905  0.89348  0.06446  1.0000
  C   C1030     1.0  0.82593  0.70149  0.08350  1.0000
  H   H1753     1.0  0.82814  0.68519  0.08978  1.0000
  H   H1754     1.0  0.85912  0.67561  0.04337  1.0000
  N   N72       1.0  0.84735  0.71093  0.07261  1.0000
  C   C1031     1.0  0.91676  0.54018  0.17563  1.0000
  H   H1755     1.0  0.90313  0.75082  0.09566  1.0000
  C   C1032     1.0  0.71935  0.91067  0.99284  1.0000
  H   H1756     1.0  0.82407  0.67751  0.05719  1.0000
  H   H1757     1.0  0.80393  0.84419  0.08069  1.0000
  C   C1033     1.0  0.74023  0.94057  0.99393  1.0000
  H   H1758     1.0  0.87723  0.70239  0.08532  1.0000
  N   N73       1.0  0.82513  0.88186  0.05376  1.0000
  H   H1759     1.0  0.63660  0.67266  0.07333  1.0000
  S   S294      1.0  0.55306  0.53375  0.14838  1.0000
  C   C1034     1.0  0.66493  0.66627  0.03582  1.0000
  H   H1760     1.0  0.79862  0.89601  0.04184  1.0000
  H   H1761     1.0  0.90198  0.53326  0.16627  1.0000
  C   C1035     1.0  0.95482  0.54813  0.16047  1.0000
  H   H1762     1.0  0.89224  0.50573  0.18850  1.0000
  H   H1763     1.0  0.52090  0.51501  0.19375  1.0000
  H   H1764     1.0  0.72588  0.89894  0.00054  1.0000
  H   H1765     1.0  0.83238  0.92097  0.04521  1.0000
  C   C1036     1.0  0.78984  0.51265  0.14455  1.0000
  H   H1766     1.0  0.58758  0.53332  0.17617  1.0000
  H   H1767     1.0  0.78304  0.49513  0.12228  1.0000
  H   H1768     1.0  0.57565  0.52053  0.22837  1.0000
  H   H1769     1.0  0.96971  0.49873  0.17156  1.0000
  H   H1770     1.0  0.97897  0.53842  0.18354  1.0000
  C   C1037     1.0  0.95591  0.74893  0.99452  1.0000
  C   C1038     1.0  0.98803  0.76460  0.11758  1.0000
  S   S295      1.0  0.98638  0.76375  0.04958  1.0000
  Fe  Fe144     1.0  0.72702  0.76529  0.42197  1.0000
  S   S296      1.0  0.76893  0.79638  0.41858  1.0000
  S   S297      1.0  0.70453  0.76372  0.44246  1.0000
  Fe  Fe145     1.0  0.71932  0.74036  0.39064  1.0000
  S   S298      1.0  0.76087  0.77053  0.38517  1.0000
  S   S299      1.0  0.69038  0.70007  0.37867  1.0000
  Fe  Fe146     1.0  0.77544  0.76297  0.40662  1.0000
  S   S300      1.0  0.81004  0.75030  0.41098  1.0000
  Fe  Fe147     1.0  0.75116  0.80223  0.39751  1.0000
  S   S301      1.0  0.76745  0.84662  0.39144  1.0000
  S   S302      1.0  0.73479  0.73121  0.41161  1.0000
  S   S303      1.0  0.70850  0.77276  0.40143  1.0000
  S   S304      1.0  0.71440  0.93305  0.38919  1.0000
  Fe  Fe148     1.0  0.61780  0.58621  0.27048  1.0000
  S   S305      1.0  0.62558  0.54888  0.27344  1.0000
  S   S306      1.0  0.60082  0.59413  0.24927  1.0000
  Fe  Fe149     1.0  0.63860  0.60913  0.30180  1.0000
  S   S307      1.0  0.64725  0.57264  0.30663  1.0000
  S   S308      1.0  0.65494  0.65099  0.31410  1.0000
  Fe  Fe150     1.0  0.66470  0.57688  0.28502  1.0000
  S   S309      1.0  0.70690  0.58389  0.27858  1.0000
  Fe  Fe151     1.0  0.60672  0.54746  0.29467  1.0000
  C   C1039     1.0  0.78172  0.55255  0.26360  1.0000
  S   S310      1.0  0.65797  0.61421  0.28063  1.0000
  S   S311      1.0  0.59690  0.58390  0.29121  1.0000
  Fe  Fe152     1.0  0.86949  0.59580  0.28174  1.0000
  S   S312      1.0  0.84453  0.55490  0.29028  1.0000
  S   S313      1.0  0.86022  0.60389  0.25869  1.0000
  Fe  Fe153     1.0  0.89576  0.62042  0.31206  1.0000
  S   S314      1.0  0.87260  0.58096  0.32230  1.0000
  S   S315      1.0  0.92577  0.66077  0.32331  1.0000
  Fe  Fe154     1.0  0.88232  0.56038  0.30330  1.0000
  S   S316      1.0  0.90073  0.52907  0.30557  1.0000
  Fe  Fe155     1.0  0.83689  0.57881  0.30839  1.0000
  S   S317      1.0  0.79584  0.56695  0.31783  1.0000
  S   S318      1.0  0.90809  0.60024  0.29372  1.0000
  S   S319      1.0  0.85921  0.61936  0.29922  1.0000
  H   H1771     1.0  0.89145  0.71972  0.34334  1.0000
  Fe  Fe156     1.0  0.96238  0.79889  0.40002  1.0000
  S   S320      1.0  0.93017  0.81224  0.39117  1.0000
  S   S321      1.0  0.95016  0.76035  0.41156  1.0000
  C   C1040     1.0  0.95350  0.69648  0.36969  1.0000
  C   C1041     1.0  0.96126  0.71295  0.35797  1.0000
  C   C1042     1.0  0.95227  0.70172  0.34394  1.0000
  C   C1043     1.0  0.93496  0.67401  0.34136  1.0000
  C   C1044     1.0  0.92669  0.65765  0.35309  1.0000
  C   C1045     1.0  0.64178  0.96728  0.37398  1.0000
  H   H1772     1.0  0.73470  0.95903  0.42994  1.0000
  H   H1773     1.0  0.91330  0.63637  0.35135  1.0000
  C   C1046     1.0  0.75914  0.68138  0.33916  1.0000
  C   C1047     1.0  0.94025  0.59477  0.33291  1.0000
  H   H1774     1.0  0.65723  0.72503  0.39828  1.0000
  C   C1048     1.0  0.93626  0.66873  0.36710  1.0000
  C   C1049     1.0  0.73107  0.58034  0.29040  1.0000
  C   C1050     1.0  0.75865  0.59441  0.28789  1.0000
  C   C1051     1.0  0.77860  0.59027  0.29621  1.0000
  C   C1052     1.0  0.77110  0.57243  0.30732  1.0000
  C   C1053     1.0  0.74356  0.55921  0.31026  1.0000
  C   C1054     1.0  0.72350  0.56303  0.30176  1.0000
  H   H1775     1.0  0.76464  0.60857  0.27946  1.0000
  H   H1776     1.0  0.79978  0.60089  0.29401  1.0000
  H   H1777     1.0  0.73770  0.54545  0.31890  1.0000
  H   H1778     1.0  0.70223  0.55206  0.30374  1.0000
  H   H1779     1.0  0.63408  0.72063  0.41207  1.0000
  H   H1780     1.0  0.60320  0.95180  0.34479  1.0000
  H   H1781     1.0  0.61391  0.62497  0.40277  1.0000
  H   H1782     1.0  0.61246  0.98441  0.33736  1.0000
  H   H1783     1.0  0.75717  0.69640  0.34695  1.0000
  C   C1055     1.0  0.84229  0.76728  0.40414  1.0000
  C   C1056     1.0  0.86104  0.75566  0.40591  1.0000
  C   C1057     1.0  0.88777  0.76926  0.40182  1.0000
  C   C1058     1.0  0.89611  0.79452  0.39575  1.0000
  C   C1059     1.0  0.87703  0.80579  0.39344  1.0000
  C   C1060     1.0  0.85015  0.79225  0.39769  1.0000
  H   H1784     1.0  0.85501  0.73625  0.41078  1.0000
  H   H1785     1.0  0.90188  0.76011  0.40348  1.0000
  H   H1786     1.0  0.88319  0.82529  0.38866  1.0000
  H   H1787     1.0  0.83573  0.80137  0.39624  1.0000
  C   C1061     1.0  0.75220  0.87030  0.39215  1.0000
  C   C1062     1.0  0.76886  0.89817  0.39138  1.0000
  C   C1063     1.0  0.75765  0.91766  0.39093  1.0000
  C   C1064     1.0  0.72952  0.90943  0.39095  1.0000
  C   C1065     1.0  0.71283  0.88162  0.39197  1.0000
  C   C1066     1.0  0.72411  0.86216  0.39273  1.0000
  H   H1788     1.0  0.79058  0.90467  0.39084  1.0000
  H   H1789     1.0  0.77072  0.93893  0.39002  1.0000
  H   H1790     1.0  0.69104  0.87503  0.39199  1.0000
  H   H1791     1.0  0.71104  0.84079  0.39325  1.0000
  C   C1067     1.0  0.68268  0.68665  0.36055  1.0000
  C   C1068     1.0  0.69080  0.70306  0.34883  1.0000
  C   C1069     1.0  0.68248  0.69169  0.33476  1.0000
  C   C1070     1.0  0.66630  0.66369  0.33210  1.0000
  C   C1071     1.0  0.65898  0.64709  0.34378  1.0000
  C   C1072     1.0  0.66693  0.65854  0.35787  1.0000
  H   H1792     1.0  0.70282  0.72468  0.35063  1.0000
  H   H1793     1.0  0.68834  0.70484  0.32588  1.0000
  H   H1794     1.0  0.64642  0.62559  0.34200  1.0000
  H   H1795     1.0  0.66042  0.64557  0.36679  1.0000
  H   H1796     1.0  0.64103  0.65546  0.39805  1.0000
  H   H1797     1.0  0.74654  0.51494  0.24106  1.0000
  H   H1798     1.0  0.87753  0.76020  0.36988  1.0000
  H   H1799     1.0  0.91519  0.75382  0.38008  1.0000
  N   N74       1.0  0.88452  0.72365  0.36573  1.0000
  C   C1073     1.0  0.92869  0.76334  0.35885  1.0000
  H   H1800     1.0  0.93043  0.60856  0.32979  1.0000
  H   H1801     1.0  0.72898  0.51639  0.26535  1.0000
  C   C1074     1.0  0.73804  0.75483  0.46313  1.0000
  C   C1075     1.0  0.71557  0.76092  0.46024  1.0000
  C   C1076     1.0  0.70069  0.76384  0.47172  1.0000
  H   H1802     1.0  0.77941  0.68132  0.34141  1.0000
  H   H1803     1.0  0.93133  0.57729  0.32507  1.0000
  H   H1804     1.0  0.74965  0.75246  0.45443  1.0000
  H   H1805     1.0  0.68324  0.76849  0.46963  1.0000
  C   C1077     1.0  0.92986  0.58413  0.34760  1.0000
  C   C1078     1.0  0.97252  0.56155  0.33169  1.0000
  H   H1806     1.0  0.87272  0.74874  0.35166  1.0000
  C   C1079     1.0  0.78590  0.52603  0.26520  1.0000
  H   H1807     1.0  0.63528  0.64227  0.26314  1.0000
  H   H1808     1.0  0.75354  0.58265  0.25778  1.0000
  H   H1809     1.0  0.77109  0.50853  0.25866  1.0000
  H   H1810     1.0  0.76873  0.55433  0.27217  1.0000
  H   H1811     1.0  0.91865  0.77720  0.35653  1.0000
  H   H1812     1.0  0.77788  0.96730  0.44220  1.0000
  H   H1813     1.0  0.80673  0.52905  0.26237  1.0000
  H   H1814     1.0  0.88618  0.67328  0.37362  1.0000
  H   H1815     1.0  0.89946  0.69763  0.35381  1.0000
  H   H1816     1.0  0.70510  0.71088  0.43681  1.0000
  H   H1817     1.0  0.86083  0.66797  0.34119  1.0000
  N   N75       1.0  0.63993  0.68123  0.27243  1.0000
  H   H1818     1.0  0.85112  0.69357  0.37661  1.0000
  C   C1080     1.0  0.97304  0.78544  0.48030  1.0000
  H   H1819     1.0  0.73825  0.93502  0.41782  1.0000
  C   C1081     1.0  0.98556  0.59214  0.33662  1.0000
  N   N76       1.0  0.73259  0.63056  0.33029  1.0000
  C   C1082     1.0  0.72028  0.60364  0.33731  1.0000
  C   C1083     1.0  0.75903  0.63290  0.32433  1.0000
  C   C1084     1.0  0.71326  0.62958  0.31804  1.0000
  C   C1085     1.0  0.73607  0.65321  0.34118  1.0000
  C   C1086     1.0  0.69213  0.59653  0.34345  1.0000
  C   C1087     1.0  0.77927  0.62860  0.33494  1.0000
  H   H1820     1.0  0.71845  0.58657  0.32970  1.0000
  H   H1821     1.0  0.73359  0.60297  0.34648  1.0000
  H   H1822     1.0  0.76997  0.65285  0.31965  1.0000
  H   H1823     1.0  0.75507  0.61777  0.31526  1.0000
  H   H1824     1.0  0.70927  0.61156  0.31066  1.0000
  H   H1825     1.0  0.69320  0.62700  0.32192  1.0000
  H   H1826     1.0  0.71691  0.65628  0.34173  1.0000
  H   H1827     1.0  0.73991  0.64773  0.35214  1.0000
  H   H1828     1.0  0.67584  0.59105  0.33491  1.0000
  H   H1829     1.0  0.68699  0.57830  0.34989  1.0000
  H   H1830     1.0  0.69168  0.61314  0.35058  1.0000
  H   H1831     1.0  0.78105  0.63935  0.34545  1.0000
  H   H1832     1.0  0.77330  0.60656  0.33647  1.0000
  H   H1833     1.0  0.79967  0.63623  0.33043  1.0000
  H   H1834     1.0  0.94964  0.58212  0.30450  1.0000
  H   H1835     1.0  0.81259  0.57109  0.24212  1.0000
  H   H1836     1.0  0.91220  0.83302  0.47677  1.0000
  C   C1088     1.0  0.98250  0.77762  0.46786  1.0000
  C   C1089     1.0  0.72299  0.52575  0.25623  1.0000
  H   H1837     1.0  0.66870  0.95589  0.38833  1.0000
  H   H1838     1.0  0.97467  0.73425  0.35970  1.0000
  H   H1839     1.0  0.67655  0.92308  0.35447  1.0000
  S   S322      1.0  0.97566  0.78910  0.45120  1.0000
  H   H1840     1.0  0.87501  0.67445  0.39119  1.0000
  H   H1841     1.0  0.80315  0.60982  0.26350  1.0000
  H   H1842     1.0  0.71898  0.54326  0.26025  1.0000
  H   H1843     1.0  0.69005  0.96095  0.34064  1.0000
  H   H1844     1.0  0.71556  0.87685  0.45553  1.0000
  H   H1845     1.0  0.64083  0.93333  0.34253  1.0000
  C   C1090     1.0  0.78805  0.94326  0.42641  1.0000
  H   H1846     1.0  0.90804  0.57005  0.34625  1.0000
  H   H1847     1.0  0.97491  0.62838  0.35345  1.0000
  H   H1848     1.0  0.87452  0.71978  0.38787  1.0000
  C   C1091     1.0  0.88651  0.68729  0.38259  1.0000
  C   C1092     1.0  0.61919  0.66424  0.28255  1.0000
  C   C1093     1.0  0.85688  0.68390  0.34732  1.0000
  C   C1094     1.0  0.64596  0.98092  0.34938  1.0000
  H   H1849     1.0  0.90753  0.69867  0.38711  1.0000
  H   H1850     1.0  0.93010  0.65573  0.37603  1.0000
  Fe  Fe157     1.0  0.73574  0.97837  0.39565  1.0000
  H   H1851     1.0  0.58833  0.63434  0.26728  1.0000
  H   H1852     1.0  0.85548  0.80266  0.46354  1.0000
  N   N77       1.0  0.74366  0.92786  0.44008  1.0000
  H   H1853     1.0  0.71180  0.92036  0.45510  1.0000
  H   H1854     1.0  0.95898  0.71461  0.33499  1.0000
  C   C1095     1.0  0.73903  0.89839  0.43751  1.0000
  H   H1855     1.0  0.83393  0.72682  0.37599  1.0000
  C   C1096     1.0  0.64457  0.71031  0.40587  1.0000
  C   C1097     1.0  0.63276  0.64214  0.40705  1.0000
  C   C1098     1.0  0.72192  0.65465  0.30889  1.0000
  C   C1099     1.0  0.66933  0.67188  0.43326  1.0000
  C   C1100     1.0  0.73013  0.93700  0.42826  1.0000
  H   H1856     1.0  0.75846  0.68900  0.32843  1.0000
  H   H1857     1.0  0.84415  0.67301  0.35598  1.0000
  Fe  Fe158     1.0  0.98424  0.78398  0.42767  1.0000
  C   C1101     1.0  0.69245  0.69326  0.44284  1.0000
  H   H1858     1.0  0.75653  0.89463  0.44201  1.0000
  H   H1859     1.0  0.74218  0.66022  0.30454  1.0000
  H   H1860     1.0  0.65972  0.91727  0.37098  1.0000
  C   C1102     1.0  0.64164  0.93477  0.35442  1.0000
  H   H1861     1.0  0.68819  0.92113  0.43584  1.0000
  C   C1103     1.0  0.68393  0.97614  0.36190  1.0000
  C   C1104     1.0  0.66312  0.70155  0.41550  1.0000
  H   H1862     1.0  0.78248  0.95305  0.41739  1.0000
  C   C1105     1.0  0.86944  0.74141  0.36270  1.0000
  H   H1863     1.0  0.73637  0.92816  0.47702  1.0000
  H   H1864     1.0  0.65900  0.65390  0.43974  1.0000
  H   H1865     1.0  0.90513  0.58933  0.25037  1.0000
  H   H1866     1.0  0.69358  0.90097  0.42117  1.0000
  C   C1106     1.0  0.97108  0.59699  0.30525  1.0000
  H   H1867     1.0  0.93148  0.75355  0.34882  1.0000
  H   H1868     1.0  0.62013  0.92425  0.35735  1.0000
  H   H1869     1.0  0.62952  0.69312  0.39919  1.0000
  H   H1870     1.0  0.92616  0.73051  0.37176  1.0000
  H   H1871     1.0  0.73491  0.95461  0.45488  1.0000
  C   C1107     1.0  0.88432  0.70668  0.35260  1.0000
  H   H1872     1.0  0.94935  0.77643  0.36338  1.0000
  H   H1873     1.0  0.94068  0.57262  0.35243  1.0000
  H   H1874     1.0  0.96626  0.63199  0.31434  1.0000
  H   H1875     1.0  0.69115  0.96426  0.36911  1.0000
  H   H1876     1.0  0.84529  0.69191  0.34019  1.0000
  C   C1108     1.0  0.83851  0.72897  0.36451  1.0000
  H   H1877     1.0  0.96817  0.64675  0.33954  1.0000
  H   H1878     1.0  0.97498  0.60694  0.29488  1.0000
  H   H1879     1.0  0.93206  0.84730  0.46215  1.0000
  H   H1880     1.0  0.95704  0.55588  0.32278  1.0000
  C   C1109     1.0  0.91372  0.74226  0.36982  1.0000
  H   H1881     1.0  0.65034  0.74521  0.26071  1.0000
  H   H1882     1.0  0.61271  0.69558  0.26152  1.0000
  C   C1110     1.0  0.63899  0.66293  0.25968  1.0000
  H   H1883     1.0  0.64426  0.89554  0.35558  1.0000
  H   H1884     1.0  0.64107  0.95940  0.39652  1.0000
  N   N78       1.0  0.89442  0.79073  0.44607  1.0000
  C   C1111     1.0  0.90365  0.76942  0.44050  1.0000
  C   C1112     1.0  0.89964  0.81156  0.43487  1.0000
  C   C1113     1.0  0.86422  0.77650  0.44780  1.0000
  C   C1114     1.0  0.90966  0.80286  0.46015  1.0000
  C   C1115     1.0  0.90023  0.74591  0.45035  1.0000
  C   C1116     1.0  0.92927  0.82542  0.43043  1.0000
  C   C1117     1.0  0.84942  0.79432  0.45240  1.0000
  C   C1118     1.0  0.91213  0.83157  0.46493  1.0000
  H   H1885     1.0  0.89297  0.76009  0.43011  1.0000
  H   H1886     1.0  0.92551  0.77860  0.43833  1.0000
  H   H1887     1.0  0.89358  0.82811  0.43813  1.0000
  H   H1888     1.0  0.88670  0.80217  0.42504  1.0000
  H   H1889     1.0  0.85372  0.76536  0.43759  1.0000
  H   H1890     1.0  0.85971  0.76086  0.45591  1.0000
  H   H1891     1.0  0.90057  0.78902  0.46891  1.0000
  H   H1892     1.0  0.93096  0.80468  0.45971  1.0000
  H   H1893     1.0  0.87860  0.73222  0.45140  1.0000
  H   H1894     1.0  0.90997  0.73328  0.44548  1.0000
  H   H1895     1.0  0.91065  0.75332  0.46101  1.0000
  H   H1896     1.0  0.58074  0.66305  0.27274  1.0000
  C   C1119     1.0  0.87386  0.60075  0.24199  1.0000
  H   H1897     1.0  0.53271  0.51620  0.29100  1.0000
  C   C1120     1.0  0.64708  0.95211  0.38656  1.0000
  H   H1898     1.0  0.69253  0.71799  0.29794  1.0000
  H   H1899     1.0  0.85181  0.81065  0.44497  1.0000
  H   H1900     1.0  0.69455  0.87844  0.44054  1.0000
  H   H1901     1.0  0.89565  0.83701  0.46088  1.0000
  C   C1121     1.0  0.65655  0.91703  0.35927  1.0000
  H   H1902     1.0  0.62159  0.66005  0.25208  1.0000
  C   C1122     1.0  0.65237  0.72567  0.25881  1.0000
  C   C1123     1.0  0.71361  0.87660  0.44372  1.0000
  C   C1124     1.0  0.63230  0.70393  0.26796  1.0000
  H   H1903     1.0  0.93437  0.81166  0.42322  1.0000
  C   C1125     1.0  0.67161  0.71179  0.29318  1.0000
  C   C1126     1.0  0.73044  0.75440  0.48882  1.0000
  N   N79       1.0  0.65339  0.96415  0.35997  1.0000
  H   H1904     1.0  0.76818  0.94826  0.46991  1.0000
  H   H1905     1.0  0.61787  0.67682  0.29188  1.0000
  H   H1906     1.0  0.61670  0.64123  0.42762  1.0000
  H   H1907     1.0  0.71148  0.85615  0.43970  1.0000
  H   H1908     1.0  0.78404  0.92196  0.42312  1.0000
  H   H1909     1.0  0.82726  0.78132  0.45219  1.0000
  C   C1127     1.0  0.77377  0.94542  0.44011  1.0000
  H   H1910     1.0  0.93174  0.84345  0.42423  1.0000
  H   H1911     1.0  0.67949  0.66479  0.42492  1.0000
  H   H1912     1.0  0.70728  0.64985  0.29953  1.0000
  C   C1128     1.0  0.63832  0.69499  0.43739  1.0000
  C   C1129     1.0  0.87310  0.70652  0.37830  1.0000
  H   H1913     1.0  0.68422  0.70188  0.27334  1.0000
  Fe  Fe159     1.0  0.98047  0.75263  0.39823  1.0000
  H   H1914     1.0  0.76255  0.74655  0.47936  1.0000
  H   H1915     1.0  0.68501  0.70056  0.45226  1.0000
  H   H1916     1.0  0.70609  0.68400  0.44699  1.0000
  H   H1917     1.0  0.72057  0.67215  0.31482  1.0000
  C   C1130     1.0  0.62553  0.67815  0.45029  1.0000
  H   H1918     1.0  0.60892  0.66239  0.41591  1.0000
  H   H1919     1.0  0.96193  0.79815  0.47950  1.0000
  H   H1920     1.0  0.60670  0.66005  0.44707  1.0000
  H   H1921     1.0  0.61974  0.69099  0.45783  1.0000
  H   H1922     1.0  0.63982  0.67185  0.45634  1.0000
  H   H1923     1.0  0.67861  0.72057  0.42074  1.0000
  H   H1924     1.0  0.70342  0.51031  0.25149  1.0000
  C   C1131     1.0  0.73363  0.93341  0.45414  1.0000
  N   N80       1.0  0.97064  0.60930  0.33220  1.0000
  N   N81       1.0  0.64911  0.68132  0.42647  1.0000
  H   H1925     1.0  0.69174  0.93252  0.41817  1.0000
  H   H1926     1.0  0.64718  0.63328  0.41045  1.0000
  H   H1927     1.0  0.65446  0.71474  0.44157  1.0000
  H   H1928     1.0  0.82783  0.70918  0.35857  1.0000
  H   H1929     1.0  0.68116  0.66821  0.25691  1.0000
  H   H1930     1.0  0.82991  0.74311  0.36043  1.0000
  C   C1132     1.0  0.74528  0.75144  0.47731  1.0000
  H   H1931     1.0  0.73808  0.89324  0.42583  1.0000
  C   C1133     1.0  0.62575  0.65688  0.41965  1.0000
  C   C1134     1.0  0.61538  0.97390  0.34687  1.0000
  C   C1135     1.0  0.69912  0.92171  0.42601  1.0000
  C   C1136     1.0  0.66735  0.69155  0.28036  1.0000
  H   H1932     1.0  0.81035  0.95437  0.42842  1.0000
  S   S323      1.0  0.96499  0.70930  0.38766  1.0000
  H   H1933     1.0  0.62233  0.70047  0.43243  1.0000
  H   H1934     1.0  0.94414  0.83231  0.43971  1.0000
  H   H1935     1.0  0.67458  0.69362  0.40837  1.0000
  H   H1936     1.0  0.62529  0.64855  0.28708  1.0000
  H   H1937     1.0  0.67131  0.67416  0.28436  1.0000
  H   H1938     1.0  0.72062  0.98222  0.35077  1.0000
  H   H1939     1.0  0.84242  0.49391  0.30323  1.0000
  N   N82       1.0  0.77143  0.55645  0.24907  1.0000
  H   H1940     1.0  0.78495  0.94015  0.44885  1.0000
  H   H1941     1.0  0.67393  0.73044  0.26161  1.0000
  H   H1942     1.0  0.75339  0.91167  0.46675  1.0000
  H   H1943     1.0  0.80191  0.56922  0.26657  1.0000
  H   H1944     1.0  0.96353  0.54873  0.34079  1.0000
  C   C1137     1.0  0.58981  0.64896  0.27620  1.0000
  H   H1945     1.0  0.65772  0.70258  0.30181  1.0000
  H   H1946     1.0  0.62792  0.71445  0.27733  1.0000
  S   S324      1.0  0.57891  0.50554  0.30233  1.0000
  C   C1138     1.0  0.74891  0.92998  0.46764  1.0000
  H   H1947     1.0  0.66971  0.73057  0.28993  1.0000
  H   H1948     1.0  0.63434  0.92995  0.38524  1.0000
  H   H1949     1.0  0.65345  0.97903  0.33867  1.0000
  C   C1139     1.0  0.70817  0.76082  0.48594  1.0000
  H   H1950     1.0  0.61932  0.95987  0.37287  1.0000
  H   H1951     1.0  0.57701  0.63673  0.28462  1.0000
  H   H1952     1.0  0.93114  0.60091  0.35516  1.0000
  C   C1140     1.0  0.89577  0.59332  0.24084  1.0000
  C   C1141     1.0  0.76784  0.58281  0.24953  1.0000
  C   C1142     1.0  0.69932  0.97913  0.34805  1.0000
  C   C1143     1.0  0.79390  0.60899  0.25266  1.0000
  H   H1953     1.0  0.64950  0.98923  0.37749  1.0000
  H   H1954     1.0  0.60743  0.98165  0.35595  1.0000
  C   C1144     1.0  0.74429  0.53372  0.24472  1.0000
  H   H1955     1.0  0.78858  0.62683  0.25224  1.0000
  H   H1956     1.0  0.64794  0.71955  0.24726  1.0000
  C   C1145     1.0  0.97720  0.61904  0.31732  1.0000
  H   H1957     1.0  0.80927  0.61175  0.24465  1.0000
  H   H1958     1.0  0.78299  0.52003  0.27646  1.0000
  H   H1959     1.0  0.64980  0.58636  0.24277  1.0000
  C   C1146     1.0  0.97957  0.63420  0.34226  1.0000
  C   C1147     1.0  0.52524  0.49510  0.29369  1.0000
  H   H1960     1.0  0.98474  0.58628  0.30628  1.0000
  C   C1148     1.0  0.66451  0.67108  0.25089  1.0000
  H   H1961     1.0  0.67178  0.69205  0.24727  1.0000
  S   S325      1.0  0.71041  0.99302  0.40925  1.0000
  H   H1962     1.0  0.65949  0.65723  0.24116  1.0000
  H   H1963     1.0  0.98793  0.59273  0.34850  1.0000
  C   C1149     1.0  0.84336  0.70864  0.52705  1.0000
  S   S326      1.0  0.67596  0.96886  0.57046  1.0000
  H   H1964     1.0  0.55740  0.79942  0.61716  1.0000
  Fe  Fe160     1.0  0.94918  0.77467  0.55211  1.0000
  S   S327      1.0  0.91422  0.78825  0.54926  1.0000
  S   S328      1.0  0.95118  0.73473  0.54583  1.0000
  Fe  Fe161     1.0  0.73309  0.79707  0.55398  1.0000
  S   S329      1.0  0.69821  0.76758  0.53986  1.0000
  S   S330      1.0  0.73101  0.83531  0.56353  1.0000
  Fe  Fe162     1.0  0.75947  0.75674  0.55765  1.0000
  S   S331      1.0  0.72553  0.72458  0.54433  1.0000
  S   S332      1.0  0.79111  0.74324  0.56745  1.0000
  Fe  Fe163     1.0  0.73030  0.75768  0.52914  1.0000
  S   S333      1.0  0.73994  0.74847  0.50637  1.0000
  Fe  Fe164     1.0  0.69675  0.73738  0.55635  1.0000
  S   S334      1.0  0.65679  0.70666  0.56483  1.0000
  S   S335      1.0  0.76546  0.78957  0.54227  1.0000
  S   S336      1.0  0.73038  0.76706  0.57069  1.0000
  Fe  Fe165     1.0  0.52595  0.89917  0.64691  1.0000
  S   S337      1.0  0.55319  0.94203  0.65442  1.0000
  H   H1965     1.0  0.64232  0.93381  0.52195  1.0000
  Fe  Fe166     1.0  0.57053  0.87908  0.65319  1.0000
  S   S338      1.0  0.59994  0.92042  0.66172  1.0000
  S   S339      1.0  0.58852  0.84770  0.65282  1.0000
  Fe  Fe167     1.0  0.56469  0.92240  0.67303  1.0000
  S   S340      1.0  0.56519  0.94016  0.69569  1.0000
  Fe  Fe168     1.0  0.58615  0.93589  0.64226  1.0000
  S   S341      1.0  0.62002  0.96822  0.63010  1.0000
  S   S342      1.0  0.53626  0.87977  0.66589  1.0000
  S   S343      1.0  0.55792  0.89429  0.63337  1.0000
  Fe  Fe169     1.0  0.54489  0.65434  0.66810  1.0000
  H   H1966     1.0  0.56135  0.77921  0.72893  1.0000
  S   S344      1.0  0.55099  0.64010  0.69019  1.0000
  Fe  Fe170     1.0  0.56879  0.67017  0.63831  1.0000
  S   S345      1.0  0.52868  0.66730  0.62910  1.0000
  S   S346      1.0  0.60966  0.69008  0.62738  1.0000
  Fe  Fe171     1.0  0.52693  0.68981  0.64927  1.0000
  S   S347      1.0  0.51073  0.72227  0.64707  1.0000
  S   S348      1.0  0.50388  0.65175  0.66064  1.0000
  C   C1150     1.0  0.80054  0.70328  0.50579  1.0000
  S   S349      1.0  0.56772  0.69448  0.65826  1.0000
  S   S350      1.0  0.54905  0.62987  0.64893  1.0000
  S   S351      1.0  0.77446  0.94986  0.53526  1.0000
  C   C1151     1.0  0.54566  0.65195  0.70726  1.0000
  C   C1152     1.0  0.54110  0.67559  0.70913  1.0000
  H   H1967     1.0  0.96584  0.71289  0.63960  1.0000
  H   H1968     1.0  0.94098  0.89923  0.58752  1.0000
  C   C1153     1.0  0.54619  0.63719  0.71931  1.0000
  H   H1969     1.0  0.54065  0.68718  0.69998  1.0000
  H   H1970     1.0  0.54979  0.61893  0.71800  1.0000
  C   C1154     1.0  0.56157  0.92346  0.71205  1.0000
  C   C1155     1.0  0.55816  0.93648  0.72462  1.0000
  C   C1156     1.0  0.56131  0.88630  0.72627  1.0000
  C   C1157     1.0  0.56264  0.89804  0.71292  1.0000
  H   H1971     1.0  0.55725  0.95613  0.72407  1.0000
  H   H1972     1.0  0.56528  0.88777  0.70337  1.0000
  C   C1158     1.0  0.63518  0.96802  0.61341  1.0000
  C   C1159     1.0  0.62261  0.94785  0.60254  1.0000
  C   C1160     1.0  0.63543  0.94854  0.58957  1.0000
  H   H1973     1.0  0.60287  0.93187  0.60409  1.0000
  H   H1974     1.0  0.62539  0.93282  0.58129  1.0000
  C   C1161     1.0  0.56622  0.81305  0.65232  1.0000
  C   C1162     1.0  0.57643  0.79365  0.65567  1.0000
  C   C1163     1.0  0.55944  0.76570  0.65448  1.0000
  C   C1164     1.0  0.53222  0.75707  0.64977  1.0000
  C   C1165     1.0  0.52193  0.77651  0.64668  1.0000
  C   C1166     1.0  0.53885  0.80444  0.64798  1.0000
  H   H1975     1.0  0.59757  0.80023  0.65913  1.0000
  H   H1976     1.0  0.56747  0.75088  0.65702  1.0000
  H   H1977     1.0  0.73382  0.67270  0.58033  1.0000
  H   H1978     1.0  0.53081  0.81927  0.64539  1.0000
  C   C1167     1.0  0.96123  0.85029  0.56204  1.0000
  H   H1979     1.0  0.94139  0.84014  0.56694  1.0000
  C   C1168     1.0  0.53854  0.67002  0.73500  1.0000
  C   C1169     1.0  0.74251  0.86654  0.55507  1.0000
  C   C1170     1.0  0.75883  0.87137  0.54333  1.0000
  C   C1171     1.0  0.76850  0.89701  0.53729  1.0000
  C   C1172     1.0  0.76151  0.91772  0.54280  1.0000
  C   C1173     1.0  0.74489  0.91275  0.55440  1.0000
  C   C1174     1.0  0.73562  0.88732  0.56058  1.0000
  H   H1980     1.0  0.76427  0.85550  0.53904  1.0000
  H   H1981     1.0  0.78132  0.90075  0.52830  1.0000
  H   H1982     1.0  0.73942  0.92859  0.55872  1.0000
  H   H1983     1.0  0.72304  0.88370  0.56967  1.0000
  C   C1175     1.0  0.64276  0.70417  0.58200  1.0000
  C   C1176     1.0  0.61743  0.68284  0.58419  1.0000
  C   C1177     1.0  0.60647  0.67875  0.59784  1.0000
  C   C1178     1.0  0.62103  0.69560  0.60962  1.0000
  C   C1179     1.0  0.64616  0.71721  0.60738  1.0000
  C   C1180     1.0  0.65668  0.72183  0.59365  1.0000
  H   H1984     1.0  0.60635  0.66907  0.57528  1.0000
  H   H1985     1.0  0.58717  0.66201  0.59931  1.0000
  H   H1986     1.0  0.65760  0.73049  0.61637  1.0000
  H   H1987     1.0  0.67587  0.73866  0.59213  1.0000
  C   C1181     1.0  0.88058  0.77584  0.55519  1.0000
  C   C1182     1.0  0.86900  0.75176  0.56241  1.0000
  C   C1183     1.0  0.84174  0.74226  0.56629  1.0000
  C   C1184     1.0  0.82568  0.75654  0.56288  1.0000
  C   C1185     1.0  0.83735  0.78073  0.55576  1.0000
  C   C1186     1.0  0.86466  0.79037  0.55202  1.0000
  H   H1988     1.0  0.88098  0.74036  0.56493  1.0000
  H   H1989     1.0  0.83296  0.72357  0.57183  1.0000
  H   H1990     1.0  0.82535  0.79206  0.55316  1.0000
  H   H1991     1.0  0.87340  0.80906  0.54647  1.0000
  C   C1187     1.0  0.68077  0.67403  0.61894  1.0000
  H   H1992     1.0  0.77958  0.67945  0.53018  1.0000
  C   C1188     1.0  0.53502  0.71486  0.60005  1.0000
  H   H1993     1.0  0.73863  0.64293  0.60275  1.0000
  N   N83       1.0  0.80920  0.72726  0.51642  1.0000
  H   H1994     1.0  0.51249  0.90455  0.68577  1.0000
  H   H1995     1.0  0.65667  0.96715  0.54133  1.0000
  H   H1996     1.0  0.97198  0.71507  0.66393  1.0000
  H   H1997     1.0  0.82946  0.98253  0.55553  1.0000
  H   H1998     1.0  0.85333  0.74524  0.51617  1.0000
  C   C1189     1.0  0.60721  0.99205  0.51236  1.0000
  S   S352      1.0  0.98455  0.79950  0.53904  1.0000
  H   H1999     1.0  0.96784  0.68047  0.63659  1.0000
  H   H2000     1.0  0.73419  0.75294  0.60126  1.0000
  H   H2001     1.0  0.52223  0.72614  0.59780  1.0000
  H   H2002     1.0  0.80045  0.68483  0.51072  1.0000
  H   H2003     1.0  0.51551  0.58452  0.68404  1.0000
  H   H2004     1.0  0.54363  0.71104  0.59009  1.0000
  H   H2005     1.0  0.81554  0.70751  0.49733  1.0000
  H   H2006     1.0  0.70664  0.73049  0.61048  1.0000
  H   H2007     1.0  0.74099  0.73273  0.61403  1.0000
  C   C1190     1.0  0.98545  0.64642  0.64971  1.0000
  H   H2008     1.0  0.96411  0.64217  0.64646  1.0000
  C   C1191     1.0  0.84622  0.97951  0.52901  1.0000
  H   H2009     1.0  0.77114  0.71029  0.49116  1.0000
  H   H2010     1.0  0.75409  0.69164  0.60441  1.0000
  H   H2011     1.0  0.49214  0.59788  0.70109  1.0000
  C   C1192     1.0  0.97105  0.69510  0.65972  1.0000
  H   H2012     1.0  0.58597  0.97894  0.50858  1.0000
  H   H2013     1.0  0.79144  0.74920  0.50346  1.0000
  H   H2014     1.0  0.60685  0.84141  0.62131  1.0000
  C   C1193     1.0  0.97423  0.89133  0.57896  1.0000
  H   H2015     1.0  0.53481  0.74705  0.73181  1.0000
  H   H2016     1.0  0.75589  0.68974  0.50601  1.0000
  H   H2017     1.0  0.49191  0.61751  0.68630  1.0000
  C   C1194     1.0  0.78874  0.72332  0.52763  1.0000
  C   C1195     1.0  0.72068  0.71097  0.59348  1.0000
  H   H2018     1.0  0.59311  0.97182  0.53194  1.0000
  C   C1196     1.0  0.95585  0.86245  0.54819  1.0000
  N   N84       1.0  0.71234  0.68182  0.59749  1.0000
  C   C1197     1.0  0.97790  0.77704  0.49382  1.0000
  H   H2019     1.0  0.97174  0.86469  0.54051  1.0000
  H   H2020     1.0  0.62067  0.95044  0.54006  1.0000
  H   H2021     1.0  0.49977  0.58488  0.66681  1.0000
  H   H2022     1.0  0.83186  0.96364  0.53546  1.0000
  H   H2023     1.0  0.53459  0.70309  0.72423  1.0000
  H   H2024     1.0  0.65639  0.96571  0.51403  1.0000
  C   C1198     1.0  0.55853  0.89958  0.73889  1.0000
  C   C1199     1.0  0.63917  0.95268  0.52025  1.0000
  C   C1200     1.0  0.81148  0.75173  0.50821  1.0000
  H   H2025     1.0  0.97221  0.69457  0.68879  1.0000
  N   N85       1.0  0.57905  0.75643  0.60810  1.0000
  C   C1201     1.0  0.59704  0.75060  0.59775  1.0000
  C   C1202     1.0  0.55727  0.72959  0.61189  1.0000
  C   C1203     1.0  0.59487  0.77130  0.62153  1.0000
  C   C1204     1.0  0.56705  0.77417  0.60116  1.0000
  C   C1205     1.0  0.62363  0.77483  0.59458  1.0000
  C   C1206     1.0  0.63832  0.96576  0.53495  1.0000
  C   C1207     1.0  0.60907  0.75639  0.63007  1.0000
  C   C1208     1.0  0.54673  0.78099  0.61000  1.0000
  H   H2026     1.0  0.60281  0.73423  0.60151  1.0000
  H   H2027     1.0  0.58588  0.74246  0.58727  1.0000
  H   H2028     1.0  0.54708  0.73176  0.62168  1.0000
  H   H2029     1.0  0.56640  0.71510  0.61478  1.0000
  H   H2030     1.0  0.61030  0.79183  0.61931  1.0000
  H   H2031     1.0  0.58123  0.77535  0.62892  1.0000
  H   H2032     1.0  0.58334  0.79415  0.59887  1.0000
  H   H2033     1.0  0.55736  0.76566  0.59040  1.0000
  H   H2034     1.0  0.61995  0.79189  0.59010  1.0000
  H   H2035     1.0  0.63784  0.78214  0.60412  1.0000
  H   H2036     1.0  0.63422  0.76789  0.58642  1.0000
  H   H2037     1.0  0.84333  0.78488  0.52159  1.0000
  H   H2038     1.0  0.80880  0.77980  0.52520  1.0000
  H   H2039     1.0  0.95979  0.84916  0.60036  1.0000
  H   H2040     1.0  0.62359  0.75160  0.62370  1.0000
  H   H2041     1.0  0.59413  0.73745  0.63436  1.0000
  H   H2042     1.0  0.62072  0.76963  0.63944  1.0000
  Fe  Fe172     1.0  0.98793  0.76016  0.53387  1.0000
  C   C1209     1.0  0.49947  0.57218  0.67591  1.0000
  C   C1210     1.0  0.73035  0.65144  0.61139  1.0000
  C   C1211     1.0  0.77214  0.69468  0.49829  1.0000
  H   H2043     1.0  0.65881  0.66731  0.62086  1.0000
  H   H2044     1.0  0.51737  0.94897  0.67807  1.0000
  H   H2045     1.0  0.53425  0.76429  0.61666  1.0000
  S   S353      1.0  0.71338  0.97285  0.53650  1.0000
  H   H2046     1.0  0.97989  0.65376  0.67147  1.0000
  C   C1212     1.0  0.78102  0.69776  0.53640  1.0000
  H   H2047     1.0  0.59182  0.86590  0.62286  1.0000
  H   H2048     1.0  0.97049  0.78322  0.50326  1.0000
  H   H2049     1.0  0.84051  0.74595  0.53321  1.0000
  H   H2050     1.0  0.79626  0.74073  0.53563  1.0000
  C   C1213     1.0  0.96580  0.83651  0.59288  1.0000
  H   H2051     1.0  0.61956  0.94627  0.51402  1.0000
  H   H2052     1.0  0.70898  0.63734  0.61282  1.0000
  H   H2053     1.0  0.49000  0.86053  0.69322  1.0000
  H   H2054     1.0  0.93616  0.84826  0.54294  1.0000
  H   H2055     1.0  0.86311  0.71629  0.53334  1.0000
  H   H2056     1.0  0.79538  0.70165  0.54582  1.0000
  C   C1214     1.0  0.96079  0.69248  0.64387  1.0000
  H   H2057     1.0  0.74240  0.65230  0.62138  1.0000
  H   H2058     1.0  0.73300  0.69068  0.61856  1.0000
  C   C1215     1.0  0.71276  0.66566  0.58411  1.0000
  C   C1216     1.0  0.55140  0.76489  0.73733  1.0000
  H   H2059     1.0  0.62038  0.98495  0.50622  1.0000
  C   C1217     1.0  0.68390  0.67016  0.60281  1.0000
  C   C1218     1.0  0.69423  0.66637  0.57136  1.0000
  C   C1219     1.0  0.50092  0.93824  0.68532  1.0000
  H   H2060     1.0  0.68815  0.66129  0.62539  1.0000
  H   H2061     1.0  0.95491  0.67931  0.66555  1.0000
  H   H2062     1.0  0.70621  0.64373  0.58619  1.0000
  C   C1220     1.0  0.53769  0.68458  0.72292  1.0000
  H   H2063     1.0  0.69090  0.69535  0.62309  1.0000
  H   H2064     1.0  0.76036  0.69234  0.54031  1.0000
  H   H2065     1.0  0.59714  0.98061  0.55661  1.0000
  H   H2066     1.0  0.67090  0.67847  0.59702  1.0000
  H   H2067     1.0  0.67368  0.64779  0.60036  1.0000
  H   H2068     1.0  0.69400  0.65163  0.56276  1.0000
  H   H2069     1.0  0.67291  0.66062  0.57427  1.0000
  H   H2070     1.0  0.70197  0.68660  0.56670  1.0000
  H   H2071     1.0  0.50084  0.76991  0.64311  1.0000
  H   H2072     1.0  0.76746  0.67598  0.49144  1.0000
  C   C1221     1.0  0.49345  0.90736  0.68355  1.0000
  H   H2073     1.0  0.64903  0.94373  0.73789  1.0000
  C   C1222     1.0  0.72578  0.73246  0.60574  1.0000
  S   S354      1.0  0.97922  0.71086  0.58116  1.0000
  H   H2074     1.0  0.93173  0.87966  0.57103  1.0000
  H   H2075     1.0  0.69646  0.76306  0.49464  1.0000
  H   H2076     1.0  0.82810  0.69418  0.53369  1.0000
  H   H2077     1.0  0.53195  0.78448  0.60270  1.0000
  C   C1223     1.0  0.66103  0.96933  0.58718  1.0000
  C   C1224     1.0  0.73321  0.68039  0.60816  1.0000
  H   H2078     1.0  0.82376  0.79554  0.50949  1.0000
  C   C1225     1.0  0.54253  0.64606  0.73309  1.0000
  C   C1226     1.0  0.55640  0.92454  0.73795  1.0000
  H   H2079     1.0  0.98590  0.62640  0.65180  1.0000
  H   H2080     1.0  0.94802  0.82194  0.58635  1.0000
  H   H2081     1.0  0.96695  0.83333  0.55878  1.0000
  H   H2082     1.0  0.73969  0.71783  0.58750  1.0000
  H   H2083     1.0  0.76974  0.72407  0.52310  1.0000
  H   H2084     1.0  0.56303  0.86703  0.72685  1.0000
  C   C1227     1.0  0.83696  0.73312  0.52323  1.0000
  H   H2085     1.0  0.70505  0.71289  0.58610  1.0000
  H   H2086     1.0  0.84584  0.69779  0.51731  1.0000
  C   C1228     1.0  0.82258  0.77933  0.51681  1.0000
  Fe  Fe173     1.0  0.50862  0.62911  0.64117  1.0000
  H   H2087     1.0  0.50217  0.90688  0.70995  1.0000
  Fe  Fe174     1.0  0.75643  0.97946  0.54175  1.0000
  H   H2088     1.0  0.84030  0.97212  0.51769  1.0000
  N   N86       1.0  0.65059  0.89442  0.61961  1.0000
  C   C1229     1.0  0.64055  0.90851  0.63074  1.0000
  C   C1230     1.0  0.62699  0.87850  0.60924  1.0000
  C   C1231     1.0  0.67298  0.91603  0.61195  1.0000
  C   C1232     1.0  0.66109  0.87619  0.62733  1.0000
  C   C1233     1.0  0.66256  0.92962  0.64105  1.0000
  C   C1234     1.0  0.60192  0.85670  0.61563  1.0000
  C   C1235     1.0  0.67685  0.90955  0.59622  1.0000
  C   C1236     1.0  0.66968  0.85741  0.61796  1.0000
  H   H2089     1.0  0.62895  0.91905  0.62558  1.0000
  H   H2090     1.0  0.62598  0.89361  0.63765  1.0000
  H   H2091     1.0  0.63301  0.86787  0.60061  1.0000
  H   H2092     1.0  0.61992  0.89266  0.60373  1.0000
  H   H2093     1.0  0.66940  0.93498  0.61152  1.0000
  H   H2094     1.0  0.69295  0.92215  0.61792  1.0000
  H   H2095     1.0  0.67912  0.88846  0.63447  1.0000
  H   H2096     1.0  0.64565  0.86304  0.63454  1.0000
  H   H2097     1.0  0.65265  0.93917  0.64824  1.0000
  H   H2098     1.0  0.67291  0.92005  0.64796  1.0000
  H   H2099     1.0  0.67771  0.94655  0.63546  1.0000
  H   H2100     1.0  0.58671  0.84566  0.60684  1.0000
  H   H2101     1.0  0.98015  0.90939  0.57226  1.0000
  H   H2102     1.0  0.95485  0.88239  0.55021  1.0000
  H   H2103     1.0  0.67894  0.89015  0.59446  1.0000
  H   H2104     1.0  0.69559  0.92601  0.59262  1.0000
  H   H2105     1.0  0.65989  0.90937  0.58910  1.0000
  H   H2106     1.0  0.65287  0.84342  0.61067  1.0000
  H   H2107     1.0  0.67581  0.84444  0.62500  1.0000
  H   H2108     1.0  0.68763  0.86918  0.61191  1.0000
  H   H2109     1.0  0.52118  0.69473  0.60370  1.0000
  H   H2110     1.0  0.82471  0.75411  0.49903  1.0000
  H   H2111     1.0  0.50911  0.94657  0.69627  1.0000
  C   C1237     1.0  0.61813  0.98471  0.56050  1.0000
  H   H2112     1.0  0.97309  0.82398  0.59962  1.0000
  H   H2113     1.0  0.62012  0.96529  0.56208  1.0000
  Fe  Fe175     1.0  0.98040  0.74306  0.56530  1.0000
  S   S355      1.0  0.97549  0.78116  0.57227  1.0000
  H   H2114     1.0  0.61708  0.94280  0.73121  1.0000
  H   H2115     1.0  0.93464  0.86405  0.58730  1.0000
  C   C1238     1.0  0.94367  0.88269  0.58129  1.0000
  H   H2116     1.0  0.93824  0.68231  0.64323  1.0000
  N   N87       1.0  0.98257  0.87003  0.57247  1.0000
  H   H2117     1.0  0.86706  0.98084  0.53115  1.0000
  C   C1239     1.0  0.60984  0.99090  0.52879  1.0000
  H   H2118     1.0  0.50523  0.55577  0.67184  1.0000
  C   C1240     1.0  0.67357  0.98952  0.59802  1.0000
  Fe  Fe176     1.0  0.71468  0.99267  0.55834  1.0000
  C   C1241     1.0  0.66068  0.98889  0.61099  1.0000
  H   H2119     1.0  0.98439  0.67064  0.59923  1.0000
  H   H2120     1.0  0.98537  0.89943  0.58946  1.0000
  N   N88       1.0  0.63680  0.99314  0.53517  1.0000
  H   H2121     1.0  0.82820  0.71929  0.89643  1.0000
  H   H2122     1.0  0.81296  0.85327  0.94870  1.0000
  H   H2123     1.0  0.87098  0.81976  0.90255  1.0000
  Fe  Fe177     1.0  0.94796  0.78688  0.90728  1.0000
  S   S356      1.0  0.91422  0.80179  0.90339  1.0000
  S   S357      1.0  0.94240  0.74362  0.91023  1.0000
  Fe  Fe178     1.0  0.75374  0.75595  0.89769  1.0000
  S   S358      1.0  0.71646  0.73293  0.90978  1.0000
  S   S359      1.0  0.78497  0.73761  0.89514  1.0000
  Fe  Fe179     1.0  0.73535  0.80196  0.89264  1.0000
  S   S360      1.0  0.69739  0.78260  0.90453  1.0000
  S   S361      1.0  0.74696  0.84226  0.88226  1.0000
  Fe  Fe180     1.0  0.72391  0.77330  0.92086  1.0000
  S   S362      1.0  0.73339  0.78885  0.94432  1.0000
  Fe  Fe181     1.0  0.69302  0.74401  0.89227  1.0000
  S   S363      1.0  0.65226  0.71287  0.88194  1.0000
  S   S364      1.0  0.76228  0.79541  0.90945  1.0000
  S   S365      1.0  0.72986  0.76413  0.87958  1.0000
  Fe  Fe182     1.0  0.54506  0.86800  0.80692  1.0000
  S   S366      1.0  0.58232  0.89131  0.79529  1.0000
  S   S367      1.0  0.55033  0.83315  0.81742  1.0000
  Fe  Fe183     1.0  0.52149  0.90955  0.80129  1.0000
  S   S368      1.0  0.55833  0.93610  0.78957  1.0000
  H   H2124     1.0  0.53614  0.71823  0.82963  1.0000
  Fe  Fe184     1.0  0.55441  0.89683  0.77856  1.0000
  S   S369      1.0  0.56008  0.88512  0.75555  1.0000
  Fe  Fe185     1.0  0.58321  0.92821  0.80747  1.0000
  S   S370      1.0  0.62543  0.95814  0.81665  1.0000
  S   S371      1.0  0.51664  0.87058  0.78941  1.0000
  S   S372      1.0  0.54689  0.90473  0.81986  1.0000
  Fe  Fe186     1.0  0.74905  0.97814  0.91435  1.0000
  S   S373      1.0  0.54429  0.63849  0.78727  1.0000
  H   H2125     1.0  0.78553  0.90127  0.93530  1.0000
  C   C1242     1.0  0.53130  0.79899  0.81180  1.0000
  S   S374      1.0  0.54666  0.69892  0.79200  1.0000
  H   H2126     1.0  0.55723  0.77825  0.85416  1.0000
  Fe  Fe187     1.0  0.53060  0.66603  0.77450  1.0000
  S   S375      1.0  0.53525  0.68321  0.75216  1.0000
  Fe  Fe188     1.0  0.55678  0.67039  0.80567  1.0000
  S   S376      1.0  0.59844  0.69260  0.81795  1.0000
  H   H2127     1.0  0.58309  0.71852  0.87270  1.0000
  S   S377      1.0  0.51574  0.65305  0.81516  1.0000
  S   S378      1.0  0.74947  0.93937  0.92267  1.0000
  H   H2128     1.0  0.80447  0.84916  0.89803  1.0000
  C   C1243     1.0  0.63896  0.96403  0.83474  1.0000
  C   C1244     1.0  0.63427  0.95899  0.86041  1.0000
  C   C1245     1.0  0.62278  0.95329  0.84627  1.0000
  H   H2129     1.0  0.62139  0.95067  0.86917  1.0000
  H   H2130     1.0  0.60132  0.94081  0.84429  1.0000
  C   C1246     1.0  0.62017  0.98264  0.90627  1.0000
  H   H2131     1.0  0.71259  0.65228  0.88885  1.0000
  S   S379      1.0  0.95751  0.73857  0.95133  1.0000
  Fe  Fe189     1.0  0.50547  0.68030  0.80057  1.0000
  C   C1247     1.0  0.53048  0.75375  0.80806  1.0000
  C   C1248     1.0  0.54499  0.78200  0.81001  1.0000
  C   C1249     1.0  0.55092  0.73157  0.86598  1.0000
  H   H2132     1.0  0.61399  0.75896  0.83156  1.0000
  H   H2133     1.0  0.54138  0.74095  0.80726  1.0000
  H   H2134     1.0  0.56696  0.79066  0.81071  1.0000
  C   C1250     1.0  0.72073  0.77543  0.96100  1.0000
  C   C1251     1.0  0.69704  0.75175  0.96204  1.0000
  C   C1252     1.0  0.68743  0.74271  0.97558  1.0000
  C   C1253     1.0  0.57803  0.77909  0.77363  1.0000
  C   C1254     1.0  0.73479  0.78966  0.97367  1.0000
  H   H2135     1.0  0.68592  0.74063  0.95242  1.0000
  C   C1255     1.0  0.79604  0.87117  0.91592  1.0000
  H   H2136     1.0  0.75310  0.80798  0.97304  1.0000
  C   C1256     1.0  0.74551  0.86905  0.89288  1.0000
  C   C1257     1.0  0.75852  0.89591  0.88869  1.0000
  C   C1258     1.0  0.75882  0.91773  0.89744  1.0000
  C   C1259     1.0  0.74646  0.91269  0.91053  1.0000
  C   C1260     1.0  0.73308  0.88582  0.91458  1.0000
  C   C1261     1.0  0.73237  0.86403  0.90572  1.0000
  H   H2137     1.0  0.76893  0.89987  0.87881  1.0000
  H   H2138     1.0  0.76947  0.93846  0.89434  1.0000
  H   H2139     1.0  0.72345  0.88184  0.92468  1.0000
  H   H2140     1.0  0.72224  0.84340  0.90902  1.0000
  C   C1262     1.0  0.63715  0.70842  0.86420  1.0000
  C   C1263     1.0  0.61123  0.68733  0.86108  1.0000
  C   C1264     1.0  0.59888  0.68231  0.84711  1.0000
  C   C1265     1.0  0.61248  0.69809  0.83594  1.0000
  C   C1266     1.0  0.63841  0.71915  0.83906  1.0000
  C   C1267     1.0  0.65052  0.72450  0.85307  1.0000
  H   H2141     1.0  0.60068  0.67461  0.86953  1.0000
  H   H2142     1.0  0.57905  0.66593  0.84494  1.0000
  H   H2143     1.0  0.64920  0.73152  0.83055  1.0000
  H   H2144     1.0  0.67040  0.74081  0.85521  1.0000
  H   H2145     1.0  0.81649  0.88480  0.89605  1.0000
  H   H2146     1.0  0.86099  0.77402  0.95775  1.0000
  H   H2147     1.0  0.58046  0.73983  0.82424  1.0000
  H   H2148     1.0  0.82069  0.79557  0.89956  1.0000
  H   H2149     1.0  0.64859  0.96522  0.78924  1.0000
  H   H2150     1.0  0.67618  0.63773  0.85307  1.0000
  H   H2151     1.0  0.65270  0.96813  0.90947  1.0000
  C   C1268     1.0  0.75528  0.98841  0.98722  1.0000
  H   H2152     1.0  0.77699  0.85237  0.91486  1.0000
  C   C1269     1.0  0.87832  0.78330  0.90137  1.0000
  C   C1270     1.0  0.86601  0.75488  0.89978  1.0000
  C   C1271     1.0  0.83746  0.74122  0.89792  1.0000
  C   C1272     1.0  0.82084  0.75573  0.89784  1.0000
  C   C1273     1.0  0.83314  0.78412  0.89971  1.0000
  C   C1274     1.0  0.86168  0.79778  0.90137  1.0000
  H   H2153     1.0  0.87850  0.74346  0.89967  1.0000
  H   H2154     1.0  0.54185  0.74688  0.77951  1.0000
  C   C1275     1.0  0.73355  0.95103  0.96941  1.0000
  H   H2155     1.0  0.93175  0.80294  0.95264  1.0000
  H   H2156     1.0  0.59844  0.97452  0.93270  1.0000
  S   S380      1.0  0.67525  0.98124  0.88145  1.0000
  C   C1276     1.0  0.89351  0.76165  0.97456  1.0000
  C   C1277     1.0  0.96077  0.75404  0.96872  1.0000
  H   H2157     1.0  0.61418  0.94781  0.78292  1.0000
  H   H2158     1.0  0.82851  0.77247  0.93940  1.0000
  H   H2159     1.0  0.75264  0.94853  0.96731  1.0000
  N   N89       1.0  0.70759  0.67449  0.86276  1.0000
  H   H2160     1.0  0.55701  0.79950  0.75098  1.0000
  H   H2161     1.0  0.50232  0.73795  0.84004  1.0000
  C   C1278     1.0  0.53651  0.81088  0.77338  1.0000
  H   H2162     1.0  0.90898  0.78184  0.97223  1.0000
  H   H2163     1.0  0.74961  0.68781  0.85718  1.0000
  H   H2164     1.0  0.66892  0.72460  0.97624  1.0000
  H   H2165     1.0  0.49087  0.74217  0.74964  1.0000
  H   H2166     1.0  0.87496  0.76335  0.97830  1.0000
  H   H2167     1.0  0.50061  0.70070  0.85281  1.0000
  H   H2168     1.0  0.61802  0.91050  0.76951  1.0000
  H   H2169     1.0  0.53588  0.82182  0.76363  1.0000
  H   H2170     1.0  0.96264  0.62960  0.85442  1.0000
  H   H2171     1.0  0.79944  0.89283  0.95090  1.0000
  C   C1279     1.0  0.65501  0.92055  0.78243  1.0000
  C   C1280     1.0  0.66685  0.98031  0.83763  1.0000
  H   H2172     1.0  0.51197  0.77229  0.84605  1.0000
  H   H2173     1.0  0.55779  0.81587  0.77690  1.0000
  H   H2174     1.0  0.85973  0.78055  0.93086  1.0000
  C   C1281     1.0  0.73493  0.64453  0.85941  1.0000
  H   H2175     1.0  0.90218  0.75468  0.98374  1.0000
  H   H2176     1.0  0.70240  0.97500  0.98136  1.0000
  C   C1282     1.0  0.72568  0.67422  0.88888  1.0000
  H   H2177     1.0  0.85092  0.89367  0.92717  1.0000
  H   H2178     1.0  0.74730  0.67741  0.88837  1.0000
  H   H2179     1.0  0.72542  0.66710  0.84362  1.0000
  H   H2180     1.0  0.85973  0.94095  0.92828  1.0000
  C   C1283     1.0  0.83807  0.92630  0.92731  1.0000
  H   H2181     1.0  0.82666  0.93527  0.93378  1.0000
  N   N90       1.0  0.87769  0.74733  0.94783  1.0000
  C   C1284     1.0  0.86592  0.72142  0.93844  1.0000
  C   C1285     1.0  0.85502  0.75643  0.95000  1.0000
  C   C1286     1.0  0.88706  0.74053  0.96196  1.0000
  C   C1287     1.0  0.90120  0.76773  0.94039  1.0000
  C   C1288     1.0  0.50214  0.74221  0.80797  1.0000
  C   C1289     1.0  0.84365  0.76437  0.93641  1.0000
  H   H2182     1.0  0.61862  0.99175  0.77072  1.0000
  C   C1290     1.0  0.91270  0.79779  0.94601  1.0000
  H   H2183     1.0  0.88734  0.69702  0.94676  1.0000
  H   H2184     1.0  0.86072  0.72557  0.92744  1.0000
  H   H2185     1.0  0.83770  0.74013  0.95490  1.0000
  H   H2186     1.0  0.87146  0.72121  0.96566  1.0000
  H   H2187     1.0  0.90569  0.73678  0.96077  1.0000
  H   H2188     1.0  0.91869  0.76181  0.94068  1.0000
  H   H2189     1.0  0.89617  0.76738  0.92875  1.0000
  H   H2190     1.0  0.54337  0.63470  0.74226  1.0000
  H   H2191     1.0  0.97346  0.60732  0.86447  1.0000
  H   H2192     1.0  0.64734  0.91623  0.75980  1.0000
  H   H2193     1.0  0.49633  0.68556  0.83544  1.0000
  C   C1291     1.0  0.73062  0.97020  0.95816  1.0000
  H   H2194     1.0  0.97341  0.81467  0.98628  1.0000
  C   C1292     1.0  0.55001  0.75620  0.76937  1.0000
  C   C1293     1.0  0.63992  0.92441  0.76897  1.0000
  H   H2195     1.0  0.73685  0.72992  0.85643  1.0000
  H   H2196     1.0  0.89875  0.80366  0.95217  1.0000
  H   H2197     1.0  0.71124  0.97263  0.95871  1.0000
  N   N91       1.0  0.68456  0.90333  0.86926  1.0000
  C   C1294     1.0  0.70778  0.93110  0.87075  1.0000
  C   C1295     1.0  0.66078  0.90453  0.87675  1.0000
  C   C1296     1.0  0.67598  0.89459  0.85380  1.0000
  C   C1297     1.0  0.69379  0.88312  0.87583  1.0000
  C   C1298     1.0  0.73245  0.93508  0.86179  1.0000
  C   C1299     1.0  0.66502  0.91038  0.89307  1.0000
  C   C1300     1.0  0.66817  0.91430  0.84499  1.0000
  C   C1301     1.0  0.67177  0.85406  0.87704  1.0000
  H   H2198     1.0  0.70084  0.94733  0.86811  1.0000
  H   H2199     1.0  0.71588  0.93602  0.88204  1.0000
  H   H2200     1.0  0.64221  0.88541  0.87458  1.0000
  H   H2201     1.0  0.65540  0.92084  0.87251  1.0000
  H   H2202     1.0  0.69206  0.89075  0.84822  1.0000
  H   H2203     1.0  0.65786  0.87486  0.85286  1.0000
  H   H2204     1.0  0.70999  0.88083  0.86962  1.0000
  H   H2205     1.0  0.70315  0.89052  0.88674  1.0000
  H   H2206     1.0  0.74837  0.95591  0.86425  1.0000
  H   H2207     1.0  0.74168  0.92070  0.86441  1.0000
  H   H2208     1.0  0.72736  0.93351  0.85016  1.0000
  H   H2209     1.0  0.64622  0.91084  0.89727  1.0000
  H   H2210     1.0  0.66904  0.89453  0.89872  1.0000
  H   H2211     1.0  0.68156  0.93060  0.89589  1.0000
  H   H2212     1.0  0.68470  0.93495  0.84499  1.0000
  H   H2213     1.0  0.64946  0.91565  0.84870  1.0000
  H   H2214     1.0  0.66363  0.90639  0.83369  1.0000
  H   H2215     1.0  0.65567  0.85357  0.88418  1.0000
  H   H2216     1.0  0.68144  0.84132  0.88181  1.0000
  H   H2217     1.0  0.66250  0.84426  0.86649  1.0000
  C   C1302     1.0  0.65849  0.65003  0.87070  1.0000
  H   H2218     1.0  0.64251  0.62924  0.87171  1.0000
  H   H2219     1.0  0.66360  0.65992  0.88159  1.0000
  H   H2220     1.0  0.64933  0.66088  0.86391  1.0000
  H   H2221     1.0  0.83499  0.87172  0.90746  1.0000
  H   H2222     1.0  0.74818  0.87171  0.94725  1.0000
  C   C1303     1.0  0.76125  0.86215  0.94287  1.0000
  H   H2223     1.0  0.95516  0.65558  0.81922  1.0000
  H   H2224     1.0  0.55259  0.70360  0.88191  1.0000
  H   H2225     1.0  0.72314  0.68244  0.89947  1.0000
  H   H2226     1.0  0.56241  0.75063  0.87265  1.0000
  H   H2227     1.0  0.59608  0.76518  0.85521  1.0000
  H   H2228     1.0  0.84650  0.70678  0.94255  1.0000
  H   H2229     1.0  0.94031  0.59519  0.85641  1.0000
  H   H2230     1.0  0.82590  0.82091  0.93623  1.0000
  C   C1304     1.0  0.71784  0.68940  0.87709  1.0000
  C   C1305     1.0  0.63072  0.96127  0.91083  1.0000
  H   H2231     1.0  0.78965  0.88765  0.91304  1.0000
  H   H2232     1.0  0.73866  0.64367  0.87098  1.0000
  H   H2233     1.0  0.59342  0.77028  0.77401  1.0000
  H   H2234     1.0  0.54981  0.76618  0.83613  1.0000
  C   C1306     1.0  0.53884  0.71221  0.84062  1.0000
  H   H2235     1.0  0.95252  0.58576  0.83449  1.0000
  N   N92       1.0  0.55407  0.73714  0.85034  1.0000
  N   N93       1.0  0.52949  0.76384  0.76148  1.0000
  H   H2236     1.0  0.75062  0.85008  0.93303  1.0000
  H   H2237     1.0  0.55336  0.73963  0.76349  1.0000
  H   H2238     1.0  0.68558  0.69995  0.85959  1.0000
  H   H2239     1.0  0.60267  0.94133  0.75713  1.0000
  C   C1307     1.0  0.63429  0.96309  0.77999  1.0000
  C   C1308     1.0  0.72987  0.66972  0.85541  1.0000
  C   C1309     1.0  0.96181  0.60880  0.85478  1.0000
  S   S381      1.0  0.97218  0.80346  0.92816  1.0000
  H   H2240     1.0  0.98811  0.73072  0.83281  1.0000
  H   H2241     1.0  0.97381  0.66291  0.83586  1.0000
  H   H2242     1.0  0.49220  0.80063  0.81276  1.0000
  C   C1310     1.0  0.66215  0.97521  0.86329  1.0000
  C   C1311     1.0  0.81436  0.86923  0.90397  1.0000
  C   C1312     1.0  0.58404  0.74740  0.84779  1.0000
  C   C1313     1.0  0.95487  0.73764  0.98060  1.0000
  H   H2243     1.0  0.59142  0.77538  0.83010  1.0000
  H   H2244     1.0  0.87427  0.68857  0.92870  1.0000
  H   H2245     1.0  0.68596  0.68050  0.84406  1.0000
  H   H2246     1.0  0.52970  0.72532  0.86905  1.0000
  H   H2247     1.0  0.55108  0.69988  0.83947  1.0000
  H   H2248     1.0  0.97945  0.58376  0.84519  1.0000
  C   C1314     1.0  0.72539  0.78045  0.98719  1.0000
  C   C1315     1.0  0.56059  0.70998  0.87126  1.0000
  C   C1316     1.0  0.83567  0.89866  0.93271  1.0000
  H   H2249     1.0  0.71670  0.93081  0.96673  1.0000
  H   H2250     1.0  0.78749  0.83322  0.93557  1.0000
  H   H2251     1.0  0.76286  0.84821  0.95097  1.0000
  Fe  Fe190     1.0  0.96827  0.76087  0.93057  1.0000
  H   H2252     1.0  0.74790  0.99049  0.95888  1.0000
  C   C1317     1.0  0.70577  0.95914  0.98742  1.0000
  C   C1318     1.0  0.69870  0.69232  0.85360  1.0000
  C   C1319     1.0  0.68321  0.64794  0.86389  1.0000
  H   H2253     1.0  0.71257  0.73101  0.84331  1.0000
  N   N94       1.0  0.64308  0.95319  0.76666  1.0000
  H   H2254     1.0  0.50782  0.74773  0.85909  1.0000
  S   S382      1.0  0.70885  0.98011  0.91573  1.0000
  C   C1320     1.0  0.88424  0.70584  0.93667  1.0000
  H   H2255     1.0  0.73212  0.71202  0.83929  1.0000
  H   H2256     1.0  0.83277  0.74658  0.92891  1.0000
  C   C1321     1.0  0.54538  0.75979  0.84715  1.0000
  H   H2257     1.0  0.67675  0.93478  0.78318  1.0000
  H   H2258     1.0  0.91776  0.81114  0.93679  1.0000
  H   H2259     1.0  0.55349  0.69150  0.86403  1.0000
  H   H2260     1.0  0.70332  0.69719  0.88152  1.0000
  C   C1322     1.0  0.51046  0.69233  0.84507  1.0000
  H   H2261     1.0  0.94937  0.71602  0.97902  1.0000
  C   C1323     1.0  0.59245  0.75579  0.83250  1.0000
  H   H2262     1.0  0.73633  0.70833  0.87593  1.0000
  H   H2263     1.0  0.83132  0.92477  0.91590  1.0000
  N   N95       1.0  0.80762  0.87596  0.93111  1.0000
  C   C1324     1.0  0.78945  0.88450  0.94016  1.0000
  C   C1325     1.0  0.80798  0.85030  0.93696  1.0000
  C   C1326     1.0  0.82748  0.83915  0.93045  1.0000
  H   H2264     1.0  0.84907  0.85366  0.93166  1.0000
  H   H2265     1.0  0.82157  0.83192  0.91917  1.0000
  H   H2266     1.0  0.68809  0.63318  0.87006  1.0000
  H   H2267     1.0  0.84316  0.90201  0.94414  1.0000
  H   H2268     1.0  0.59169  0.73162  0.85013  1.0000
  H   H2269     1.0  0.75338  0.64525  0.85419  1.0000
  H   H2270     1.0  0.58545  0.79524  0.76592  1.0000
  H   H2271     1.0  0.71792  0.62539  0.85533  1.0000
  H   H2272     1.0  0.90422  0.71872  0.93263  1.0000
  C   C1327     1.0  0.97104  0.59825  0.84129  1.0000
  C   C1328     1.0  0.72162  0.71766  0.84796  1.0000
  Fe  Fe191     1.0  0.98162  0.75483  0.89877  1.0000
  H   H2273     1.0  0.94295  0.63189  0.83285  1.0000
  H   H2274     1.0  0.65399  0.89951  0.78201  1.0000
  H   H2275     1.0  0.71813  0.90089  0.98212  1.0000
  H   H2276     1.0  0.57800  0.78828  0.78438  1.0000
  C   C1329     1.0  0.62416  0.95201  0.75421  1.0000
  H   H2277     1.0  0.52787  0.81924  0.78191  1.0000
  H   H2278     1.0  0.97235  0.79480  0.96189  1.0000
  H   H2279     1.0  0.61766  0.91519  0.74101  1.0000
  H   H2280     1.0  0.97097  0.56816  0.81706  1.0000
  H   H2281     1.0  0.51599  0.77165  0.78195  1.0000
  Fe  Fe192     1.0  0.50215  0.62286  0.79613  1.0000
  H   H2282     1.0  0.59796  0.97382  0.90790  1.0000
  H   H2283     1.0  0.55421  0.93501  0.74753  1.0000
  H   H2284     1.0  0.68445  0.97799  0.77453  1.0000
  H   H2285     1.0  0.64519  0.92273  0.79233  1.0000
  C   C1330     1.0  0.50563  0.73778  0.75660  1.0000
  C   C1331     1.0  0.50290  0.78767  0.81113  1.0000
  H   H2286     1.0  0.73051  0.96123  0.94733  1.0000
  C   C1332     1.0  0.96776  0.78193  0.97090  1.0000
  H   H2287     1.0  0.96326  0.61454  0.81463  1.0000
  H   H2288     1.0  0.51227  0.72432  0.74998  1.0000
  H   H2289     1.0  0.67961  0.98886  0.82886  1.0000
  N   N96       1.0  0.73350  0.95988  0.98487  1.0000
  C   C1333     1.0  0.70151  0.75700  0.98825  1.0000
  C   C1334     1.0  0.51910  0.78002  0.77118  1.0000
  H   H2290     1.0  0.56687  0.75861  0.74216  1.0000
  S   S383      1.0  0.48911  0.92666  0.80305  1.0000
  C   C1335     1.0  0.96170  0.64606  0.82811  1.0000
  C   C1336     1.0  0.96844  0.79315  0.98477  1.0000
  C   C1337     1.0  0.54041  0.77925  0.74833  1.0000
  H   H2291     1.0  0.68932  0.93984  0.98294  1.0000
  H   H2292     1.0  0.50197  0.71229  0.77514  1.0000
  H   H2293     1.0  0.62184  0.98370  0.89448  1.0000
  H   H2294     1.0  0.49871  0.77818  0.76714  1.0000
  C   C1338     1.0  0.51507  0.75357  0.84829  1.0000
  H   H2295     1.0  0.98454  0.59245  0.80326  1.0000
  H   H2296     1.0  0.77361  0.99064  0.98133  1.0000
  H   H2297     1.0  0.62626  0.95556  0.92200  1.0000
  H   H2298     1.0  0.68222  0.95845  0.75868  1.0000
  C   C1339     1.0  0.97800  0.63084  0.82197  1.0000
  S   S384      1.0  0.98558  0.79724  0.89438  1.0000
  H   H2299     1.0  0.97754  0.73923  0.85764  1.0000
  C   C1340     1.0  0.67252  0.97060  0.76417  1.0000
  H   H2300     1.0  0.62037  0.94247  0.90390  1.0000
  H   H2301     1.0  0.51137  0.67355  0.84912  1.0000
  C   C1341     1.0  0.67842  0.98574  0.85177  1.0000
  H   H2302     1.0  0.67207  0.98985  0.74374  1.0000
  H   H2303     1.0  0.52433  0.78383  0.74269  1.0000
  H   H2304     1.0  0.62615  0.97256  0.75140  1.0000
  C   C1342     1.0  0.63202  0.99063  0.77966  1.0000
  C   C1343     1.0  0.48944  0.71999  0.76854  1.0000
  C   C1344     1.0  0.62748  0.93765  0.74035  1.0000
