data_image0
_chemical_formula_structural       FeSH2CFeSHCHNFeSHFeHFeSC2SH2C2SFeHSHFeS2FeCFeH2SH4C2HCNCHSH3SC4HCH4CHCHCHSH2C5SH2SH3CHSHNC4HC3FeH9CH4CH5C2H4CH3CHFeCH3CHCNHC5SH4CH5CH5CHC2HCSH7SCH2C3H2C3H3C2SCHNHCHCHCH3FeHC2S2C3FeS2FeSFeHFeCS2H2FeS2FeH2FeSFeHS2H2CNHSHCH6C2HNHC6H7C2HCHC2H2C3HCHC2H4CHCNH8C2H2CHCH3CH2CHCH2CSC2HC2H5CHCSC2HC2H3CH7NC8H14SHC2H7C3H5CH7CH5C3H4SHCFeS2FeS2FeCFeHS2FeCFeS2FeHFeHS2H2C2H2CHCHC2HCNC6H4CHC2H2C2H3CHCH2SNCHCHC2HSCNH3CH2C2H7SHCHCH4SCH2CH6CH6CSHCH2C2H2CH2C2H4CH6CH4C2H6CH2CHCHCH2CHFeS2FeCFe2SHFeHCSH4FeHS2FeSHCFeCFeS2H2SHCHCS2C2HC6H2C2HC2HCFeSCFeH2CH12CH2CNC8H4CH5SH9C2HCHCHFeSCHC2SCHC2HCHCH3NC5HC2H12CSH6SNCSHNH2SCH4CHCNH2CHCSH2C2H5SH2CH3C2H3CH4SHCHC2HC2SHCH4C2HNH4CH4CH3NHC3HCHC3H7CH4C2H4CHC2H2CHC2SH2CH4SHCHSH2CHCHCSH4CH2C3NC2HFeCHCH4CH6CHC2HC3H2FeSHFeS2FeSFeSHSFeS2FeS2FeHFeHS2H2CH2CHCHCH3SC8H4C2H4CH3C4H5NH2C2HSH2C3HCHCH5NC8H9CH13CH4C2SHCH2C2SHCH3CHC2H3CH3CFeS2FeSHFeSFeCS2FeSHFeSHFeSFeSHSH2C2H3SH4C7H4C4H2CSH7NC4HC3H10CH6CH3CSC2H5CHNCHC3H3CHCHC2HSHCHCH3NCH6C2SH2C2HC2H2CH2CHC3SH6CHCHCHCSHCH3C3H4CH4C4H7CHCH3CHC2HSHCSHC2HCH3C2H2C2H6CFeCH7CH3NCH3C3HC3H3CHNH3C2FeHCNH2NH3NCH4SFeS2FeCFeCS2FeS2CFeSH2Fe3H2SFeHS2HFeC2NH2SHSCHCH2CNCSH2C4HCH3CHCHCH2C3SCHCHC3H3CH3C2H3CHCH2CHSC2HNSHC3HCH3SHCH4SCH3FeNC8H20CH2CH2CSHNH2CHC2H2C2H2CH3SHCH4CH3CSH3CH3NHCSHCFeSCFeSHFeSFeS2FeS2FeCFeSFeHS2H3C2H4CH3CHC8H5CHC2HCSH5CHC2HC2NC6H17C2H5CHCH2CHC3HCH2SCH4NHCHCH7CHCHSNH2NCH5CHC2H3C3SCHSH2C2HC2H6CHCH2CH2CHC2FeS2FeSHFeSFeHSHFeS2FeSFeSFeHS2HCH2CH6SHC7H9C4H2C3H2NC4SC3H2CH4SCH2C2H7SCH2NSHCH7CH3CHCHCH2CH4NC8H11C2H8C2H2CH3CH2C3HC2HCH7CHFeS2FeHFeC2S2HCFeHSH3FeSCFeHFeS2H3FeS2CHCHSH2SHC2H2CFeHCHCHC5HC3H5SHC3HC2HSH2CNH2SNC8H8CHSH9C2HCH6C2SHNC8H24CH6C2HCH3SC2H5C3HNCSFeH2CHCS2HCH3CHSH2CH2NHC
_chemical_formula_sum              "Fe96 S192 H1152 C672 N48"
_cell_length_a       62.2345
_cell_length_b       49.3244
_cell_length_c       36.5731
_cell_angle_alpha    89.2078
_cell_angle_beta     89.2844
_cell_angle_gamma    89.0247

_space_group_name_H-M_alt    "P 1"
_space_group_IT_number       1

loop_
  _space_group_symop_operation_xyz
  'x, y, z'

loop_
  _atom_site_type_symbol
  _atom_site_label
  _atom_site_symmetry_multiplicity
  _atom_site_fract_x
  _atom_site_fract_y
  _atom_site_fract_z
  _atom_site_occupancy
  Fe  Fe1       1.0  0.02301  0.38860  0.44706  1.0000
  S   S1        1.0  0.02871  0.41207  0.39498  1.0000
  H   H1        1.0  0.06610  0.38579  0.05165  1.0000
  H   H2        1.0  0.30244  0.02115  0.19223  1.0000
  C   C1        1.0  0.28011  0.01859  0.99625  1.0000
  Fe  Fe2       1.0  0.01368  0.37736  0.36643  1.0000
  S   S2        1.0  0.03032  0.36624  0.31304  1.0000
  H   H3        1.0  0.99782  0.43842  0.18971  1.0000
  C   C2        1.0  0.26420  0.01368  0.15747  1.0000
  H   H4        1.0  0.24005  0.18892  0.16561  1.0000
  N   N1        1.0  0.00500  0.29755  0.15387  1.0000
  Fe  Fe3       1.0  0.31592  0.12977  0.37342  1.0000
  S   S3        1.0  0.28242  0.12144  0.39395  1.0000
  H   H5        1.0  0.21873  0.21880  0.00393  1.0000
  Fe  Fe4       1.0  0.29004  0.14844  0.44177  1.0000
  H   H6        1.0  0.14158  0.37317  0.46307  1.0000
  Fe  Fe5       1.0  0.29736  0.08660  0.42642  1.0000
  S   S4        1.0  0.28454  0.04305  0.42495  1.0000
  C   C3        1.0  0.26078  0.04922  0.10859  1.0000
  C   C4        1.0  0.27189  0.20989  0.09368  1.0000
  S   S5        1.0  0.32704  0.13868  0.31412  1.0000
  H   H7        1.0  0.00543  0.42381  0.24971  1.0000
  H   H8        1.0  0.26994  0.06244  0.08921  1.0000
  C   C5        1.0  0.20238  0.48150  0.45736  1.0000
  C   C6        1.0  0.25633  0.21049  0.47569  1.0000
  S   S6        1.0  0.02100  0.47341  0.06285  1.0000
  Fe  Fe6       1.0  0.01654  0.37272  0.04499  1.0000
  H   H9        1.0  0.28133  0.06541  0.17021  1.0000
  S   S7        1.0  0.02299  0.39626  0.09584  1.0000
  H   H10       1.0  0.11999  0.48977  0.00656  1.0000
  Fe  Fe7       1.0  0.29759  0.12335  0.09438  1.0000
  S   S8        1.0  0.26823  0.12154  0.05932  1.0000
  S   S9        1.0  0.28719  0.12182  0.15500  1.0000
  Fe  Fe8       1.0  0.28550  0.08952  0.02625  1.0000
  C   C7        1.0  0.11123  0.36973  0.00148  1.0000
  Fe  Fe9       1.0  0.28335  0.15357  0.02317  1.0000
  H   H11       1.0  0.25323  0.04760  0.19462  1.0000
  H   H12       1.0  0.28539  0.25108  0.09275  1.0000
  S   S10       1.0  0.31258  0.15642  0.05952  1.0000
  H   H13       1.0  0.04453  0.28199  0.17948  1.0000
  H   H14       1.0  0.25032  0.00480  0.14314  1.0000
  H   H15       1.0  0.02083  0.32164  0.08487  1.0000
  H   H16       1.0  0.23812  0.17589  0.08360  1.0000
  C   C8        1.0  0.25762  0.23483  0.14826  1.0000
  C   C9        1.0  0.29016  0.01622  0.10625  1.0000
  H   H17       1.0  0.01184  0.34012  0.14636  1.0000
  C   C10       1.0  0.22101  0.09593  0.42510  1.0000
  N   N2        1.0  0.26538  0.20797  0.13345  1.0000
  C   C11       1.0  0.24507  0.26594  0.49159  1.0000
  H   H18       1.0  0.20721  0.44771  0.00347  1.0000
  S   S11       1.0  0.31368  0.08930  0.06353  1.0000
  H   H19       1.0  0.25074  0.11730  0.46173  1.0000
  H   H20       1.0  0.16982  0.38113  0.40038  1.0000
  H   H21       1.0  0.23530  0.07961  0.10774  1.0000
  S   S12       1.0  0.13827  0.38011  0.99728  1.0000
  C   C12       1.0  0.29920  0.12512  0.19881  1.0000
  C   C13       1.0  0.28673  0.11959  0.23038  1.0000
  C   C14       1.0  0.29502  0.12313  0.26579  1.0000
  C   C15       1.0  0.31593  0.13252  0.27018  1.0000
  H   H22       1.0  0.27042  0.17531  0.20006  1.0000
  C   C16       1.0  0.01146  0.30098  0.22405  1.0000
  H   H23       1.0  0.27042  0.11277  0.22751  1.0000
  H   H24       1.0  0.28516  0.11898  0.28972  1.0000
  H   H25       1.0  0.23989  0.24792  0.09801  1.0000
  H   H26       1.0  0.29703  0.18629  0.20782  1.0000
  C   C17       1.0  0.28408  0.01603  0.45789  1.0000
  H   H27       1.0  0.18586  0.41039  0.39677  1.0000
  C   C18       1.0  0.23121  0.18441  0.10924  1.0000
  H   H28       1.0  0.22308  0.20396  0.10299  1.0000
  C   C19       1.0  0.01386  0.37663  0.20661  1.0000
  H   H29       1.0  0.21030  0.47152  0.43460  1.0000
  S   S13       1.0  0.00386  0.40832  0.01317  1.0000
  H   H30       1.0  0.04370  0.33554  0.10566  1.0000
  H   H31       1.0  0.19195  0.09396  0.47878  1.0000
  C   C20       1.0  0.26567  0.25853  0.47805  1.0000
  C   C21       1.0  0.01521  0.36930  0.27276  1.0000
  C   C22       1.0  0.30831  0.03834  0.17531  1.0000
  C   C23       1.0  0.09779  0.38293  0.02705  1.0000
  C   C24       1.0  0.27892  0.99360  0.08515  1.0000
  S   S14       1.0  0.30267  0.11264  0.47515  1.0000
  H   H32       1.0  0.20371  0.09342  0.41861  1.0000
  H   H33       1.0  0.23666  0.04719  0.44991  1.0000
  S   S15       1.0  0.26860  0.05023  0.01057  1.0000
  H   H34       1.0  0.22779  0.05984  0.39160  1.0000
  H   H35       1.0  0.27730  0.18963  0.08387  1.0000
  H   H36       1.0  0.27104  0.24933  0.15079  1.0000
  C   C25       1.0  0.25572  0.02540  0.19413  1.0000
  H   H37       1.0  0.29754  0.21503  0.15357  1.0000
  S   S16       1.0  0.01048  0.35201  0.41808  1.0000
  H   H38       1.0  0.23997  0.27163  0.13309  1.0000
  N   N3        1.0  0.13397  0.41154  0.43608  1.0000
  C   C26       1.0  0.09428  0.33708  0.49256  1.0000
  C   C27       1.0  0.12189  0.42257  0.40345  1.0000
  C   C28       1.0  0.15772  0.41630  0.43113  1.0000
  C   C29       1.0  0.12964  0.38198  0.44361  1.0000
  H   H39       1.0  0.29860  0.06567  0.13208  1.0000
  C   C30       1.0  0.09713  0.42085  0.40628  1.0000
  C   C31       1.0  0.16893  0.40354  0.39768  1.0000
  C   C32       1.0  0.12878  0.36289  0.41042  1.0000
  Fe  Fe10      1.0  0.00783  0.43121  0.06497  1.0000
  H   H40       1.0  0.06739  0.47397  0.01147  1.0000
  H   H41       1.0  0.12670  0.41235  0.37784  1.0000
  H   H42       1.0  0.12590  0.44427  0.39848  1.0000
  H   H43       1.0  0.01452  0.45735  0.24286  1.0000
  H   H44       1.0  0.04299  0.37599  0.23822  1.0000
  H   H45       1.0  0.28712  0.22615  0.45959  1.0000
  H   H46       1.0  0.16098  0.43848  0.43013  1.0000
  H   H47       1.0  0.25175  0.23229  0.17693  1.0000
  H   H48       1.0  0.01960  0.28107  0.22823  1.0000
  C   C33       1.0  0.20808  0.46862  0.99432  1.0000
  H   H49       1.0  0.09005  0.42612  0.37930  1.0000
  H   H50       1.0  0.09165  0.40022  0.41382  1.0000
  H   H51       1.0  0.09029  0.43559  0.42612  1.0000
  H   H52       1.0  0.26619  0.00145  0.06682  1.0000
  C   C34       1.0  0.20767  0.13208  0.48686  1.0000
  H   H53       1.0  0.16166  0.40996  0.37142  1.0000
  H   H54       1.0  0.13729  0.34355  0.41744  1.0000
  H   H55       1.0  0.13612  0.37056  0.38480  1.0000
  H   H56       1.0  0.11189  0.35724  0.40508  1.0000
  H   H57       1.0  0.23204  0.09153  0.36864  1.0000
  C   C35       1.0  0.28966  0.23024  0.08397  1.0000
  C   C36       1.0  0.03204  0.31874  0.10792  1.0000
  H   H58       1.0  0.30545  0.22377  0.09515  1.0000
  H   H59       1.0  0.23989  0.01635  0.20078  1.0000
  H   H60       1.0  0.10938  0.42315  0.47599  1.0000
  H   H61       1.0  0.26004  0.08348  0.46089  1.0000
  C   C37       1.0  0.02042  0.32017  0.14539  1.0000
  H   H62       1.0  0.04908  0.25810  0.14394  1.0000
  H   H63       1.0  0.00213  0.30497  0.24960  1.0000
  H   H64       1.0  0.09754  0.31785  0.47952  1.0000
  C   C38       1.0  0.20844  0.48970  0.02013  1.0000
  H   H65       1.0  0.22322  0.24233  0.13826  1.0000
  Fe  Fe11      1.0  0.99506  0.42751  0.40248  1.0000
  C   C39       1.0  0.20807  0.10074  0.48750  1.0000
  H   H66       1.0  0.25123  0.07952  0.40113  1.0000
  H   H67       1.0  0.02241  0.45775  0.44012  1.0000
  H   H68       1.0  0.20774  0.48467  0.04897  1.0000
  C   C40       1.0  0.32021  0.13409  0.20313  1.0000
  H   H69       1.0  0.25815  0.21536  0.07600  1.0000
  C   C41       1.0  0.02524  0.49075  0.47718  1.0000
  N   N4        1.0  0.27610  0.03270  0.13200  1.0000
  H   H70       1.0  0.10420  0.39883  0.04359  1.0000
  C   C42       1.0  0.07618  0.37557  0.03168  1.0000
  C   C43       1.0  0.28507  0.19914  0.15460  1.0000
  C   C44       1.0  0.24856  0.18644  0.13886  1.0000
  C   C45       1.0  0.99951  0.48978  0.42797  1.0000
  C   C46       1.0  0.23388  0.08065  0.39526  1.0000
  S   S17       1.0  0.04066  0.34492  0.01638  1.0000
  H   H71       1.0  0.32212  0.03153  0.15807  1.0000
  H   H72       1.0  0.01530  0.46056  0.31457  1.0000
  H   H73       1.0  0.00979  0.42473  0.31480  1.0000
  H   H74       1.0  0.25627  0.16587  0.14003  1.0000
  C   C47       1.0  0.19668  0.46603  0.48864  1.0000
  H   H75       1.0  0.01638  0.26489  0.11936  1.0000
  H   H76       1.0  0.29821  0.02969  0.08567  1.0000
  H   H77       1.0  0.03900  0.44276  0.99987  1.0000
  H   H78       1.0  0.27556  0.21037  0.21116  1.0000
  H   H79       1.0  0.20829  0.05042  0.45652  1.0000
  C   C48       1.0  0.23906  0.24951  0.12809  1.0000
  H   H80       1.0  0.26641  0.01914  0.21696  1.0000
  H   H81       1.0  0.22432  0.11786  0.42044  1.0000
  H   H82       1.0  0.23236  0.05554  0.14403  1.0000
  H   H83       1.0  0.03677  0.24766  0.18602  1.0000
  H   H84       1.0  0.00425  0.25394  0.16070  1.0000
  C   C49       1.0  0.12642  0.42769  0.46884  1.0000
  H   H85       1.0  0.04135  0.29961  0.10436  1.0000
  C   C50       1.0  0.06776  0.35482  0.01084  1.0000
  C   C51       1.0  0.30231  0.01356  0.99583  1.0000
  H   H86       1.0  0.03340  0.43704  0.29303  1.0000
  C   C52       1.0  0.02570  0.37403  0.23908  1.0000
  S   S18       1.0  0.32318  0.15854  0.41973  1.0000
  H   H87       1.0  0.12674  0.44988  0.46262  1.0000
  H   H88       1.0  0.21870  0.17010  0.11888  1.0000
  H   H89       1.0  0.29272  0.18079  0.14210  1.0000
  H   H90       1.0  0.03311  0.32185  0.16602  1.0000
  H   H91       1.0  0.16674  0.40795  0.45493  1.0000
  H   H92       1.0  0.11378  0.38010  0.45748  1.0000
  H   H93       1.0  0.20282  0.14045  0.45984  1.0000
  S   S19       1.0  0.26244  0.17520  0.46691  1.0000
  C   C53       1.0  0.28141  0.19254  0.19563  1.0000
  H   H94       1.0  0.16180  0.48359  0.00625  1.0000
  H   H95       1.0  0.02204  0.38068  0.18090  1.0000
  C   C54       1.0  0.27124  0.23119  0.47008  1.0000
  C   C55       1.0  0.24437  0.06761  0.12856  1.0000
  C   C56       1.0  0.29051  0.05174  0.15187  1.0000
  H   H96       1.0  0.31464  0.05370  0.19420  1.0000
  H   H97       1.0  0.25098  0.03606  0.09124  1.0000
  C   C57       1.0  0.01642  0.47763  0.44737  1.0000
  C   C58       1.0  0.00446  0.44448  0.26131  1.0000
  C   C59       1.0  0.03750  0.26456  0.16564  1.0000
  H   H98       1.0  0.21990  0.48766  0.11540  1.0000
  H   H99       1.0  0.29173  0.23101  0.05374  1.0000
  H   H100      1.0  0.25200  0.08253  0.14639  1.0000
  C   C60       1.0  0.01500  0.26975  0.14900  1.0000
  C   C61       1.0  0.01614  0.44190  0.29823  1.0000
  S   S20       1.0  0.25817  0.18737  0.00823  1.0000
  C   C62       1.0  0.00979  0.49087  0.02536  1.0000
  H   H101      1.0  0.27493  0.99623  0.16509  1.0000
  N   N5        1.0  0.22547  0.08763  0.46434  1.0000
  H   H102      1.0  0.07382  0.44280  0.03408  1.0000
  C   C63       1.0  0.23575  0.21788  0.48940  1.0000
  H   H103      1.0  0.03798  0.48090  0.49253  1.0000
  C   C64       1.0  0.22401  0.05714  0.46716  1.0000
  H   H104      1.0  0.02330  0.31739  0.22193  1.0000
  C   C65       1.0  0.07209  0.45250  0.00663  1.0000
  H   H105      1.0  0.06382  0.34356  0.46547  1.0000
  H   H106      1.0  0.27747  0.27412  0.47359  1.0000
  H   H107      1.0  0.30331  0.00556  0.12119  1.0000
  Fe  Fe12      1.0  0.32649  0.12183  0.02547  1.0000
  H   H108      1.0  0.31310  0.02949  0.00328  1.0000
  C   C66       1.0  0.24769  0.09685  0.47383  1.0000
  C   C67       1.0  0.07521  0.35166  0.48441  1.0000
  S   S21       1.0  0.20292  0.43034  0.48964  1.0000
  S   S22       1.0  0.04688  0.39539  0.49277  1.0000
  C   C68       1.0  0.99567  0.30066  0.19193  1.0000
  C   C69       1.0  0.25280  0.22184  0.99367  1.0000
  C   C70       1.0  0.23144  0.23194  0.99443  1.0000
  Fe  Fe13      1.0  0.19879  0.35918  0.59881  1.0000
  S   S23       1.0  0.22383  0.36816  0.55501  1.0000
  S   S24       1.0  0.21173  0.36084  0.65774  1.0000
  Fe  Fe14      1.0  0.16578  0.34647  0.54080  1.0000
  S   S25       1.0  0.19845  0.37656  0.97751  1.0000
  Fe  Fe15      1.0  0.21315  0.33006  0.52701  1.0000
  H   H109      1.0  0.32012  0.00275  0.90129  1.0000
  Fe  Fe16      1.0  0.19766  0.39171  0.52543  1.0000
  C   C71       1.0  0.07346  0.43865  0.92448  1.0000
  S   S26       1.0  0.18953  0.32010  0.57219  1.0000
  S   S27       1.0  0.17315  0.38496  0.57068  1.0000
  H   H110      1.0  0.11609  0.38007  0.55316  1.0000
  H   H111      1.0  0.28427  0.24735  0.58705  1.0000
  Fe  Fe17      1.0  0.18171  0.36111  0.87747  1.0000
  S   S28       1.0  0.21546  0.37006  0.89334  1.0000
  S   S29       1.0  0.17023  0.35319  0.81908  1.0000
  Fe  Fe18      1.0  0.16505  0.36859  0.95694  1.0000
  H   H112      1.0  0.26524  0.22262  0.60254  1.0000
  H   H113      1.0  0.27342  0.28618  0.55249  1.0000
  Fe  Fe19      1.0  0.20139  0.40387  0.92808  1.0000
  S   S30       1.0  0.21067  0.44874  0.92304  1.0000
  Fe  Fe20      1.0  0.20939  0.34156  0.94169  1.0000
  H   H114      1.0  0.00726  0.41037  0.54702  1.0000
  S   S31       1.0  0.16802  0.39662  0.90851  1.0000
  S   S32       1.0  0.17562  0.33179  0.92462  1.0000
  H   H115      1.0  0.15540  0.43512  0.84795  1.0000
  H   H116      1.0  0.25548  0.23970  0.89540  1.0000
  C   C72       1.0  0.10935  0.34745  0.51685  1.0000
  N   N6        1.0  0.20126  0.43974  0.79184  1.0000
  H   H117      1.0  0.26644  0.31585  0.62514  1.0000
  S   S33       1.0  0.29829  0.12107  0.98708  1.0000
  H   H118      1.0  0.10057  0.41721  0.95108  1.0000
  C   C73       1.0  0.28410  0.99853  0.52059  1.0000
  H   H119      1.0  0.07022  0.43786  0.89463  1.0000
  H   H120      1.0  0.09235  0.40255  0.90981  1.0000
  H   H121      1.0  0.28164  0.31950  0.56243  1.0000
  H   H122      1.0  0.20882  0.09437  0.51653  1.0000
  H   H123      1.0  0.17565  0.44065  0.75183  1.0000
  H   H124      1.0  0.07682  0.39689  0.95000  1.0000
  C   C74       1.0  0.18649  0.47940  0.51779  1.0000
  C   C75       1.0  0.26641  0.99746  0.98649  1.0000
  H   H125      1.0  0.04843  0.39077  0.91150  1.0000
  N   N7        1.0  0.24874  0.27862  0.61828  1.0000
  H   H126      1.0  0.02822  0.43426  0.55450  1.0000
  C   C76       1.0  0.19985  0.35754  0.70230  1.0000
  C   C77       1.0  0.21323  0.35763  0.73318  1.0000
  C   C78       1.0  0.20458  0.35565  0.76906  1.0000
  C   C79       1.0  0.18234  0.35394  0.77459  1.0000
  C   C80       1.0  0.16904  0.35338  0.74374  1.0000
  C   C81       1.0  0.17769  0.35518  0.70788  1.0000
  H   H127      1.0  0.23041  0.35938  0.72928  1.0000
  H   H128      1.0  0.21507  0.35572  0.79240  1.0000
  H   H129      1.0  0.15182  0.35189  0.74756  1.0000
  H   H130      1.0  0.16715  0.35500  0.68457  1.0000
  H   H131      1.0  0.20642  0.24961  0.60984  1.0000
  H   H132      1.0  0.18203  0.46798  0.54210  1.0000
  H   H133      1.0  0.15471  0.42644  0.80087  1.0000
  C   C82       1.0  0.25928  0.30382  0.60313  1.0000
  C   C83       1.0  0.23588  0.43162  0.82982  1.0000
  H   H134      1.0  0.23396  0.43320  0.77201  1.0000
  C   C84       1.0  0.07078  0.37643  0.50129  1.0000
  H   H135      1.0  0.22952  0.22826  0.62039  1.0000
  C   C85       1.0  0.08563  0.38651  0.52618  1.0000
  C   C86       1.0  0.10488  0.37220  0.53378  1.0000
  H   H136      1.0  0.08219  0.40549  0.53970  1.0000
  H   H137      1.0  0.17216  0.29937  0.85481  1.0000
  C   C87       1.0  0.24238  0.27621  0.97015  1.0000
  C   C88       1.0  0.22322  0.42648  0.79479  1.0000
  C   C89       1.0  0.03425  0.42963  0.92966  1.0000
  H   H138      1.0  0.00757  0.47168  0.53973  1.0000
  C   C90       1.0  0.20289  0.47027  0.78986  1.0000
  H   H139      1.0  0.28507  0.00228  0.54959  1.0000
  C   C91       1.0  0.13920  0.42314  0.50436  1.0000
  C   C92       1.0  0.26375  0.26614  0.96956  1.0000
  H   H140      1.0  0.21485  0.05131  0.52566  1.0000
  H   H141      1.0  0.22708  0.42542  0.85497  1.0000
  H   H142      1.0  0.27645  0.27919  0.95978  1.0000
  H   H143      1.0  0.15476  0.43380  0.50306  1.0000
  C   C93       1.0  0.26894  0.23931  0.98128  1.0000
  H   H144      1.0  0.30741  0.99665  0.80249  1.0000
  C   C94       1.0  0.04274  0.48586  0.90398  1.0000
  N   N8        1.0  0.05290  0.44451  0.94549  1.0000
  H   H145      1.0  0.21337  0.29357  0.78317  1.0000
  H   H146      1.0  0.29247  0.29192  0.58872  1.0000
  H   H147      1.0  0.16126  0.46062  0.81417  1.0000
  H   H148      1.0  0.20975  0.26602  0.98377  1.0000
  H   H149      1.0  0.21844  0.41914  0.72028  1.0000
  H   H150      1.0  0.03206  0.43515  0.90036  1.0000
  H   H151      1.0  0.25703  0.11986  0.52188  1.0000
  H   H152      1.0  0.05511  0.47998  0.88339  1.0000
  C   C95       1.0  0.18719  0.43002  0.82311  1.0000
  C   C96       1.0  0.30472  0.99800  0.88791  1.0000
  H   H153      1.0  0.18772  0.40745  0.82499  1.0000
  H   H154      1.0  0.25399  0.28966  0.69430  1.0000
  C   C97       1.0  0.23013  0.24526  0.49707  1.0000
  H   H155      1.0  0.28914  0.22787  0.62750  1.0000
  C   C98       1.0  0.01082  0.43038  0.55894  1.0000
  H   H156      1.0  0.08488  0.45556  0.92782  1.0000
  H   H157      1.0  0.22789  0.30462  0.70070  1.0000
  H   H158      1.0  0.03781  0.38963  0.95805  1.0000
  C   C99       1.0  0.05447  0.43777  0.98575  1.0000
  H   H159      1.0  0.24087  0.09142  0.53443  1.0000
  H   H160      1.0  0.22319  0.27017  0.65767  1.0000
  C   C100      1.0  0.20951  0.47459  0.95684  1.0000
  H   H161      1.0  0.18742  0.40822  0.75909  1.0000
  C   C101      1.0  0.04775  0.47451  0.94254  1.0000
  H   H162      1.0  0.25727  0.24771  0.65869  1.0000
  H   H163      1.0  0.22642  0.28056  0.57335  1.0000
  C   C102      1.0  0.23681  0.26540  0.58785  1.0000
  S   S34       1.0  0.23682  0.30998  0.95287  1.0000
  C   C103      1.0  0.16332  0.43880  0.82100  1.0000
  C   C104      1.0  0.22214  0.24176  0.59942  1.0000
  H   H164      1.0  0.25088  0.41910  0.82919  1.0000
  C   C105      1.0  0.24123  0.30179  0.68056  1.0000
  C   C106      1.0  0.99767  0.45318  0.54014  1.0000
  H   H165      1.0  0.26798  0.08630  0.52054  1.0000
  H   H166      1.0  0.23886  0.27819  0.76998  1.0000
  H   H167      1.0  0.03364  0.47968  0.96012  1.0000
  H   H168      1.0  0.24478  0.31353  0.80872  1.0000
  H   H169      1.0  0.21357  0.26313  0.75915  1.0000
  C   C107      1.0  0.25323  0.09860  0.51496  1.0000
  H   H170      1.0  0.22014  0.30169  0.63401  1.0000
  C   C108      1.0  0.03567  0.39841  0.93030  1.0000
  S   S35       1.0  0.23946  0.30094  0.50288  1.0000
  C   C109      1.0  0.27638  0.23846  0.61152  1.0000
  C   C110      1.0  0.23233  0.28768  0.64658  1.0000
  H   H171      1.0  0.28425  0.01469  0.78877  1.0000
  C   C111      1.0  0.08611  0.41241  0.93503  1.0000
  C   C112      1.0  0.27768  0.29958  0.57517  1.0000
  H   H172      1.0  0.24704  0.31750  0.59006  1.0000
  H   H173      1.0  0.28842  0.04072  0.50513  1.0000
  H   H174      1.0  0.02027  0.39039  0.92029  1.0000
  C   C113      1.0  0.26495  0.25967  0.63615  1.0000
  H   H175      1.0  0.24800  0.25764  0.56651  1.0000
  H   H176      1.0  0.24711  0.32240  0.67401  1.0000
  H   H177      1.0  0.24027  0.32820  0.85325  1.0000
  H   H178      1.0  0.27772  0.27150  0.64944  1.0000
  H   H179      1.0  0.11299  0.33876  0.96064  1.0000
  H   H180      1.0  0.26656  0.31775  0.83933  1.0000
  H   H181      1.0  0.21717  0.47627  0.77317  1.0000
  N   N9        1.0  0.22442  0.27140  0.85152  1.0000
  C   C114      1.0  0.22175  0.25073  0.88210  1.0000
  C   C115      1.0  0.20675  0.29243  0.85626  1.0000
  C   C116      1.0  0.24617  0.28419  0.85548  1.0000
  C   C117      1.0  0.22302  0.25673  0.81575  1.0000
  C   C118      1.0  0.24039  0.22995  0.88715  1.0000
  C   C119      1.0  0.18363  0.28194  0.85311  1.0000
  C   C120      1.0  0.24931  0.31244  0.83778  1.0000
  C   C121      1.0  0.22237  0.27419  0.78041  1.0000
  H   H182      1.0  0.21942  0.26106  0.90875  1.0000
  H   H183      1.0  0.20703  0.23862  0.87845  1.0000
  H   H184      1.0  0.20809  0.30951  0.83643  1.0000
  H   H185      1.0  0.20817  0.30213  0.88343  1.0000
  H   H186      1.0  0.24993  0.28686  0.88492  1.0000
  H   H187      1.0  0.25915  0.27062  0.84460  1.0000
  H   H188      1.0  0.23702  0.24264  0.81234  1.0000
  H   H189      1.0  0.20905  0.24290  0.81554  1.0000
  H   H190      1.0  0.02656  0.47979  0.89496  1.0000
  H   H191      1.0  0.23610  0.21571  0.90983  1.0000
  H   H192      1.0  0.24330  0.21759  0.86248  1.0000
  H   H193      1.0  0.18087  0.27225  0.82646  1.0000
  H   H194      1.0  0.17936  0.26797  0.87598  1.0000
  H   H195      1.0  0.12993  0.43171  0.52776  1.0000
  S   S36       1.0  0.13367  0.32914  0.52445  1.0000
  H   H196      1.0  0.01896  0.43573  0.94381  1.0000
  C   C122      1.0  0.20477  0.43388  0.72152  1.0000
  C   C123      1.0  0.19130  0.43010  0.75690  1.0000
  H   H197      1.0  0.19299  0.43657  0.85000  1.0000
  H   H198      1.0  0.30106  0.01493  0.86859  1.0000
  H   H199      1.0  0.21871  0.22935  0.57510  1.0000
  H   H200      1.0  0.22194  0.40412  0.79231  1.0000
  H   H201      1.0  0.19458  0.42953  0.69760  1.0000
  H   H202      1.0  0.26948  0.99826  0.84264  1.0000
  H   H203      1.0  0.05686  0.41586  0.99102  1.0000
  C   C124      1.0  0.29043  0.99391  0.79515  1.0000
  C   C125      1.0  0.22626  0.25884  0.98299  1.0000
  C   C126      1.0  0.10280  0.34909  0.98037  1.0000
  H   H204      1.0  0.19556  0.13951  0.50711  1.0000
  H   H205      1.0  0.00614  0.49034  0.59490  1.0000
  H   H206      1.0  0.06120  0.48673  0.95284  1.0000
  H   H207      1.0  0.24097  0.45299  0.83137  1.0000
  H   H208      1.0  0.24920  0.00100  0.98695  1.0000
  C   C127      1.0  0.08116  0.34156  0.98524  1.0000
  H   H209      1.0  0.21064  0.45486  0.71814  1.0000
  H   H210      1.0  0.14219  0.40137  0.51045  1.0000
  H   H211      1.0  0.21420  0.25035  0.50727  1.0000
  H   H212      1.0  0.28545  0.23208  0.98034  1.0000
  H   H213      1.0  0.07478  0.32542  0.96908  1.0000
  H   H214      1.0  0.29235  0.99752  0.90985  1.0000
  H   H215      1.0  0.18868  0.47912  0.77544  1.0000
  C   C128      1.0  0.28597  0.02041  0.49542  1.0000
  H   H216      1.0  0.00871  0.42962  0.58895  1.0000
  H   H217      1.0  0.99723  0.44764  0.51090  1.0000
  H   H218      1.0  0.24342  0.04635  0.51537  1.0000
  H   H219      1.0  0.14705  0.46280  0.97656  1.0000
  H   H220      1.0  0.22455  0.02182  0.50302  1.0000
  C   C129      1.0  0.20378  0.48541  0.82663  1.0000
  C   C130      1.0  0.15138  0.48413  0.98205  1.0000
  C   C131      1.0  0.22684  0.04404  0.50531  1.0000
  H   H221      1.0  0.08796  0.45129  0.99272  1.0000
  H   H222      1.0  0.16103  0.49115  0.95817  1.0000
  H   H223      1.0  0.21089  0.47381  0.84960  1.0000
  H   H224      1.0  0.22396  0.20230  0.49386  1.0000
  S   S37       1.0  0.18887  0.35431  0.49423  1.0000
  H   H225      1.0  0.22334  0.14064  0.49443  1.0000
  C   C132      1.0  0.10148  0.63793  0.00611  1.0000
  Fe  Fe21      1.0  0.19283  0.62752  0.37184  1.0000
  S   S38       1.0  0.21393  0.61824  0.42065  1.0000
  S   S39       1.0  0.20793  0.62588  0.31398  1.0000
  Fe  Fe22      1.0  0.15498  0.64237  0.42154  1.0000
  S   S40       1.0  0.17348  0.63512  0.47317  1.0000
  S   S41       1.0  0.11944  0.65220  0.41471  1.0000
  Fe  Fe23      1.0  0.20078  0.65737  0.44491  1.0000
  C   C133      1.0  0.13437  0.74098  0.29309  1.0000
  Fe  Fe24      1.0  0.18547  0.59667  0.44584  1.0000
  H   H226      1.0  0.29100  0.98327  0.06728  1.0000
  S   S42       1.0  0.18115  0.66735  0.39489  1.0000
  S   S43       1.0  0.16550  0.60319  0.39540  1.0000
  Fe  Fe25      1.0  0.16509  0.62573  0.01447  1.0000
  C   C134      1.0  0.15789  0.68539  0.30715  1.0000
  Fe  Fe26      1.0  0.18331  0.63069  0.09240  1.0000
  S   S44       1.0  0.21708  0.62134  0.07281  1.0000
  S   S45       1.0  0.17016  0.63224  0.15161  1.0000
  Fe  Fe27      1.0  0.20967  0.65054  0.02559  1.0000
  H   H227      1.0  0.20150  0.73628  0.46552  1.0000
  Fe  Fe28      1.0  0.20235  0.58834  0.03900  1.0000
  H   H228      1.0  0.13290  0.66271  0.33537  1.0000
  S   S46       1.0  0.17632  0.66141  0.04681  1.0000
  S   S47       1.0  0.16920  0.59641  0.06111  1.0000
  H   H229      1.0  0.21592  0.57076  0.23960  1.0000
  H   H230      1.0  0.13202  0.76317  0.28877  1.0000
  C   C135      1.0  0.23926  0.76199  0.01072  1.0000
  C   C136      1.0  0.13486  0.67430  0.30929  1.0000
  H   H231      1.0  0.16646  0.73859  0.31180  1.0000
  H   H232      1.0  0.12326  0.73168  0.27378  1.0000
  C   C137      1.0  0.18797  0.55438  0.18502  1.0000
  H   H233      1.0  0.16101  0.69506  0.33383  1.0000
  C   C138      1.0  0.10606  0.65499  0.48733  1.0000
  H   H234      1.0  0.18329  0.53940  0.20668  1.0000
  C   C139      1.0  0.11000  0.55593  0.48700  1.0000
  C   C140      1.0  0.20534  0.52051  0.14622  1.0000
  H   H235      1.0  0.18943  0.57400  0.19925  1.0000
  C   C141      1.0  0.07542  0.58203  0.49050  1.0000
  N   N10       1.0  0.16326  0.70455  0.27580  1.0000
  C   C142      1.0  0.19718  0.62630  0.26894  1.0000
  C   C143      1.0  0.21101  0.63151  0.23894  1.0000
  C   C144      1.0  0.20318  0.63307  0.20284  1.0000
  C   C145      1.0  0.18136  0.62924  0.19618  1.0000
  C   C146      1.0  0.16763  0.62335  0.22607  1.0000
  C   C147      1.0  0.17543  0.62194  0.26218  1.0000
  H   H236      1.0  0.22787  0.63488  0.24375  1.0000
  H   H237      1.0  0.21397  0.63774  0.18027  1.0000
  H   H238      1.0  0.15074  0.62018  0.22131  1.0000
  H   H239      1.0  0.16460  0.61757  0.28479  1.0000
  C   C148      1.0  0.23978  0.56924  0.12893  1.0000
  H   H240      1.0  0.00643  0.50309  0.29154  1.0000
  C   C149      1.0  0.23289  0.73465  0.01533  1.0000
  C   C150      1.0  0.16853  0.55795  0.15953  1.0000
  H   H241      1.0  0.24076  0.56879  0.09856  1.0000
  H   H242      1.0  0.03046  0.52532  0.02922  1.0000
  C   C151      1.0  0.10016  0.65216  0.45081  1.0000
  C   C152      1.0  0.07827  0.64992  0.44244  1.0000
  H   H243      1.0  0.07354  0.64792  0.41426  1.0000
  H   H244      1.0  0.10798  0.58379  0.43916  1.0000
  H   H245      1.0  0.07428  0.55083  0.44685  1.0000
  C   C153      1.0  0.27958  0.96739  0.47104  1.0000
  H   H246      1.0  0.31470  0.79754  0.04381  1.0000
  C   C154      1.0  0.30737  0.77901  0.03286  1.0000
  H   H247      1.0  0.27222  0.97783  0.10369  1.0000
  H   H248      1.0  0.15540  0.56331  0.99865  1.0000
  S   S48       1.0  0.23404  0.67925  0.99661  1.0000
  N   N11       1.0  0.20906  0.54619  0.16703  1.0000
  C   C155      1.0  0.11958  0.57728  0.46048  1.0000
  H   H249      1.0  0.11752  0.52291  0.05301  1.0000
  C   C156      1.0  0.01815  0.51574  0.01352  1.0000
  H   H250      1.0  0.27700  0.94709  0.46135  1.0000
  C   C157      1.0  0.07897  0.64161  0.00773  1.0000
  C   C158      1.0  0.28074  0.98940  0.44596  1.0000
  H   H251      1.0  0.31129  0.71613  0.02492  1.0000
  S   S49       1.0  0.28891  0.87214  0.49046  1.0000
  C   C159      1.0  0.22524  0.50619  0.12938  1.0000
  N   N12       1.0  0.13302  0.53011  0.00028  1.0000
  H   H252      1.0  0.14973  0.52115  0.09113  1.0000
  H   H253      1.0  0.15240  0.73539  0.21086  1.0000
  H   H254      1.0  0.14640  0.70638  0.18438  1.0000
  C   C160      1.0  0.06241  0.65020  0.47031  1.0000
  H   H255      1.0  0.32169  0.92949  0.47517  1.0000
  H   H256      1.0  0.27745  0.61085  0.46851  1.0000
  C   C161      1.0  0.20982  0.51707  0.00895  1.0000
  C   C162      1.0  0.21722  0.74064  0.47602  1.0000
  H   H257      1.0  0.13201  0.65982  0.28694  1.0000
  H   H258      1.0  0.19721  0.50528  0.16420  1.0000
  H   H259      1.0  0.21867  0.52426  0.21599  1.0000
  H   H260      1.0  0.04562  0.64851  0.46351  1.0000
  H   H261      1.0  0.22242  0.72900  0.03789  1.0000
  H   H262      1.0  0.06109  0.58202  0.43634  1.0000
  H   H263      1.0  0.28968  0.78172  0.03610  1.0000
  S   S50       1.0  0.21070  0.54275  0.04292  1.0000
  H   H264      1.0  0.19235  0.71792  0.24779  1.0000
  C   C163      1.0  0.06440  0.56730  0.45894  1.0000
  H   H265      1.0  0.16850  0.66699  0.30651  1.0000
  C   C164      1.0  0.20206  0.70505  0.30122  1.0000
  H   H266      1.0  0.31221  0.76114  0.04964  1.0000
  H   H267      1.0  0.12232  0.69042  0.30913  1.0000
  H   H268      1.0  0.17342  0.71124  0.19737  1.0000
  H   H269      1.0  0.13299  0.55290  0.05044  1.0000
  S   S51       1.0  0.18337  0.55921  0.48464  1.0000
  C   C165      1.0  0.22974  0.56520  0.22156  1.0000
  H   H270      1.0  0.21902  0.70299  0.29163  1.0000
  H   H271      1.0  0.19120  0.68237  0.25541  1.0000
  C   C166      1.0  0.22474  0.54067  0.19751  1.0000
  H   H272      1.0  0.04891  0.55863  0.46843  1.0000
  H   H273      1.0  0.23803  0.57862  0.47312  1.0000
  H   H274      1.0  0.17193  0.57170  0.13609  1.0000
  H   H275      1.0  0.20039  0.72511  0.31429  1.0000
  H   H276      1.0  0.08886  0.51690  0.99708  1.0000
  H   H277      1.0  0.15496  0.56737  0.17513  1.0000
  C   C167      1.0  0.13265  0.53136  0.04150  1.0000
  H   H278      1.0  0.23467  0.58314  0.20513  1.0000
  H   H279      1.0  0.24720  0.58852  0.13721  1.0000
  H   H280      1.0  0.12536  0.59534  0.47489  1.0000
  H   H281      1.0  0.23352  0.77702  0.02992  1.0000
  H   H282      1.0  0.20282  0.52122  0.43107  1.0000
  H   H283      1.0  0.08226  0.60111  0.47956  1.0000
  C   C168      1.0  0.18714  0.70225  0.26804  1.0000
  S   S52       1.0  0.22584  0.68417  0.47391  1.0000
  H   H284      1.0  0.19969  0.68873  0.32196  1.0000
  C   C169      1.0  0.19814  0.50979  0.45524  1.0000
  H   H285      1.0  0.16699  0.52163  0.05219  1.0000
  H   H286      1.0  0.12948  0.73571  0.32162  1.0000
  C   C170      1.0  0.15819  0.73347  0.28607  1.0000
  C   C171      1.0  0.15073  0.51595  0.06173  1.0000
  H   H287      1.0  0.10505  0.53837  0.47050  1.0000
  H   H288      1.0  0.24328  0.55978  0.23993  1.0000
  C   C172      1.0  0.09175  0.53880  0.00065  1.0000
  H   H289      1.0  0.19439  0.52455  0.12283  1.0000
  H   H290      1.0  0.13372  0.56818  0.44608  1.0000
  C   C173      1.0  0.21589  0.56883  0.14145  1.0000
  C   C174      1.0  0.01665  0.51565  0.48856  1.0000
  H   H291      1.0  0.24039  0.53266  0.18752  1.0000
  H   H292      1.0  0.25006  0.55238  0.13888  1.0000
  H   H293      1.0  0.16496  0.74822  0.26588  1.0000
  H   H294      1.0  0.11152  0.64706  0.02635  1.0000
  C   C175      1.0  0.15188  0.69641  0.24154  1.0000
  H   H295      1.0  0.16289  0.53818  0.14970  1.0000
  H   H296      1.0  0.07177  0.65368  0.02928  1.0000
  H   H297      1.0  0.20608  0.56888  0.11622  1.0000
  H   H298      1.0  0.13418  0.69646  0.24517  1.0000
  H   H299      1.0  0.15615  0.67509  0.23481  1.0000
  H   H300      1.0  0.21225  0.58893  0.15380  1.0000
  C   C176      1.0  0.15652  0.71367  0.20695  1.0000
  H   H301      1.0  0.23302  0.51878  0.10789  1.0000
  H   H302      1.0  0.11634  0.56873  0.99460  1.0000
  H   H303      1.0  0.26406  0.57300  0.49162  1.0000
  H   H304      1.0  0.08902  0.54440  0.02965  1.0000
  C   C177      1.0  0.18818  0.52320  0.48456  1.0000
  C   C178      1.0  0.23197  0.71929  0.48201  1.0000
  H   H305      1.0  0.21089  0.78384  0.47961  1.0000
  H   H306      1.0  0.14862  0.49371  0.06042  1.0000
  H   H307      1.0  0.16774  0.53122  0.99396  1.0000
  H   H308      1.0  0.23702  0.49925  0.15006  1.0000
  H   H309      1.0  0.32331  0.97818  0.46628  1.0000
  H   H310      1.0  0.27907  0.98573  0.41704  1.0000
  C   C179      1.0  0.00021  0.52832  0.46854  1.0000
  H   H311      1.0  0.27901  0.64472  0.48396  1.0000
  H   H312      1.0  0.24120  0.62847  0.48036  1.0000
  C   C180      1.0  0.22263  0.76776  0.48410  1.0000
  H   H313      1.0  0.32755  0.93739  0.42856  1.0000
  C   C181      1.0  0.31988  0.71667  0.99811  1.0000
  H   H314      1.0  0.32622  0.69572  0.99411  1.0000
  C   C182      1.0  0.27471  0.62381  0.49275  1.0000
  H   H315      1.0  0.24242  0.53203  0.49150  1.0000
  H   H316      1.0  0.31419  0.91500  0.79030  1.0000
  C   C183      1.0  0.28111  0.97183  0.50862  1.0000
  H   H317      1.0  0.21195  0.54398  0.96232  1.0000
  Fe  Fe29      1.0  0.01927  0.62913  0.54462  1.0000
  S   S53       1.0  0.04875  0.65582  0.54233  1.0000
  S   S54       1.0  0.02263  0.59482  0.58535  1.0000
  Fe  Fe30      1.0  0.28622  0.89947  0.53903  1.0000
  C   C184      1.0  0.25122  0.93830  0.86892  1.0000
  Fe  Fe31      1.0  0.00739  0.61675  0.85778  1.0000
  Fe  Fe32      1.0  0.27575  0.83805  0.52616  1.0000
  S   S55       1.0  0.30859  0.82475  0.54537  1.0000
  H   H318      1.0  0.32787  0.82568  0.72094  1.0000
  Fe  Fe33      1.0  0.30318  0.85459  0.59148  1.0000
  H   H319      1.0  0.29291  0.91694  0.84745  1.0000
  C   C185      1.0  0.18238  0.50772  0.51578  1.0000
  S   S56       1.0  0.26999  0.86690  0.57341  1.0000
  H   H320      1.0  0.10840  0.51355  0.53718  1.0000
  H   H321      1.0  0.06685  0.54854  0.54569  1.0000
  H   H322      1.0  0.08966  0.70197  0.92312  1.0000
  H   H323      1.0  0.19503  0.62561  0.56134  1.0000
  Fe  Fe34      1.0  0.01552  0.62100  0.93926  1.0000
  H   H324      1.0  0.10212  0.53451  0.57644  1.0000
  S   S57       1.0  0.02647  0.59093  0.89727  1.0000
  S   S58       1.0  0.02167  0.63100  0.80360  1.0000
  Fe  Fe35      1.0  0.29267  0.86086  0.86874  1.0000
  S   S59       1.0  0.27120  0.87256  0.91677  1.0000
  H   H325      1.0  0.21351  0.64648  0.53702  1.0000
  C   C186      1.0  0.25781  0.75298  0.50357  1.0000
  Fe  Fe36      1.0  0.28312  0.83319  0.94329  1.0000
  C   C187      1.0  0.09014  0.65615  0.51508  1.0000
  Fe  Fe37      1.0  0.30013  0.89295  0.94031  1.0000
  S   S60       1.0  0.02538  0.52923  0.52966  1.0000
  S   S61       1.0  0.30312  0.82085  0.89419  1.0000
  H   H326      1.0  0.24881  0.64209  0.52272  1.0000
  H   H327      1.0  0.07193  0.60435  0.56141  1.0000
  S   S62       1.0  0.26114  0.80498  0.97819  1.0000
  H   H328      1.0  0.14507  0.56581  0.93582  1.0000
  C   C188      1.0  0.27849  0.87300  0.73592  1.0000
  H   H329      1.0  0.12281  0.65711  0.49408  1.0000
  C   C189      1.0  0.27184  0.95277  0.88057  1.0000
  S   S63       1.0  0.99822  0.64843  0.89903  1.0000
  S   S64       1.0  0.24840  0.80912  0.50908  1.0000
  C   C190      1.0  0.21072  0.52309  0.97144  1.0000
  C   C191      1.0  0.21073  0.50199  0.94565  1.0000
  H   H330      1.0  0.26460  0.88616  0.73994  1.0000
  C   C192      1.0  0.25298  0.77009  0.98166  1.0000
  C   C193      1.0  0.24451  0.57792  0.59048  1.0000
  C   C194      1.0  0.29691  0.96664  0.97624  1.0000
  C   C195      1.0  0.09771  0.61143  0.95153  1.0000
  C   C196      1.0  0.07525  0.61450  0.95371  1.0000
  C   C197      1.0  0.31407  0.83899  0.72495  1.0000
  H   H331      1.0  0.10491  0.59994  0.92942  1.0000
  H   H332      1.0  0.06533  0.60534  0.93348  1.0000
  C   C198      1.0  0.30351  0.85011  0.69421  1.0000
  C   C199      1.0  0.28569  0.86729  0.69996  1.0000
  H   H333      1.0  0.03322  0.71823  0.93729  1.0000
  C   C200      1.0  0.28911  0.86193  0.76667  1.0000
  C   C201      1.0  0.30703  0.84496  0.76090  1.0000
  H   H334      1.0  0.27957  0.93085  0.80890  1.0000
  C   C202      1.0  0.09530  0.52344  0.55325  1.0000
  Fe  Fe38      1.0  0.00959  0.56951  0.54089  1.0000
  S   S65       1.0  0.13904  0.61916  0.97239  1.0000
  C   C203      1.0  0.28687  0.77556  0.61290  1.0000
  Fe  Fe39      1.0  0.32142  0.86047  0.51306  1.0000
  H   H335      1.0  0.30302  0.78488  0.61231  1.0000
  H   H336      1.0  0.12229  0.50100  0.96056  1.0000
  C   C204      1.0  0.24039  0.71464  0.99122  1.0000
  H   H337      1.0  0.02780  0.64788  0.72843  1.0000
  H   H338      1.0  0.11850  0.69076  0.88149  1.0000
  H   H339      1.0  0.21089  0.60469  0.50389  1.0000
  H   H340      1.0  0.25710  0.56581  0.60489  1.0000
  H   H341      1.0  0.21372  0.50376  0.82285  1.0000
  H   H342      1.0  0.31648  0.95096  0.78877  1.0000
  H   H343      1.0  0.31540  0.83623  0.78411  1.0000
  H   H344      1.0  0.26390  0.95569  0.96946  1.0000
  H   H345      1.0  0.30039  0.76306  0.98034  1.0000
  H   H346      1.0  0.09476  0.65912  0.54313  1.0000
  H   H347      1.0  0.24162  0.93329  0.89386  1.0000
  H   H348      1.0  0.27003  0.75595  0.93401  1.0000
  C   C205      1.0  0.01562  0.63248  0.72916  1.0000
  H   H349      1.0  0.01808  0.54649  0.97084  1.0000
  H   H350      1.0  0.32735  0.72636  0.92403  1.0000
  C   C206      1.0  0.00556  0.62515  0.69650  1.0000
  N   N13       1.0  0.07055  0.68447  0.88012  1.0000
  C   C207      1.0  0.05419  0.70556  0.89232  1.0000
  C   C208      1.0  0.08018  0.69421  0.84432  1.0000
  C   C209      1.0  0.08768  0.68221  0.90918  1.0000
  C   C210      1.0  0.05904  0.65801  0.87615  1.0000
  C   C211      1.0  0.29251  0.93493  0.82880  1.0000
  C   C212      1.0  0.06437  0.69832  0.81241  1.0000
  C   C213      1.0  0.11070  0.67400  0.89695  1.0000
  C   C214      1.0  0.07183  0.63476  0.85794  1.0000
  H   H351      1.0  0.06158  0.72600  0.89283  1.0000
  H   H352      1.0  0.04061  0.70725  0.87286  1.0000
  H   H353      1.0  0.09288  0.67999  0.83426  1.0000
  H   H354      1.0  0.08843  0.71383  0.84823  1.0000
  C   C215      1.0  0.99619  0.51439  0.95916  1.0000
  H   H355      1.0  0.08279  0.66789  0.93134  1.0000
  H   H356      1.0  0.05351  0.65013  0.90322  1.0000
  H   H357      1.0  0.04409  0.66112  0.86015  1.0000
  H   H358      1.0  0.28563  0.76334  0.58775  1.0000
  H   H359      1.0  0.24088  0.95140  0.85139  1.0000
  S   S66       1.0  0.27907  0.86969  0.81140  1.0000
  H   H360      1.0  0.05314  0.71567  0.81699  1.0000
  H   H361      1.0  0.07366  0.70319  0.78709  1.0000
  H   H362      1.0  0.05519  0.67979  0.80675  1.0000
  H   H363      1.0  0.12058  0.66996  0.92165  1.0000
  H   H364      1.0  0.28604  0.76195  0.63719  1.0000
  H   H365      1.0  0.11150  0.65544  0.88046  1.0000
  H   H366      1.0  0.22162  0.62922  0.57876  1.0000
  H   H367      1.0  0.06119  0.61708  0.85542  1.0000
  H   H368      1.0  0.08557  0.62789  0.87468  1.0000
  C   C216      1.0  0.11092  0.62316  0.97761  1.0000
  C   C217      1.0  0.01118  0.52768  0.98050  1.0000
  H   H369      1.0  0.07417  0.52863  0.50776  1.0000
  C   C218      1.0  0.04365  0.70052  0.93024  1.0000
  H   H370      1.0  0.27743  0.87614  0.67673  1.0000
  C   C219      1.0  0.25408  0.72276  0.96215  1.0000
  H   H371      1.0  0.25842  0.61508  0.57180  1.0000
  Fe  Fe40      1.0  0.99512  0.57108  0.91001  1.0000
  S   S67       1.0  0.31904  0.88873  0.56044  1.0000
  C   C220      1.0  0.10141  0.58387  0.54005  1.0000
  H   H372      1.0  0.21161  0.58466  0.54363  1.0000
  C   C221      1.0  0.27470  0.97168  0.97657  1.0000
  C   C222      1.0  0.21913  0.60259  0.53064  1.0000
  S   S68       1.0  0.03782  0.63730  0.98215  1.0000
  C   C223      1.0  0.21225  0.62744  0.55341  1.0000
  H   H373      1.0  0.14917  0.52989  0.92881  1.0000
  C   C224      1.0  0.06827  0.65350  0.50677  1.0000
  C   C225      1.0  0.25529  0.59494  0.55963  1.0000
  H   H374      1.0  0.08084  0.57553  0.58876  1.0000
  C   C226      1.0  0.32450  0.74836  0.91928  1.0000
  H   H375      1.0  0.26631  0.97092  0.89594  1.0000
  C   C227      1.0  0.27666  0.98145  0.82620  1.0000
  H   H376      1.0  0.25992  0.70769  0.94308  1.0000
  H   H377      1.0  0.07715  0.63995  0.82973  1.0000
  H   H378      1.0  0.31374  0.95538  0.88792  1.0000
  N   N14       1.0  0.24748  0.78971  0.62658  1.0000
  C   C228      1.0  0.24083  0.76653  0.60286  1.0000
  C   C229      1.0  0.26943  0.79822  0.61351  1.0000
  C   C230      1.0  0.23181  0.81294  0.62005  1.0000
  C   C231      1.0  0.24717  0.78053  0.66620  1.0000
  C   C232      1.0  0.21777  0.75619  0.60886  1.0000
  H   H379      1.0  0.30814  0.72051  0.97616  1.0000
  C   C233      1.0  0.23491  0.83860  0.64278  1.0000
  C   C234      1.0  0.26257  0.79481  0.69245  1.0000
  H   H380      1.0  0.24241  0.77224  0.57342  1.0000
  H   H381      1.0  0.25163  0.74856  0.60689  1.0000
  H   H382      1.0  0.27560  0.81492  0.63003  1.0000
  H   H383      1.0  0.26857  0.80668  0.58516  1.0000
  H   H384      1.0  0.23206  0.81914  0.59055  1.0000
  H   H385      1.0  0.21505  0.80683  0.62623  1.0000
  H   H386      1.0  0.23066  0.78268  0.67802  1.0000
  H   H387      1.0  0.25125  0.75850  0.66870  1.0000
  H   H388      1.0  0.21622  0.73650  0.59476  1.0000
  H   H389      1.0  0.21380  0.75278  0.63817  1.0000
  H   H390      1.0  0.20575  0.77018  0.59620  1.0000
  H   H391      1.0  0.28575  0.61768  0.51502  1.0000
  C   C235      1.0  0.30736  0.97072  0.86799  1.0000
  S   S69       1.0  0.31296  0.84116  0.64955  1.0000
  H   H392      1.0  0.22967  0.83526  0.67158  1.0000
  H   H393      1.0  0.22451  0.85517  0.63156  1.0000
  H   H394      1.0  0.25155  0.84611  0.64184  1.0000
  H   H395      1.0  0.27969  0.78978  0.68652  1.0000
  H   H396      1.0  0.25929  0.78770  0.72090  1.0000
  H   H397      1.0  0.26065  0.81709  0.69239  1.0000
  S   S70       1.0  0.27824  0.94519  0.54179  1.0000
  N   N15       1.0  0.28741  0.96031  0.85016  1.0000
  C   C236      1.0  0.26003  0.75019  0.95707  1.0000
  S   S71       1.0  0.32062  0.88358  0.89077  1.0000
  H   H398      1.0  0.25472  0.91878  0.85513  1.0000
  N   N16       1.0  0.09194  0.56585  0.51160  1.0000
  H   H399      1.0  0.23721  0.59135  0.61156  1.0000
  H   H400      1.0  0.21198  0.50694  0.91681  1.0000
  S   S72       1.0  0.31044  0.85478  0.97061  1.0000
  C   C237      1.0  0.00977  0.62028  0.76267  1.0000
  H   H401      1.0  0.18756  0.49307  0.83482  1.0000
  H   H402      1.0  0.05548  0.69797  0.95251  1.0000
  H   H403      1.0  0.32780  0.98423  0.98580  1.0000
  H   H404      1.0  0.11348  0.54716  0.95648  1.0000
  C   C238      1.0  0.06578  0.63015  0.98133  1.0000
  H   H405      1.0  0.17475  0.51774  0.53876  1.0000
  C   C239      1.0  0.25090  0.62398  0.50510  1.0000
  N   N17       1.0  0.24300  0.59872  0.52453  1.0000
  H   H406      1.0  0.12370  0.54789  0.50348  1.0000
  H   H407      1.0  0.26254  0.97278  0.81245  1.0000
  C   C240      1.0  0.24060  0.54689  0.51395  1.0000
  H   H408      1.0  0.27985  0.93912  0.90099  1.0000
  C   C241      1.0  0.31402  0.93348  0.80742  1.0000
  S   S73       1.0  0.30858  0.93476  0.96342  1.0000
  H   H409      1.0  0.27141  0.58566  0.55391  1.0000
  H   H410      1.0  0.11577  0.57411  0.55282  1.0000
  C   C242      1.0  0.08615  0.59282  0.57143  1.0000
  C   C243      1.0  0.15463  0.54761  0.94422  1.0000
  H   H411      1.0  0.08528  0.50700  0.56511  1.0000
  H   H412      1.0  0.09484  0.60674  0.58947  1.0000
  H   H413      1.0  0.23244  0.56336  0.58153  1.0000
  H   H414      1.0  0.30731  0.75384  0.92287  1.0000
  H   H415      1.0  0.06209  0.58905  0.50880  1.0000
  S   S74       1.0  0.19783  0.61625  0.99075  1.0000
  H   H416      1.0  0.25149  0.53990  0.53606  1.0000
  H   H417      1.0  0.00992  0.63495  0.67087  1.0000
  C   C244      1.0  0.08099  0.54186  0.52900  1.0000
  H   H418      1.0  0.10748  0.60282  0.52712  1.0000
  H   H419      1.0  0.03310  0.68267  0.93007  1.0000
  H   H420      1.0  0.07938  0.55020  0.98470  1.0000
  C   C245      1.0  0.24299  0.77433  0.49778  1.0000
  C   C246      1.0  0.13058  0.50133  0.98737  1.0000
  H   H421      1.0  0.27352  0.75738  0.51410  1.0000
  H   H422      1.0  0.22365  0.54589  0.52323  1.0000
  H   H423      1.0  0.31058  0.79577  0.97840  1.0000
  C   C247      1.0  0.24680  0.57513  0.49924  1.0000
  H   H424      1.0  0.28963  0.98154  0.77004  1.0000
  H   H425      1.0  0.04218  0.50838  0.90497  1.0000
  H   H426      1.0  0.17157  0.55158  0.93612  1.0000
  H   H427      1.0  0.32780  0.93117  0.82628  1.0000
  S   S75       1.0  0.00848  0.60291  0.49903  1.0000
  H   H428      1.0  0.26394  0.70970  0.50091  1.0000
  C   C248      1.0  0.25228  0.72581  0.49606  1.0000
  H   H429      1.0  0.32071  0.97369  0.84812  1.0000
  C   C249      1.0  0.15329  0.54311  0.98604  1.0000
  C   C250      1.0  0.11427  0.54719  0.98685  1.0000
  H   H430      1.0  0.32499  0.95641  0.53488  1.0000
  C   C251      1.0  0.31060  0.98777  0.98598  1.0000
  C   C252      1.0  0.31303  0.77563  0.99195  1.0000
  S   S76       1.0  0.62988  0.15281  0.41598  1.0000
  H   H431      1.0  0.65877  0.00106  0.14842  1.0000
  C   C253      1.0  0.44003  0.02200  0.37177  1.0000
  H   H432      1.0  0.33003  0.13858  0.17927  1.0000
  H   H433      1.0  0.62419  0.10781  0.01461  1.0000
  H   H434      1.0  0.63543  0.08430  0.39875  1.0000
  H   H435      1.0  0.62936  0.08913  0.13497  1.0000
  C   C254      1.0  0.62637  0.07298  0.42022  1.0000
  C   C255      1.0  0.50648  0.01452  0.44596  1.0000
  H   H436      1.0  0.51028  0.02489  0.42049  1.0000
  N   N18       1.0  0.62748  0.06195  0.48952  1.0000
  H   H437      1.0  0.44502  0.10650  0.00963  1.0000
  H   H438      1.0  0.36559  0.02468  0.47389  1.0000
  H   H439      1.0  0.33768  0.02185  0.46072  1.0000
  H   H440      1.0  0.44572  0.01716  0.42844  1.0000
  C   C256      1.0  0.61271  0.14975  0.45460  1.0000
  H   H441      1.0  0.63511  0.99384  0.46442  1.0000
  H   H442      1.0  0.62530  0.05177  0.41092  1.0000
  H   H443      1.0  0.44087  0.03496  0.04218  1.0000
  H   H444      1.0  0.42360  0.05089  0.12144  1.0000
  C   C257      1.0  0.39820  0.13828  0.46263  1.0000
  H   H445      1.0  0.42798  0.13552  0.05855  1.0000
  H   H446      1.0  0.38743  0.14871  0.44392  1.0000
  H   H447      1.0  0.42625  0.16008  0.44431  1.0000
  N   N19       1.0  0.44884  0.06033  0.41690  1.0000
  H   H448      1.0  0.44419  0.02923  0.10028  1.0000
  C   C258      1.0  0.45840  0.07787  0.38694  1.0000
  C   C259      1.0  0.46184  0.06439  0.45098  1.0000
  C   C260      1.0  0.42555  0.06732  0.42522  1.0000
  H   H449      1.0  0.45227  0.13081  0.08536  1.0000
  C   C261      1.0  0.46060  0.10814  0.39609  1.0000
  H   H450      1.0  0.44542  0.00093  0.36551  1.0000
  C   C262      1.0  0.41156  0.07769  0.39318  1.0000
  C   C263      1.0  0.43436  0.13157  0.48739  1.0000
  C   C264      1.0  0.44887  0.07349  0.09194  1.0000
  H   H451      1.0  0.44903  0.07693  0.36141  1.0000
  H   H452      1.0  0.47480  0.07023  0.37929  1.0000
  H   H453      1.0  0.45320  0.14667  0.04147  1.0000
  H   H454      1.0  0.39035  0.05745  0.03611  1.0000
  H   H455      1.0  0.46673  0.07139  0.08973  1.0000
  H   H456      1.0  0.42424  0.08347  0.44603  1.0000
  H   H457      1.0  0.65490  0.06656  0.45269  1.0000
  C   C265      1.0  0.41547  0.08355  0.05710  1.0000
  H   H458      1.0  0.50454  0.01955  0.03428  1.0000
  H   H459      1.0  0.44609  0.11651  0.40999  1.0000
  H   H460      1.0  0.47475  0.11136  0.41365  1.0000
  H   H461      1.0  0.46323  0.12008  0.37050  1.0000
  C   C266      1.0  0.49556  0.01016  0.01284  1.0000
  C   C267      1.0  0.65641  0.06066  0.13535  1.0000
  H   H462      1.0  0.37712  0.16108  0.01612  1.0000
  H   H463      1.0  0.58508  0.14097  0.42210  1.0000
  H   H464      1.0  0.39457  0.07935  0.40282  1.0000
  H   H465      1.0  0.41190  0.06413  0.36941  1.0000
  C   C268      1.0  0.45157  0.03099  0.40639  1.0000
  H   H466      1.0  0.61011  0.08246  0.42155  1.0000
  C   C269      1.0  0.65084  0.22631  0.42111  1.0000
  C   C270      1.0  0.59096  0.14385  0.44948  1.0000
  H   H467      1.0  0.56001  0.13692  0.47531  1.0000
  H   H468      1.0  0.40897  0.03894  0.06467  1.0000
  C   C271      1.0  0.61009  0.11810  0.00387  1.0000
  H   H469      1.0  0.64415  0.03904  0.20246  1.0000
  C   C272      1.0  0.39013  0.11874  0.48698  1.0000
  C   C273      1.0  0.57672  0.14157  0.47955  1.0000
  S   S77       1.0  0.35889  0.10754  0.00223  1.0000
  H   H470      1.0  0.38946  0.06146  0.08420  1.0000
  H   H471      1.0  0.63562  0.23822  0.42321  1.0000
  C   C274      1.0  0.44552  0.05474  0.03028  1.0000
  H   H472      1.0  0.64237  0.08733  0.17813  1.0000
  H   H473      1.0  0.64716  0.20782  0.40552  1.0000
  H   H474      1.0  0.41158  0.09706  0.08052  1.0000
  H   H475      1.0  0.58919  0.08426  0.01405  1.0000
  S   S78       1.0  0.46198  0.13997  0.48645  1.0000
  H   H476      1.0  0.46335  0.05304  0.02753  1.0000
  C   C275      1.0  0.66088  0.03419  0.21067  1.0000
  H   H477      1.0  0.46779  0.10018  0.03735  1.0000
  S   S79       1.0  0.36250  0.11069  0.48948  1.0000
  H   H478      1.0  0.64465  0.04449  0.14128  1.0000
  H   H479      1.0  0.44402  0.03449  0.34732  1.0000
  C   C276      1.0  0.64530  0.08715  0.14819  1.0000
  H   H480      1.0  0.44562  0.09115  0.10983  1.0000
  C   C277      1.0  0.64116  0.01439  0.47023  1.0000
  H   H481      1.0  0.64915  0.02177  0.44484  1.0000
  C   C278      1.0  0.44086  0.04875  0.11404  1.0000
  S   S80       1.0  0.33029  0.09335  0.40267  1.0000
  H   H482      1.0  0.42242  0.02123  0.37638  1.0000
  H   H483      1.0  0.64050  0.09706  0.46119  1.0000
  H   H484      1.0  0.41613  0.09835  0.38404  1.0000
  H   H485      1.0  0.41003  0.09520  0.03257  1.0000
  C   C279      1.0  0.40068  0.05867  0.06062  1.0000
  H   H486      1.0  0.47931  0.06129  0.44515  1.0000
  H   H487      1.0  0.46894  0.02592  0.40246  1.0000
  C   C280      1.0  0.44999  0.10304  0.03835  1.0000
  C   C281      1.0  0.32843  0.13789  0.23855  1.0000
  C   C282      1.0  0.59025  0.10477  0.00342  1.0000
  N   N20       1.0  0.43939  0.07822  0.05459  1.0000
  C   C283      1.0  0.44536  0.13024  0.05763  1.0000
  C   C284      1.0  0.42019  0.14474  0.46301  1.0000
  H   H488      1.0  0.44968  0.04761  0.14027  1.0000
  Fe  Fe41      1.0  0.33520  0.12098  0.45000  1.0000
  C   C285      1.0  0.65947  0.21773  0.45899  1.0000
  H   H489      1.0  0.41730  0.04961  0.43791  1.0000
  C   C286      1.0  0.45590  0.04649  0.48447  1.0000
  H   H490      1.0  0.65429  0.10536  0.13975  1.0000
  H   H491      1.0  0.60938  0.03143  0.46149  1.0000
  H   H492      1.0  0.46016  0.08557  0.46058  1.0000
  H   H493      1.0  0.51852  0.04628  0.47963  1.0000
  C   C287      1.0  0.63833  0.07499  0.45677  1.0000
  H   H494      1.0  0.64060  0.27109  0.46585  1.0000
  H   H495      1.0  0.59491  0.07424  0.47549  1.0000
  H   H496      1.0  0.46103  0.02506  0.48079  1.0000
  H   H497      1.0  0.65782  0.06177  0.10491  1.0000
  H   H498      1.0  0.41261  0.18024  0.99834  1.0000
  H   H499      1.0  0.62090  0.22487  0.49261  1.0000
  C   C288      1.0  0.38795  0.14986  0.99835  1.0000
  H   H500      1.0  0.64783  0.20310  0.47050  1.0000
  C   C289      1.0  0.64439  0.25873  0.49073  1.0000
  C   C290      1.0  0.34878  0.02373  0.48406  1.0000
  H   H501      1.0  0.34459  0.14522  0.24152  1.0000
  C   C291      1.0  0.62015  0.15360  0.49005  1.0000
  C   C292      1.0  0.51109  0.02665  0.47935  1.0000
  C   C293      1.0  0.62217  0.03281  0.48237  1.0000
  H   H502      1.0  0.43852  0.04775  0.49135  1.0000
  H   H503      1.0  0.65318  0.01171  0.49214  1.0000
  Fe  Fe42      1.0  0.48665  0.12303  0.52680  1.0000
  S   S81       1.0  0.47795  0.09180  0.56895  1.0000
  H   H504      1.0  0.40686  0.15804  0.55035  1.0000
  Fe  Fe43      1.0  0.53318  0.12597  0.55376  1.0000
  S   S82       1.0  0.52732  0.09510  0.59866  1.0000
  S   S83       1.0  0.56681  0.14356  0.55356  1.0000
  Fe  Fe44      1.0  0.50990  0.07267  0.55559  1.0000
  S   S84       1.0  0.51297  0.02722  0.55416  1.0000
  Fe  Fe45      1.0  0.49604  0.11707  0.60839  1.0000
  S   S85       1.0  0.47789  0.12438  0.66152  1.0000
  H   H505      1.0  0.59434  0.17804  0.96506  1.0000
  S   S86       1.0  0.50293  0.14998  0.56695  1.0000
  Fe  Fe46      1.0  0.50603  0.11920  0.86902  1.0000
  S   S87       1.0  0.50850  0.14602  0.91835  1.0000
  S   S88       1.0  0.52334  0.12998  0.81581  1.0000
  Fe  Fe47      1.0  0.48574  0.07370  0.91355  1.0000
  S   S89       1.0  0.48688  0.09687  0.96559  1.0000
  S   S90       1.0  0.47345  0.03103  0.91272  1.0000
  Fe  Fe48      1.0  0.47483  0.13191  0.93179  1.0000
  H   H506      1.0  0.63382  0.10344  0.54324  1.0000
  Fe  Fe49      1.0  0.52019  0.10841  0.94786  1.0000
  H   H507      1.0  0.65817  0.05285  0.51446  1.0000
  S   S91       1.0  0.47157  0.10802  0.88016  1.0000
  S   S92       1.0  0.51972  0.08250  0.89802  1.0000
  H   H508      1.0  0.54707  0.01188  0.98254  1.0000
  H   H509      1.0  0.46476  0.05368  0.50858  1.0000
  C   C294      1.0  0.42634  0.11165  0.51121  1.0000
  H   H510      1.0  0.63686  0.15790  0.49435  1.0000
  H   H511      1.0  0.63615  0.05101  0.54522  1.0000
  C   C295      1.0  0.42372  0.18562  0.68252  1.0000
  H   H512      1.0  0.43706  0.10100  0.52967  1.0000
  C   C296      1.0  0.56473  0.99735  0.53630  1.0000
  H   H513      1.0  0.39234  0.08996  0.95390  1.0000
  C   C297      1.0  0.60577  0.15212  0.52003  1.0000
  H   H514      1.0  0.65865  0.08924  0.55899  1.0000
  H   H515      1.0  0.35549  0.00678  0.53699  1.0000
  H   H516      1.0  0.43260  0.19932  0.70064  1.0000
  S   S93       1.0  0.63658  0.16126  0.98697  1.0000
  C   C298      1.0  0.59325  0.15755  0.97577  1.0000
  C   C299      1.0  0.57339  0.14428  0.97554  1.0000
  C   C300      1.0  0.49095  0.12460  0.70412  1.0000
  C   C301      1.0  0.51328  0.12660  0.70645  1.0000
  C   C302      1.0  0.52301  0.12809  0.74090  1.0000
  C   C303      1.0  0.51055  0.12711  0.77319  1.0000
  C   C304      1.0  0.48826  0.12466  0.77084  1.0000
  C   C305      1.0  0.47850  0.12367  0.73640  1.0000
  H   H517      1.0  0.52300  0.12746  0.68175  1.0000
  H   H518      1.0  0.54025  0.13007  0.74251  1.0000
  H   H519      1.0  0.47853  0.12401  0.79553  1.0000
  H   H520      1.0  0.46122  0.12215  0.73481  1.0000
  C   C306      1.0  0.50651  0.01305  0.51223  1.0000
  C   C307      1.0  0.42270  0.14580  0.96639  1.0000
  H   H521      1.0  0.49843  0.04414  0.97608  1.0000
  H   H522      1.0  0.45908  0.20038  0.58473  1.0000
  H   H523      1.0  0.38379  0.15145  0.57946  1.0000
  H   H524      1.0  0.39434  0.18010  0.62592  1.0000
  C   C308      1.0  0.43672  0.18213  0.64657  1.0000
  H   H525      1.0  0.43663  0.19666  0.55376  1.0000
  H   H526      1.0  0.38707  0.18327  0.55551  1.0000
  H   H527      1.0  0.46180  0.18034  0.54497  1.0000
  C   C309      1.0  0.54530  0.00904  0.95284  1.0000
  C   C310      1.0  0.40434  0.10541  0.51112  1.0000
  C   C311      1.0  0.58404  0.14591  0.51493  1.0000
  C   C312      1.0  0.62348  0.24516  0.50404  1.0000
  H   H528      1.0  0.43507  0.10635  0.60073  1.0000
  H   H529      1.0  0.43338  0.13169  0.65653  1.0000
  H   H530      1.0  0.45823  0.15075  0.59994  1.0000
  H   H531      1.0  0.61153  0.15540  0.54738  1.0000
  H   H532      1.0  0.43835  0.14597  0.56743  1.0000
  N   N21       1.0  0.42676  0.16459  0.61796  1.0000
  H   H533      1.0  0.58203  0.99668  0.52948  1.0000
  H   H534      1.0  0.43955  0.20296  0.63575  1.0000
  C   C313      1.0  0.64816  0.09139  0.53474  1.0000
  C   C314      1.0  0.60680  0.07725  0.49747  1.0000
  H   H535      1.0  0.58009  0.08238  0.53570  1.0000
  S   S94       1.0  0.44861  0.15875  0.95701  1.0000
  H   H536      1.0  0.45287  0.17392  0.65438  1.0000
  H   H537      1.0  0.40572  0.13972  0.65180  1.0000
  C   C315      1.0  0.42107  0.13783  0.63602  1.0000
  C   C316      1.0  0.41907  0.11308  0.61115  1.0000
  C   C317      1.0  0.45039  0.18621  0.56717  1.0000
  H   H538      1.0  0.53347  0.02464  0.94328  1.0000
  C   C318      1.0  0.44351  0.16041  0.58828  1.0000
  H   H539      1.0  0.55926  0.15461  0.96500  1.0000
  C   C319      1.0  0.39569  0.16687  0.57078  1.0000
  H   H540      1.0  0.65745  0.10282  0.51377  1.0000
  H   H541      1.0  0.64786  0.27431  0.51144  1.0000
  H   H542      1.0  0.42769  0.10907  0.93623  1.0000
  H   H543      1.0  0.58352  0.04956  0.90615  1.0000
  H   H544      1.0  0.40999  0.20082  0.59763  1.0000
  N   N22       1.0  0.58787  0.11450  0.86600  1.0000
  C   C320      1.0  0.58532  0.08410  0.86866  1.0000
  C   C321      1.0  0.58899  0.12189  0.82585  1.0000
  C   C322      1.0  0.56794  0.12732  0.88254  1.0000
  C   C323      1.0  0.60767  0.12209  0.88678  1.0000
  C   C324      1.0  0.58231  0.07200  0.90755  1.0000
  C   C325      1.0  0.60778  0.10879  0.80415  1.0000
  C   C326      1.0  0.56628  0.15850  0.88130  1.0000
  C   C327      1.0  0.61816  0.14952  0.87683  1.0000
  H   H545      1.0  0.57136  0.07762  0.85218  1.0000
  H   H546      1.0  0.59967  0.07341  0.85705  1.0000
  H   H547      1.0  0.58998  0.14401  0.82107  1.0000
  H   H548      1.0  0.57378  0.11626  0.81215  1.0000
  H   H549      1.0  0.55340  0.11955  0.86917  1.0000
  H   H550      1.0  0.56612  0.12145  0.91170  1.0000
  H   H551      1.0  0.60415  0.12215  0.91669  1.0000
  H   H552      1.0  0.62054  0.10632  0.88310  1.0000
  H   H553      1.0  0.56615  0.07680  0.91899  1.0000
  C   C328      1.0  0.40688  0.17908  0.60404  1.0000
  H   H554      1.0  0.60475  0.08710  0.79877  1.0000
  H   H555      1.0  0.60919  0.11907  0.77702  1.0000
  H   H556      1.0  0.62337  0.11074  0.81809  1.0000
  H   H557      1.0  0.56644  0.16691  0.85307  1.0000
  H   H558      1.0  0.57870  0.16783  0.89826  1.0000
  H   H559      1.0  0.55060  0.16485  0.89344  1.0000
  H   H560      1.0  0.62278  0.15967  0.90250  1.0000
  H   H561      1.0  0.60799  0.16421  0.86166  1.0000
  H   H562      1.0  0.63343  0.14615  0.86140  1.0000
  H   H563      1.0  0.42205  0.16617  0.69782  1.0000
  H   H564      1.0  0.41886  0.06008  0.99079  1.0000
  H   H565      1.0  0.60954  0.09934  0.49740  1.0000
  H   H566      1.0  0.56062  0.01358  0.93839  1.0000
  C   C329      1.0  0.34559  0.00109  0.51325  1.0000
  H   H567      1.0  0.59478  0.07856  0.92676  1.0000
  H   H568      1.0  0.39827  0.09014  0.52990  1.0000
  H   H569      1.0  0.40808  0.11675  0.58813  1.0000
  H   H570      1.0  0.40769  0.19507  0.67793  1.0000
  C   C330      1.0  0.39664  0.10978  0.96348  1.0000
  C   C331      1.0  0.49183  0.02429  0.98003  1.0000
  S   S95       1.0  0.54760  0.09952  0.98715  1.0000
  H   H571      1.0  0.43912  0.03588  0.97816  1.0000
  C   C332      1.0  0.57190  0.11763  0.98876  1.0000
  H   H572      1.0  0.44471  0.07089  0.97363  1.0000
  H   H573      1.0  0.55583  0.00914  0.51510  1.0000
  C   C333      1.0  0.47985  0.01259  0.95249  1.0000
  C   C334      1.0  0.41672  0.12049  0.95355  1.0000
  S   S96       1.0  0.51765  0.10183  0.50976  1.0000
  H   H574      1.0  0.56274  0.00890  0.56206  1.0000
  C   C335      1.0  0.64253  0.06283  0.52144  1.0000
  H   H575      1.0  0.59041  0.04848  0.53505  1.0000
  H   H576      1.0  0.60473  0.07491  0.55801  1.0000
  H   H577      1.0  0.62275  0.24389  0.53438  1.0000
  C   C336      1.0  0.61170  0.14449  0.98974  1.0000
  H   H578      1.0  0.41262  0.09584  0.62753  1.0000
  C   C337      1.0  0.59515  0.06999  0.53372  1.0000
  C   C338      1.0  0.38226  0.12420  0.98627  1.0000
  H   H579      1.0  0.64385  0.20519  0.53810  1.0000
  H   H580      1.0  0.32858  0.00280  0.52287  1.0000
  H   H581      1.0  0.39221  0.99710  0.92569  1.0000
  C   C339      1.0  0.43636  0.05585  0.99124  1.0000
  H   H582      1.0  0.61540  0.02303  0.50744  1.0000
  H   H583      1.0  0.60948  0.25750  0.49449  1.0000
  H   H584      1.0  0.34496  0.04368  0.49661  1.0000
  C   C340      1.0  0.40811  0.16061  0.98838  1.0000
  Fe  Fe50      1.0  0.48143  0.87889  0.36143  1.0000
  S   S97       1.0  0.49140  0.85012  0.40670  1.0000
  S   S98       1.0  0.46518  0.86607  0.30946  1.0000
  Fe  Fe51      1.0  0.49052  0.92859  0.40690  1.0000
  S   S99       1.0  0.50094  0.90394  0.45573  1.0000
  H   H585      1.0  0.41727  0.93739  0.05201  1.0000
  Fe  Fe52      1.0  0.51909  0.87840  0.41505  1.0000
  S   S100      1.0  0.55504  0.86849  0.41622  1.0000
  Fe  Fe53      1.0  0.47227  0.87832  0.44341  1.0000
  C   C341      1.0  0.62139  0.80193  0.45140  1.0000
  S   S101      1.0  0.51031  0.90490  0.36662  1.0000
  S   S102      1.0  0.46066  0.90516  0.39769  1.0000
  Fe  Fe54      1.0  0.51025  0.87123  0.02312  1.0000
  S   S103      1.0  0.52058  0.89719  0.06888  1.0000
  H   H586      1.0  0.37073  0.85774  0.37123  1.0000
  Fe  Fe55      1.0  0.46296  0.87178  0.04963  1.0000
  S   S104      1.0  0.47066  0.89789  0.09780  1.0000
  H   H587      1.0  0.43062  0.96535  0.02855  1.0000
  Fe  Fe56      1.0  0.49063  0.92134  0.05762  1.0000
  S   S105      1.0  0.49275  0.96670  0.05912  1.0000
  Fe  Fe57      1.0  0.49969  0.87105  0.10472  1.0000
  S   S106      1.0  0.51491  0.85622  0.15740  1.0000
  H   H588      1.0  0.59561  0.77401  0.43561  1.0000
  S   S107      1.0  0.49096  0.84295  0.05946  1.0000
  H   H589      1.0  0.38457  0.82375  0.32342  1.0000
  H   H590      1.0  0.59966  0.88037  0.42249  1.0000
  C   C342      1.0  0.33423  0.93794  0.45655  1.0000
  C   C343      1.0  0.49716  0.98888  0.44546  1.0000
  H   H591      1.0  0.34819  0.97641  0.44232  1.0000
  H   H592      1.0  0.38403  0.93806  0.45725  1.0000
  H   H593      1.0  0.38154  0.86528  0.04241  1.0000
  S   S108      1.0  0.48131  0.89729  0.00893  1.0000
  H   H594      1.0  0.55633  0.95711  0.41605  1.0000
  H   H595      1.0  0.59802  0.96673  0.48487  1.0000
  H   H596      1.0  0.34858  0.92448  0.45683  1.0000
  H   H597      1.0  0.64331  0.75684  0.44172  1.0000
  C   C344      1.0  0.65230  0.79945  0.49135  1.0000
  C   C345      1.0  0.50102  0.86093  0.19932  1.0000
  C   C346      1.0  0.51257  0.86036  0.23209  1.0000
  C   C347      1.0  0.50185  0.86290  0.26603  1.0000
  C   C348      1.0  0.47943  0.86531  0.26739  1.0000
  C   C349      1.0  0.46788  0.86580  0.23463  1.0000
  C   C350      1.0  0.47865  0.86397  0.20067  1.0000
  H   H598      1.0  0.52988  0.85797  0.23126  1.0000
  H   H599      1.0  0.51087  0.86238  0.29113  1.0000
  H   H600      1.0  0.45054  0.86759  0.23549  1.0000
  H   H601      1.0  0.46960  0.86426  0.17560  1.0000
  C   C351      1.0  0.59410  0.87796  0.01626  1.0000
  C   C352      1.0  0.42614  0.78157  0.33723  1.0000
  C   C353      1.0  0.38777  0.82020  0.35300  1.0000
  C   C354      1.0  0.48805  0.98381  0.01767  1.0000
  H   H602      1.0  0.42146  0.88871  0.43474  1.0000
  H   H603      1.0  0.57363  0.93392  0.44005  1.0000
  C   C355      1.0  0.57210  0.86804  0.45452  1.0000
  S   S109      1.0  0.44975  0.86366  0.48887  1.0000
  H   H604      1.0  0.43246  0.77388  0.36369  1.0000
  H   H605      1.0  0.43725  0.77386  0.31557  1.0000
  H   H606      1.0  0.38180  0.88823  0.42807  1.0000
  H   H607      1.0  0.58665  0.80118  0.46548  1.0000
  H   H608      1.0  0.62521  0.87680  0.47415  1.0000
  H   H609      1.0  0.35414  0.82908  0.36581  1.0000
  H   H610      1.0  0.56131  0.88408  0.03435  1.0000
  N   N23       1.0  0.56862  0.81502  0.09942  1.0000
  C   C356      1.0  0.58093  0.84046  0.10691  1.0000
  C   C357      1.0  0.58397  0.79582  0.08009  1.0000
  C   C358      1.0  0.56153  0.80313  0.13585  1.0000
  C   C359      1.0  0.54943  0.82276  0.07651  1.0000
  H   H611      1.0  0.53886  0.97227  0.47374  1.0000
  C   C360      1.0  0.59238  0.80553  0.04231  1.0000
  C   C361      1.0  0.55620  0.77271  0.13711  1.0000
  C   C362      1.0  0.53633  0.79962  0.06032  1.0000
  H   H612      1.0  0.59623  0.83543  0.12122  1.0000
  H   H613      1.0  0.58569  0.85082  0.08105  1.0000
  H   H614      1.0  0.57686  0.77571  0.07577  1.0000
  H   H615      1.0  0.59823  0.79145  0.09749  1.0000
  H   H616      1.0  0.57418  0.80573  0.15680  1.0000
  H   H617      1.0  0.54708  0.81418  0.14659  1.0000
  H   H618      1.0  0.53772  0.83513  0.09265  1.0000
  H   H619      1.0  0.55389  0.83664  0.05368  1.0000
  H   H620      1.0  0.57094  0.75989  0.13425  1.0000
  H   H621      1.0  0.44502  0.93519  0.04074  1.0000
  C   C363      1.0  0.56486  0.85994  0.48925  1.0000
  H   H622      1.0  0.60361  0.82263  0.04459  1.0000
  H   H623      1.0  0.61958  0.74743  0.46393  1.0000
  H   H624      1.0  0.57921  0.81120  0.02339  1.0000
  H   H625      1.0  0.56431  0.85470  0.15738  1.0000
  H   H626      1.0  0.54436  0.76708  0.11643  1.0000
  H   H627      1.0  0.54900  0.76774  0.16431  1.0000
  C   C364      1.0  0.38803  0.85823  0.01658  1.0000
  H   H628      1.0  0.54584  0.78136  0.05316  1.0000
  H   H629      1.0  0.62184  0.82397  0.45709  1.0000
  H   H630      1.0  0.43149  0.86155  0.36316  1.0000
  C   C365      1.0  0.33921  0.96756  0.46603  1.0000
  S   S110      1.0  0.42706  0.86338  0.04889  1.0000
  C   C366      1.0  0.40802  0.87075  0.32247  1.0000
  C   C367      1.0  0.59392  0.87418  0.44934  1.0000
  H   H631      1.0  0.42120  0.81828  0.30647  1.0000
  H   H632      1.0  0.41748  0.86262  0.29907  1.0000
  H   H633      1.0  0.60171  0.78879  0.02928  1.0000
  H   H634      1.0  0.55477  0.87061  0.11551  1.0000
  H   H635      1.0  0.38478  0.79828  0.35789  1.0000
  C   C368      1.0  0.57166  0.87621  0.01300  1.0000
  H   H636      1.0  0.38010  0.98338  0.47281  1.0000
  N   N24       1.0  0.63159  0.78573  0.48223  1.0000
  C   C369      1.0  0.42929  0.94301  0.03070  1.0000
  H   H637      1.0  0.40507  0.82920  0.42043  1.0000
  C   C370      1.0  0.49242  0.97542  0.47836  1.0000
  C   C371      1.0  0.37017  0.83545  0.37518  1.0000
  C   C372      1.0  0.42137  0.86623  0.48541  1.0000
  H   H638      1.0  0.43958  0.81258  0.44207  1.0000
  H   H639      1.0  0.41021  0.77275  0.33233  1.0000
  H   H640      1.0  0.48469  0.95598  0.47818  1.0000
  C   C373      1.0  0.56905  0.86224  0.12978  1.0000
  H   H641      1.0  0.63059  0.79934  0.42534  1.0000
  C   C374      1.0  0.55772  0.94434  0.44120  1.0000
  H   H642      1.0  0.40559  0.86786  0.38116  1.0000
  C   C375      1.0  0.59777  0.79552  0.44277  1.0000
  C   C376      1.0  0.60843  0.87218  0.47856  1.0000
  H   H643      1.0  0.56627  0.97965  0.47043  1.0000
  S   S111      1.0  0.49139  0.97413  0.40356  1.0000
  H   H644      1.0  0.52936  0.80673  0.03395  1.0000
  C   C377      1.0  0.43844  0.82012  0.41336  1.0000
  H   H645      1.0  0.45004  0.80800  0.39690  1.0000
  C   C378      1.0  0.35101  0.78361  0.00065  1.0000
  H   H646      1.0  0.54478  0.92925  0.43969  1.0000
  H   H647      1.0  0.44345  0.84154  0.41351  1.0000
  H   H648      1.0  0.56587  0.97836  0.02106  1.0000
  N   N25       1.0  0.41065  0.82686  0.36193  1.0000
  C   C379      1.0  0.37609  0.86639  0.47850  1.0000
  H   H649      1.0  0.41184  0.89264  0.32388  1.0000
  H   H650      1.0  0.52290  0.79395  0.07907  1.0000
  H   H651      1.0  0.34910  0.78376  0.03093  1.0000
  H   H652      1.0  0.37082  0.83046  0.40482  1.0000
  H   H653      1.0  0.60078  0.88717  0.04017  1.0000
  H   H654      1.0  0.59267  0.80804  0.41877  1.0000
  C   C380      1.0  0.41163  0.87905  0.45545  1.0000
  C   C381      1.0  0.41428  0.85695  0.35906  1.0000
  S   S112      1.0  0.34820  0.86432  0.47024  1.0000
  H   H655      1.0  0.41028  0.79604  0.40499  1.0000
  H   H656      1.0  0.38936  0.91522  0.02059  1.0000
  C   C382      1.0  0.42554  0.81284  0.33508  1.0000
  C   C383      1.0  0.42473  0.92998  0.99342  1.0000
  H   H657      1.0  0.57995  0.87951  0.13384  1.0000
  C   C384      1.0  0.38915  0.87881  0.45180  1.0000
  C   C385      1.0  0.41505  0.81749  0.40059  1.0000
  H   H658      1.0  0.38478  0.95079  0.02288  1.0000
  H   H659      1.0  0.54875  0.92842  0.00378  1.0000
  C   C386      1.0  0.63522  0.75717  0.46906  1.0000
  H   H660      1.0  0.39062  0.86945  0.31691  1.0000
  H   H661      1.0  0.44233  0.81987  0.33809  1.0000
  C   C387      1.0  0.38424  0.94176  0.48713  1.0000
  H   H662      1.0  0.38480  0.79085  0.01066  1.0000
  C   C388      1.0  0.55514  0.96264  0.47494  1.0000
  C   C389      1.0  0.41038  0.85531  0.01190  1.0000
  C   C390      1.0  0.33903  0.73636  0.99908  1.0000
  S   S113      1.0  0.63599  0.86705  0.99756  1.0000
  H   H663      1.0  0.34351  0.73753  0.02843  1.0000
  H   H664      1.0  0.65606  0.72185  0.47777  1.0000
  H   H665      1.0  0.55235  0.95688  0.05206  1.0000
  H   H666      1.0  0.37966  0.75621  0.00057  1.0000
  H   H667      1.0  0.53774  0.98456  0.03114  1.0000
  H   H668      1.0  0.52552  0.94823  0.99873  1.0000
  C   C391      1.0  0.55025  0.96868  0.02620  1.0000
  H   H669      1.0  0.35141  0.92912  0.01198  1.0000
  C   C392      1.0  0.38587  0.93362  0.00345  1.0000
  H   H670      1.0  0.42576  0.90763  0.99770  1.0000
  C   C393      1.0  0.54330  0.94930  0.99596  1.0000
  H   H671      1.0  0.58568  0.93338  0.99587  1.0000
  C   C394      1.0  0.37509  0.77741  0.99342  1.0000
  S   S114      1.0  0.61942  0.85641  0.54902  1.0000
  H   H672      1.0  0.58680  0.91903  0.95036  1.0000
  C   C395      1.0  0.38210  0.84229  0.95504  1.0000
  H   H673      1.0  0.60538  0.94403  0.96316  1.0000
  H   H674      1.0  0.52008  0.97989  0.95281  1.0000
  H   H675      1.0  0.56178  0.96066  0.56823  1.0000
  C   C396      1.0  0.57670  0.85387  0.95514  1.0000
  C   C397      1.0  0.59921  0.85598  0.95815  1.0000
  C   C398      1.0  0.55516  0.96897  0.54214  1.0000
  H   H676      1.0  0.57007  0.84417  0.93154  1.0000
  H   H677      1.0  0.60975  0.84778  0.93713  1.0000
  H   H678      1.0  0.49364  0.97689  0.53717  1.0000
  H   H679      1.0  0.37943  0.96582  0.92265  1.0000
  C   C399      1.0  0.54097  0.92786  0.51575  1.0000
  H   H680      1.0  0.33787  0.78675  0.93246  1.0000
  H   H681      1.0  0.32846  0.75242  0.89001  1.0000
  H   H682      1.0  0.52485  0.93717  0.51037  1.0000
  H   H683      1.0  0.57389  0.85003  0.54470  1.0000
  C   C400      1.0  0.60007  0.95104  0.50639  1.0000
  C   C401      1.0  0.38568  0.85466  0.50940  1.0000
  C   C402      1.0  0.54427  0.93249  0.93351  1.0000
  C   C403      1.0  0.35311  0.95627  0.56880  1.0000
  H   H684      1.0  0.55412  0.90128  0.55970  1.0000
  H   H685      1.0  0.34472  0.93196  0.52360  1.0000
  H   H686      1.0  0.46361  0.97675  0.93559  1.0000
  H   H687      1.0  0.57868  0.97941  0.96662  1.0000
  H   H688      1.0  0.43419  0.91339  0.92294  1.0000
  H   H689      1.0  0.60330  0.77130  0.51148  1.0000
  H   H690      1.0  0.35581  0.75845  0.93588  1.0000
  C   C404      1.0  0.40094  0.91974  0.94341  1.0000
  H   H691      1.0  0.37328  0.98749  0.96107  1.0000
  C   C405      1.0  0.52015  0.92614  0.93039  1.0000
  H   H692      1.0  0.57758  0.96477  0.92315  1.0000
  H   H693      1.0  0.54815  0.85488  0.49347  1.0000
  H   H694      1.0  0.38366  0.97809  0.51960  1.0000
  C   C406      1.0  0.49730  0.98738  0.51171  1.0000
  H   H695      1.0  0.53770  0.97273  0.54771  1.0000
  C   C407      1.0  0.57949  0.85718  0.51820  1.0000
  C   C408      1.0  0.41846  0.92141  0.91330  1.0000
  H   H696      1.0  0.61268  0.78018  0.57344  1.0000
  S   S115      1.0  0.36473  0.83207  0.92002  1.0000
  H   H697      1.0  0.53634  0.98068  0.91267  1.0000
  C   C409      1.0  0.40507  0.96754  0.96462  1.0000
  S   S116      1.0  0.53470  0.85865  0.97937  1.0000
  H   H698      1.0  0.37622  0.92497  0.50183  1.0000
  C   C410      1.0  0.57975  0.93441  0.51445  1.0000
  C   C411      1.0  0.37398  0.85223  0.98813  1.0000
  H   H699      1.0  0.38539  0.92332  0.92961  1.0000
  C   C412      1.0  0.60135  0.86298  0.51289  1.0000
  H   H700      1.0  0.41089  0.83145  0.92484  1.0000
  H   H701      1.0  0.34777  0.80488  0.99128  1.0000
  H   H702      1.0  0.40118  0.94041  0.49640  1.0000
  C   C413      1.0  0.58837  0.93779  0.96639  1.0000
  C   C414      1.0  0.53937  0.91325  0.55330  1.0000
  H   H703      1.0  0.60800  0.80633  0.51652  1.0000
  H   H704      1.0  0.40031  0.89822  0.95290  1.0000
  C   C415      1.0  0.40826  0.85443  0.51268  1.0000
  C   C416      1.0  0.34267  0.95354  0.53105  1.0000
  H   H705      1.0  0.43580  0.84366  0.97459  1.0000
  H   H706      1.0  0.42019  0.94229  0.90219  1.0000
  H   H707      1.0  0.53550  0.92744  0.57580  1.0000
  H   H708      1.0  0.63636  0.72697  0.51378  1.0000
  H   H709      1.0  0.37071  0.95248  0.56755  1.0000
  H   H710      1.0  0.41381  0.90840  0.89022  1.0000
  C   C417      1.0  0.33922  0.76548  0.94288  1.0000
  Fe  Fe58      1.0  0.32949  0.84492  0.92004  1.0000
  C   C418      1.0  0.41861  0.84609  0.97846  1.0000
  H   H711      1.0  0.41562  0.84463  0.53614  1.0000
  H   H712      1.0  0.55061  0.93546  0.90510  1.0000
  H   H713      1.0  0.60601  0.96037  0.53173  1.0000
  H   H714      1.0  0.43857  0.93500  0.97526  1.0000
  H   H715      1.0  0.34629  0.94066  0.58763  1.0000
  H   H716      1.0  0.37580  0.84497  0.53015  1.0000
  H   H717      1.0  0.51844  0.90816  0.91273  1.0000
  C   C419      1.0  0.56282  0.86351  0.98286  1.0000
  H   H718      1.0  0.52601  0.89860  0.55248  1.0000
  H   H719      1.0  0.34945  0.97620  0.58127  1.0000
  H   H720      1.0  0.58199  0.92573  0.54241  1.0000
  N   N26       1.0  0.55827  0.94884  0.51164  1.0000
  C   C420      1.0  0.57349  0.96094  0.95253  1.0000
  H   H721      1.0  0.54321  0.91153  0.49534  1.0000
  H   H722      1.0  0.51294  0.92065  0.95723  1.0000
  H   H723      1.0  0.51081  0.94301  0.91756  1.0000
  C   C421      1.0  0.40447  0.83923  0.95033  1.0000
  C   C422      1.0  0.60801  0.86759  0.98915  1.0000
  C   C423      1.0  0.37482  0.97007  0.49588  1.0000
  H   H724      1.0  0.64883  0.82068  0.49997  1.0000
  C   C424      1.0  0.38624  0.97982  0.94257  1.0000
  C   C425      1.0  0.53707  0.98072  0.94313  1.0000
  C   C426      1.0  0.47258  0.98606  0.95710  1.0000
  H   H725      1.0  0.35295  0.72637  0.98496  1.0000
  H   H726      1.0  0.55203  0.91346  0.94390  1.0000
  H   H727      1.0  0.37986  0.78209  0.96472  1.0000
  C   C427      1.0  0.47696  0.97158  0.98950  1.0000
  H   H728      1.0  0.36176  0.90948  0.97516  1.0000
  N   N27       1.0  0.54969  0.95631  0.95708  1.0000
  H   H729      1.0  0.35767  0.94565  0.96971  1.0000
  H   H730      1.0  0.42031  0.97193  0.94949  1.0000
  H   H731      1.0  0.63593  0.79876  0.56118  1.0000
  C   C428      1.0  0.62600  0.78139  0.55299  1.0000
  C   C429      1.0  0.36305  0.92939  0.98869  1.0000
  Fe  Fe59      1.0  0.65498  0.86637  0.54770  1.0000
  H   H732      1.0  0.63551  0.76237  0.55524  1.0000
  C   C430      1.0  0.61633  0.78625  0.51474  1.0000
  N   N28       1.0  0.40373  0.93804  0.97569  1.0000
  H   H733      1.0  0.66040  0.78998  0.51523  1.0000
  H   H734      1.0  0.40619  0.98040  0.98924  1.0000
  N   N29       1.0  0.33529  0.76460  0.98367  1.0000
  H   H735      1.0  0.61291  0.93723  0.49565  1.0000
  H   H736      1.0  0.66041  0.74693  0.51015  1.0000
  H   H737      1.0  0.58044  0.91626  0.49689  1.0000
  N   N30       1.0  0.35081  0.97244  0.50137  1.0000
  C   C431      1.0  0.64756  0.73739  0.49456  1.0000
  H   H738      1.0  0.35684  0.85472  0.99219  1.0000
  H   H739      1.0  0.47150  0.95117  0.99293  1.0000
  H   H740      1.0  0.75505  0.28702  0.42458  1.0000
  H   H741      1.0  0.69475  0.24437  0.45710  1.0000
  S   S117      1.0  0.68471  0.14462  0.46984  1.0000
  Fe  Fe60      1.0  0.70519  0.13637  0.37035  1.0000
  S   S118      1.0  0.72686  0.13208  0.41982  1.0000
  S   S119      1.0  0.71943  0.12969  0.31283  1.0000
  Fe  Fe61      1.0  0.70019  0.10731  0.44546  1.0000
  C   C432      1.0  0.86148  0.41840  0.44922  1.0000
  Fe  Fe62      1.0  0.70990  0.16984  0.44083  1.0000
  C   C433      1.0  0.69324  0.07610  0.13980  1.0000
  S   S120      1.0  0.68002  0.10902  0.39503  1.0000
  S   S121      1.0  0.68974  0.17533  0.39009  1.0000
  Fe  Fe63      1.0  0.97762  0.37236  0.42359  1.0000
  S   S122      1.0  0.98027  0.39491  0.36983  1.0000
  S   S123      1.0  0.94626  0.34998  0.43345  1.0000
  C   C434      1.0  0.75847  0.37818  0.05865  1.0000
  Fe  Fe64      1.0  0.68626  0.14412  0.09531  1.0000
  S   S124      1.0  0.71773  0.12913  0.07206  1.0000
  H   H742      1.0  0.86272  0.40868  0.42204  1.0000
  H   H743      1.0  0.69706  0.03439  0.42687  1.0000
  Fe  Fe65      1.0  0.69812  0.10136  0.03684  1.0000
  Fe  Fe66      1.0  0.66605  0.14750  0.41824  1.0000
  Fe  Fe67      1.0  0.71325  0.16161  0.02787  1.0000
  H   H744      1.0  0.67442  0.20544  0.45457  1.0000
  H   H745      1.0  0.77653  0.45829  0.46913  1.0000
  S   S125      1.0  0.68265  0.17769  0.05317  1.0000
  Fe  Fe68      1.0  0.97114  0.39805  0.03509  1.0000
  H   H746      1.0  0.94404  0.47420  0.30160  1.0000
  S   S126      1.0  0.97445  0.42349  0.08504  1.0000
  S   S127      1.0  0.77253  0.31789  0.48345  1.0000
  H   H747      1.0  0.83776  0.44725  0.43185  1.0000
  Fe  Fe69      1.0  0.98894  0.38627  0.11148  1.0000
  C   C435      1.0  0.68128  0.25753  0.46717  1.0000
  C   C436      1.0  0.73500  0.41719  0.04617  1.0000
  N   N31       1.0  0.85355  0.46597  0.47738  1.0000
  H   H748      1.0  0.87202  0.34458  0.48045  1.0000
  H   H749      1.0  0.78094  0.34469  0.06767  1.0000
  S   S128      1.0  0.72518  0.20187  0.47831  1.0000
  H   H750      1.0  0.97150  0.46452  0.47718  1.0000
  S   S129      1.0  0.70270  0.07233  0.48768  1.0000
  C   C437      1.0  0.69938  0.00050  0.02262  1.0000
  H   H751      1.0  0.70412  0.38474  0.04992  1.0000
  C   C438      1.0  0.73283  0.42516  0.08674  1.0000
  H   H752      1.0  0.73700  0.24249  0.42106  1.0000
  H   H753      1.0  0.90254  0.33254  0.43883  1.0000
  C   C439      1.0  0.67061  0.00561  0.12650  1.0000
  N   N32       1.0  0.98139  0.45463  0.26199  1.0000
  C   C440      1.0  0.98207  0.44924  0.19140  1.0000
  S   S130      1.0  0.97598  0.37482  0.16766  1.0000
  H   H754      1.0  0.98573  0.31959  0.19350  1.0000
  H   H755      1.0  0.82259  0.48410  0.46470  1.0000
  C   C441      1.0  0.70739  0.13587  0.26936  1.0000
  C   C442      1.0  0.71890  0.12889  0.23730  1.0000
  C   C443      1.0  0.71011  0.13370  0.20230  1.0000
  C   C444      1.0  0.68969  0.14569  0.19885  1.0000
  H   H756      1.0  0.68815  0.09596  0.15118  1.0000
  C   C445      1.0  0.68691  0.14771  0.26587  1.0000
  H   H757      1.0  0.73477  0.11978  0.23963  1.0000
  H   H758      1.0  0.71924  0.12843  0.17808  1.0000
  H   H759      1.0  0.86471  0.45698  0.42232  1.0000
  C   C446      1.0  0.98034  0.48518  0.26034  1.0000
  H   H760      1.0  0.97747  0.44833  0.32092  1.0000
  C   C447      1.0  0.69711  0.02293  0.45230  1.0000
  H   H761      1.0  0.93296  0.35267  0.01673  1.0000
  C   C448      1.0  0.97042  0.44423  0.22841  1.0000
  H   H762      1.0  0.70832  0.34889  0.00428  1.0000
  H   H763      1.0  0.93586  0.44425  0.27705  1.0000
  C   C449      1.0  0.96968  0.44311  0.29493  1.0000
  C   C450      1.0  0.73879  0.23390  0.47878  1.0000
  C   C451      1.0  0.92470  0.36013  0.46277  1.0000
  S   S131      1.0  0.66674  0.11518  0.06268  1.0000
  C   C452      1.0  0.99288  0.36682  0.27374  1.0000
  H   H764      1.0  0.71105  0.23444  0.99620  1.0000
  C   C453      1.0  0.98116  0.36862  0.24124  1.0000
  H   H765      1.0  0.72040  0.36705  0.08187  1.0000
  C   C454      1.0  0.74225  0.24974  0.44720  1.0000
  C   C455      1.0  0.75252  0.27514  0.44931  1.0000
  C   C456      1.0  0.69968  0.03637  0.48536  1.0000
  H   H766      1.0  0.72761  0.33065  0.03158  1.0000
  H   H767      1.0  0.96392  0.36605  0.24218  1.0000
  H   H768      1.0  0.95806  0.28687  0.15801  1.0000
  C   C457      1.0  0.76458  0.34786  0.05636  1.0000
  H   H769      1.0  0.97214  0.44095  0.16924  1.0000
  H   H770      1.0  0.70350  0.29045  0.47508  1.0000
  H   H771      1.0  0.67783  0.15323  0.29014  1.0000
  C   C458      1.0  0.85409  0.44821  0.44400  1.0000
  C   C459      1.0  0.74240  0.38453  0.99824  1.0000
  H   H772      1.0  0.66198  0.01177  0.10119  1.0000
  H   H773      1.0  0.93954  0.44293  0.32527  1.0000
  H   H774      1.0  0.70063  0.33492  0.04751  1.0000
  C   C460      1.0  0.69136  0.27916  0.49155  1.0000
  H   H775      1.0  0.69310  0.04755  0.20434  1.0000
  C   C461      1.0  0.71393  0.34521  0.03261  1.0000
  H   H776      1.0  0.72650  0.44632  0.08832  1.0000
  H   H777      1.0  0.77258  0.39006  0.04877  1.0000
  C   C462      1.0  0.74476  0.22418  0.99776  1.0000
  H   H778      1.0  0.77937  0.22126  0.99652  1.0000
  S   S132      1.0  0.98325  0.35980  0.06272  1.0000
  C   C463      1.0  0.69488  0.99442  0.45203  1.0000
  C   C464      1.0  0.68691  0.02737  0.13702  1.0000
  H   H779      1.0  0.75357  0.33535  0.07336  1.0000
  N   N33       1.0  0.67808  0.05400  0.15166  1.0000
  S   S133      1.0  0.98652  0.47149  0.39420  1.0000
  H   H780      1.0  0.72012  0.42500  0.03282  1.0000
  C   C465      1.0  0.78015  0.47818  0.47931  1.0000
  C   C466      1.0  0.71700  0.07193  0.15079  1.0000
  C   C467      1.0  0.96747  0.28184  0.13295  1.0000
  H   H781      1.0  0.90236  0.44638  0.48034  1.0000
  C   C468      1.0  0.71900  0.37197  0.05217  1.0000
  H   H782      1.0  0.72406  0.05258  0.14087  1.0000
  H   H783      1.0  0.69304  0.07880  0.10956  1.0000
  H   H784      1.0  0.76522  0.34029  0.02805  1.0000
  S   S134      1.0  0.74183  0.18965  0.01358  1.0000
  H   H785      1.0  0.87747  0.41627  0.46165  1.0000
  C   C469      1.0  0.70229  0.02709  0.00886  1.0000
  H   H786      1.0  0.78505  0.47917  0.04879  1.0000
  H   H787      1.0  0.69842  0.01777  0.15657  1.0000
  H   H788      1.0  0.74874  0.42507  0.10017  1.0000
  H   H789      1.0  0.90033  0.32574  0.00513  1.0000
  S   S135      1.0  0.70295  0.05469  0.04031  1.0000
  C   C470      1.0  0.78820  0.48953  0.02307  1.0000
  H   H790      1.0  0.71906  0.07340  0.18077  1.0000
  H   H791      1.0  0.98465  0.49070  0.32002  1.0000
  H   H792      1.0  0.67377  0.07423  0.20354  1.0000
  Fe  Fe70      1.0  0.66603  0.14714  0.01867  1.0000
  N   N34       1.0  0.74340  0.21001  0.12655  1.0000
  C   C471      1.0  0.74532  0.23369  0.10003  1.0000
  C   C472      1.0  0.72108  0.19909  0.12261  1.0000
  C   C473      1.0  0.75967  0.18862  0.11506  1.0000
  C   C474      1.0  0.74777  0.21979  0.16467  1.0000
  C   C475      1.0  0.76799  0.24533  0.09440  1.0000
  C   C476      1.0  0.70254  0.21974  0.12894  1.0000
  C   C477      1.0  0.75971  0.16166  0.13675  1.0000
  C   C478      1.0  0.73827  0.20300  0.19697  1.0000
  H   H793      1.0  0.73946  0.22812  0.07255  1.0000
  H   H794      1.0  0.73484  0.25101  0.10868  1.0000
  H   H795      1.0  0.71801  0.18164  0.14110  1.0000
  H   H796      1.0  0.71920  0.19084  0.09468  1.0000
  H   H797      1.0  0.75751  0.18356  0.08575  1.0000
  H   H798      1.0  0.77632  0.19620  0.11720  1.0000
  H   H799      1.0  0.76539  0.22136  0.16899  1.0000
  H   H800      1.0  0.74106  0.24071  0.16807  1.0000
  H   H801      1.0  0.76668  0.26473  0.07866  1.0000
  H   H802      1.0  0.77588  0.24959  0.12065  1.0000
  H   H803      1.0  0.77830  0.23161  0.07759  1.0000
  H   H804      1.0  0.68711  0.20877  0.13110  1.0000
  H   H805      1.0  0.70437  0.23115  0.15454  1.0000
  H   H806      1.0  0.70094  0.23403  0.10538  1.0000
  H   H807      1.0  0.74397  0.15159  0.13660  1.0000
  H   H808      1.0  0.76538  0.16434  0.16506  1.0000
  H   H809      1.0  0.77133  0.14742  0.12347  1.0000
  H   H810      1.0  0.74946  0.20354  0.22038  1.0000
  H   H811      1.0  0.73561  0.18140  0.19152  1.0000
  H   H812      1.0  0.72302  0.21240  0.20714  1.0000
  C   C479      1.0  0.90464  0.34767  0.45957  1.0000
  H   H813      1.0  0.95629  0.28480  0.10970  1.0000
  H   H814      1.0  0.84963  0.40646  0.46531  1.0000
  C   C480      1.0  0.94592  0.45189  0.29935  1.0000
  H   H815      1.0  0.98631  0.46040  0.01504  1.0000
  H   H816      1.0  0.76063  0.10723  0.47080  1.0000
  C   C481      1.0  0.99365  0.47882  0.00525  1.0000
  S   S136      1.0  0.67785  0.15287  0.15550  1.0000
  H   H817      1.0  0.97033  0.42050  0.29436  1.0000
  N   N35       1.0  0.73845  0.38735  0.03876  1.0000
  H   H818      1.0  0.75702  0.38208  0.08841  1.0000
  H   H819      1.0  0.95406  0.45342  0.22550  1.0000
  C   C482      1.0  0.67819  0.15263  0.23086  1.0000
  H   H820      1.0  0.72661  0.08838  0.13802  1.0000
  C   C483      1.0  0.99155  0.37366  0.20763  1.0000
  C   C484      1.0  0.75973  0.28529  0.48286  1.0000
  H   H821      1.0  0.66238  0.16194  0.22863  1.0000
  H   H822      1.0  0.78563  0.10743  0.49226  1.0000
  C   C485      1.0  0.67721  0.05352  0.19289  1.0000
  C   C486      1.0  0.88731  0.35442  0.48317  1.0000
  H   H823      1.0  0.74834  0.42929  0.03404  1.0000
  H   H824      1.0  0.69681  0.99738  0.05163  1.0000
  C   C487      1.0  0.98667  0.30094  0.12731  1.0000
  H   H825      1.0  0.99231  0.29789  0.09867  1.0000
  H   H826      1.0  0.96792  0.42198  0.23079  1.0000
  H   H827      1.0  0.72159  0.41201  0.10226  1.0000
  S   S137      1.0  0.98985  0.40669  0.45651  1.0000
  H   H828      1.0  0.98470  0.36277  0.29947  1.0000
  C   C488      1.0  0.92725  0.37955  0.48983  1.0000
  H   H829      1.0  0.69645  0.03074  0.11140  1.0000
  H   H830      1.0  0.94263  0.38905  0.49276  1.0000
  H   H831      1.0  0.98413  0.47108  0.18515  1.0000
  H   H832      1.0  0.66497  0.01275  0.20481  1.0000
  C   C489      1.0  0.91920  0.36210  0.00362  1.0000
  H   H833      1.0  0.88355  0.48436  0.46100  1.0000
  H   H834      1.0  0.98454  0.28387  0.19865  1.0000
  H   H835      1.0  0.67525  0.26860  0.44254  1.0000
  C   C490      1.0  0.90071  0.34689  0.99700  1.0000
  S   S138      1.0  0.94327  0.40885  0.99778  1.0000
  H   H836      1.0  0.75305  0.15492  0.48142  1.0000
  H   H837      1.0  0.97990  0.32202  0.12814  1.0000
  H   H838      1.0  0.79401  0.14972  0.48156  1.0000
  C   C491      1.0  0.87567  0.47594  0.48606  1.0000
  H   H839      1.0  0.78376  0.18333  0.48639  1.0000
  H   H840      1.0  0.97241  0.26016  0.13337  1.0000
  H   H841      1.0  0.66291  0.23753  0.40462  1.0000
  N   N36       1.0  0.66383  0.24058  0.48473  1.0000
  H   H842      1.0  0.77590  0.06164  0.49209  1.0000
  C   C492      1.0  0.83944  0.49041  0.46872  1.0000
  S   S139      1.0  0.78665  0.43832  0.99329  1.0000
  H   H843      1.0  0.66144  0.03640  0.24085  1.0000
  C   C493      1.0  0.95874  0.47509  0.49306  1.0000
  Fe  Fe71      1.0  0.78988  0.34676  0.52315  1.0000
  S   S140      1.0  0.81569  0.33391  0.56329  1.0000
  C   C494      1.0  0.87734  0.36608  0.87813  1.0000
  Fe  Fe72      1.0  0.79263  0.40786  0.54501  1.0000
  S   S141      1.0  0.81767  0.39743  0.58689  1.0000
  H   H844      1.0  0.75184  0.41611  0.75905  1.0000
  Fe  Fe73      1.0  0.83338  0.37137  0.54385  1.0000
  S   S142      1.0  0.86901  0.38239  0.54180  1.0000
  Fe  Fe74      1.0  0.79828  0.36150  0.60311  1.0000
  S   S143      1.0  0.78817  0.34867  0.66145  1.0000
  S   S144      1.0  0.77181  0.37300  0.56383  1.0000
  Fe  Fe75      1.0  0.80444  0.37602  0.88047  1.0000
  S   S145      1.0  0.77410  0.38318  0.91396  1.0000
  S   S146      1.0  0.81192  0.38951  0.82115  1.0000
  Fe  Fe76      1.0  0.82944  0.35710  0.94776  1.0000
  C   C495      1.0  0.70677  0.00784  0.94797  1.0000
  Fe  Fe77      1.0  0.78183  0.34270  0.94209  1.0000
  S   S147      1.0  0.75411  0.31368  0.95815  1.0000
  Fe  Fe78      1.0  0.79546  0.40268  0.95535  1.0000
  H   H845      1.0  0.80546  0.44795  0.62417  1.0000
  S   S148      1.0  0.81076  0.33457  0.90565  1.0000
  S   S149      1.0  0.82528  0.39785  0.92065  1.0000
  H   H846      1.0  0.95153  0.39558  0.57295  1.0000
  H   H847      1.0  0.89298  0.36619  0.89252  1.0000
  H   H848      1.0  0.73260  0.09995  0.54071  1.0000
  C   C496      1.0  0.97560  0.46796  0.59393  1.0000
  C   C497      1.0  0.79571  0.45039  0.64957  1.0000
  H   H849      1.0  0.75309  0.47533  0.61869  1.0000
  H   H850      1.0  0.72485  0.40827  0.64190  1.0000
  H   H851      1.0  0.74274  0.44166  0.61359  1.0000
  H   H852      1.0  0.83521  0.45309  0.56705  1.0000
  C   C498      1.0  0.78479  0.48124  0.51636  1.0000
  H   H853      1.0  0.70016  0.26998  0.51496  1.0000
  H   H854      1.0  0.86479  0.36451  0.89995  1.0000
  H   H855      1.0  0.83186  0.48489  0.54443  1.0000
  C   C499      1.0  0.77236  0.43586  0.71734  1.0000
  H   H856      1.0  0.96449  0.42436  0.52438  1.0000
  C   C500      1.0  0.76933  0.12353  0.56174  1.0000
  C   C501      1.0  0.73042  0.26892  0.98000  1.0000
  C   C502      1.0  0.79667  0.35826  0.70581  1.0000
  C   C503      1.0  0.78558  0.34807  0.73675  1.0000
  C   C504      1.0  0.79043  0.35671  0.77233  1.0000
  C   C505      1.0  0.80640  0.37584  0.77745  1.0000
  C   C506      1.0  0.81785  0.38558  0.74662  1.0000
  C   C507      1.0  0.81312  0.37677  0.71105  1.0000
  H   H857      1.0  0.77289  0.33367  0.73311  1.0000
  H   H858      1.0  0.78148  0.34898  0.79568  1.0000
  H   H859      1.0  0.83029  0.40033  0.75022  1.0000
  H   H860      1.0  0.82195  0.38464  0.68767  1.0000
  H   H861      1.0  0.67106  0.24520  0.54224  1.0000
  C   C508      1.0  0.96589  0.48212  0.53212  1.0000
  H   H862      1.0  0.73119  0.37472  0.65730  1.0000
  C   C509      1.0  0.91006  0.38592  0.51388  1.0000
  C   C510      1.0  0.75731  0.43673  0.75117  1.0000
  H   H863      1.0  0.74882  0.06809  0.50583  1.0000
  C   C511      1.0  0.89002  0.37338  0.51073  1.0000
  S   S150      1.0  0.80895  0.38299  0.50114  1.0000
  H   H864      1.0  0.70173  0.03094  0.54386  1.0000
  H   H865      1.0  0.75479  0.47399  0.68116  1.0000
  H   H866      1.0  0.76156  0.27671  0.54054  1.0000
  H   H867      1.0  0.95153  0.49123  0.54612  1.0000
  H   H868      1.0  0.72938  0.14325  0.57920  1.0000
  C   C512      1.0  0.79446  0.48811  0.95788  1.0000
  H   H869      1.0  0.70595  0.13245  0.55608  1.0000
  C   C513      1.0  0.76881  0.26160  0.98008  1.0000
  C   C514      1.0  0.74585  0.24408  0.51239  1.0000
  H   H870      1.0  0.78756  0.47047  0.64771  1.0000
  C   C515      1.0  0.75625  0.26942  0.51445  1.0000
  C   C516      1.0  0.98715  0.49027  0.97190  1.0000
  N   N37       1.0  0.87609  0.34234  0.85258  1.0000
  C   C517      1.0  0.87627  0.31690  0.87600  1.0000
  C   C518      1.0  0.85515  0.34504  0.83224  1.0000
  C   C519      1.0  0.89503  0.34365  0.82658  1.0000
  C   C520      1.0  0.89699  0.31122  0.89773  1.0000
  C   C521      1.0  0.84578  0.31913  0.81602  1.0000
  C   C522      1.0  0.89856  0.31961  0.80056  1.0000
  H   H871      1.0  0.87356  0.29847  0.85987  1.0000
  H   H872      1.0  0.86256  0.31745  0.89593  1.0000
  H   H873      1.0  0.84228  0.35297  0.85078  1.0000
  H   H874      1.0  0.85643  0.36020  0.80947  1.0000
  H   H875      1.0  0.89359  0.36186  0.80844  1.0000
  H   H876      1.0  0.91029  0.34696  0.84137  1.0000
  H   H877      1.0  0.91130  0.30910  0.87958  1.0000
  H   H878      1.0  0.89979  0.32680  0.91858  1.0000
  H   H879      1.0  0.89526  0.29174  0.91303  1.0000
  H   H880      1.0  0.85726  0.30799  0.79829  1.0000
  H   H881      1.0  0.83177  0.32495  0.79887  1.0000
  H   H882      1.0  0.83955  0.30543  0.83790  1.0000
  H   H883      1.0  0.88961  0.32296  0.77474  1.0000
  H   H884      1.0  0.89430  0.29976  0.81265  1.0000
  H   H885      1.0  0.91597  0.31766  0.79373  1.0000
  H   H886      1.0  0.85098  0.43151  0.51515  1.0000
  H   H887      1.0  0.98193  0.45183  0.61244  1.0000
  C   C523      1.0  0.74736  0.45493  0.67183  1.0000
  C   C524      1.0  0.78478  0.16313  0.50025  1.0000
  H   H888      1.0  0.79680  0.09567  0.57092  1.0000
  H   H889      1.0  0.74331  0.45058  0.74712  1.0000
  H   H890      1.0  0.80715  0.45002  0.67263  1.0000
  H   H891      1.0  0.79611  0.47683  0.93283  1.0000
  H   H892      1.0  0.74330  0.23230  0.53717  1.0000
  C   C525      1.0  0.79379  0.11726  0.56324  1.0000
  H   H893      1.0  0.76624  0.14265  0.57696  1.0000
  C   C526      1.0  0.76558  0.07472  0.50979  1.0000
  H   H894      1.0  0.72788  0.12009  0.50092  1.0000
  H   H895      1.0  0.70999  0.01088  0.91907  1.0000
  C   C527      1.0  0.70576  0.03057  0.97120  1.0000
  H   H896      1.0  0.95887  0.47211  0.60384  1.0000
  C   C528      1.0  0.96171  0.41271  0.58121  1.0000
  C   C529      1.0  0.76832  0.10467  0.49804  1.0000
  C   C530      1.0  0.96104  0.43469  0.55076  1.0000
  H   H897      1.0  0.68957  0.22407  0.51822  1.0000
  C   C531      1.0  0.89196  0.45521  0.50220  1.0000
  H   H898      1.0  0.94383  0.44128  0.54981  1.0000
  H   H899      1.0  0.72029  0.16042  0.53774  1.0000
  S   S151      1.0  0.78389  0.45355  0.54846  1.0000
  C   C532      1.0  0.88341  0.38623  0.96937  1.0000
  H   H900      1.0  0.86967  0.39577  0.95640  1.0000
  H   H901      1.0  0.70823  0.05072  0.96005  1.0000
  H   H902      1.0  0.80085  0.12921  0.58552  1.0000
  H   H903      1.0  0.97794  0.40409  0.58588  1.0000
  N   N38       1.0  0.97532  0.45897  0.55469  1.0000
  H   H904      1.0  0.76149  0.10723  0.57831  1.0000
  C   C533      1.0  0.73553  0.12029  0.52826  1.0000
  H   H905      1.0  0.85858  0.47178  0.55501  1.0000
  C   C534      1.0  0.74226  0.45985  0.63086  1.0000
  H   H906      1.0  0.76643  0.44417  0.77487  1.0000
  H   H907      1.0  0.88762  0.39916  0.84054  1.0000
  H   H908      1.0  0.75947  0.38855  0.69595  1.0000
  H   H909      1.0  0.95479  0.42038  0.60728  1.0000
  H   H910      1.0  0.73179  0.45343  0.68701  1.0000
  H   H911      1.0  0.85870  0.39759  0.84768  1.0000
  H   H912      1.0  0.72578  0.46866  0.62859  1.0000
  C   C535      1.0  0.87463  0.39458  0.86056  1.0000
  H   H913      1.0  0.75445  0.16908  0.52584  1.0000
  C   C536      1.0  0.88276  0.35888  0.97984  1.0000
  H   H914      1.0  0.74984  0.39118  0.62808  1.0000
  S   S152      1.0  0.80109  0.36287  0.98534  1.0000
  N   N39       1.0  0.75934  0.12541  0.52436  1.0000
  H   H915      1.0  0.73582  0.40786  0.70547  1.0000
  H   H916      1.0  0.77023  0.07074  0.53851  1.0000
  N   N40       1.0  0.76184  0.43097  0.68101  1.0000
  C   C537      1.0  0.73828  0.39476  0.65069  1.0000
  H   H917      1.0  0.87557  0.40992  0.88245  1.0000
  H   H918      1.0  0.90251  0.42231  0.96668  1.0000
  H   H919      1.0  0.91236  0.40044  0.53528  1.0000
  H   H920      1.0  0.78104  0.45540  0.71694  1.0000
  H   H921      1.0  0.78478  0.41993  0.72307  1.0000
  C   C538      1.0  0.69976  0.02089  0.51806  1.0000
  H   H922      1.0  0.78916  0.40820  0.65975  1.0000
  C   C539      1.0  0.77968  0.42691  0.65316  1.0000
  C   C540      1.0  0.74910  0.40532  0.68511  1.0000
  H   H923      1.0  0.97527  0.48018  0.95578  1.0000
  H   H924      1.0  0.77360  0.42328  0.62538  1.0000
  H   H925      1.0  0.71662  0.28204  0.97518  1.0000
  C   C541      1.0  0.72238  0.14051  0.55182  1.0000
  C   C542      1.0  0.84305  0.45124  0.50915  1.0000
  C   C543      1.0  0.75123  0.27909  0.97367  1.0000
  S   S153      1.0  0.86040  0.33866  0.96996  1.0000
  C   C544      1.0  0.84231  0.46653  0.54567  1.0000
  H   H926      1.0  0.75788  0.39395  0.99015  1.0000
  S   S154      1.0  0.69649  0.13236  0.99061  1.0000
  H   H927      1.0  0.72655  0.38850  0.94559  1.0000
  H   H928      1.0  0.80305  0.12224  0.53818  1.0000
  C   C545      1.0  0.90203  0.40126  0.97531  1.0000
  C   C546      1.0  0.67216  0.22947  0.52070  1.0000
  H   H929      1.0  0.74439  0.36308  0.99042  1.0000
  C   C547      1.0  0.91997  0.38931  0.99249  1.0000
  C   C548      1.0  0.76177  0.15339  0.50781  1.0000
  H   H930      1.0  0.66739  0.20003  0.56476  1.0000
  H   H931      1.0  0.78494  0.26888  0.97552  1.0000
  H   H932      1.0  0.67934  0.29424  0.50149  1.0000
  H   H933      1.0  0.72739  0.41950  0.97022  1.0000
  H   H934      1.0  0.66641  0.18565  0.52051  1.0000
  H   H935      1.0  0.90246  0.46559  0.52177  1.0000
  C   C549      1.0  0.72501  0.39731  0.97333  1.0000
  H   H936      1.0  0.79354  0.16626  0.52602  1.0000
  C   C550      1.0  0.69733  0.99241  0.51781  1.0000
  H   H937      1.0  0.90714  0.48194  0.98217  1.0000
  H   H938      1.0  0.70850  0.39358  0.98363  1.0000
  C   C551      1.0  0.79044  0.47426  0.99088  1.0000
  H   H939      1.0  0.82625  0.44584  0.50229  1.0000
  H   H940      1.0  0.88461  0.43859  0.51822  1.0000
  C   C552      1.0  0.76558  0.23447  0.99202  1.0000
  H   H941      1.0  0.94409  0.46260  0.49328  1.0000
  C   C553      1.0  0.66155  0.20372  0.53651  1.0000
  C   C554      1.0  0.72718  0.24179  0.99191  1.0000
  Fe  Fe79      1.0  0.79040  0.60072  0.43718  1.0000
  S   S155      1.0  0.82246  0.61305  0.41360  1.0000
  S   S156      1.0  0.78167  0.55541  0.43687  1.0000
  Fe  Fe80      1.0  0.77518  0.66108  0.44755  1.0000
  S   S157      1.0  0.80643  0.67652  0.42465  1.0000
  H   H942      1.0  0.68947  0.61036  0.48199  1.0000
  Fe  Fe81      1.0  0.80408  0.64468  0.38088  1.0000
  S   S158      1.0  0.81587  0.65641  0.32285  1.0000
  Fe  Fe82      1.0  0.82248  0.64355  0.45848  1.0000
  H   H943      1.0  0.73059  0.67244  0.14753  1.0000
  S   S159      1.0  0.77179  0.63084  0.40165  1.0000
  H   H944      1.0  0.88814  0.61563  0.38657  1.0000
  Fe  Fe83      1.0  0.79890  0.62945  0.10362  1.0000
  S   S160      1.0  0.77447  0.62711  0.05846  1.0000
  S   S161      1.0  0.78601  0.62241  0.16227  1.0000
  Fe  Fe84      1.0  0.83463  0.64132  0.04811  1.0000
  S   S162      1.0  0.87100  0.64587  0.04690  1.0000
  Fe  Fe85      1.0  0.78907  0.66548  0.03523  1.0000
  S   S163      1.0  0.74562  0.68653  0.46809  1.0000
  Fe  Fe86      1.0  0.79930  0.60295  0.02668  1.0000
  H   H945      1.0  0.75876  0.69779  0.23059  1.0000
  S   S164      1.0  0.81254  0.66849  0.08179  1.0000
  S   S165      1.0  0.82256  0.60243  0.07325  1.0000
  H   H946      1.0  0.91678  0.64034  0.04051  1.0000
  C   C555      1.0  0.99181  0.51551  0.43791  1.0000
  H   H947      1.0  0.73015  0.61068  0.00781  1.0000
  H   H948      1.0  0.98084  0.52073  0.29486  1.0000
  C   C556      1.0  0.92318  0.65583  0.36464  1.0000
  H   H949      1.0  0.73742  0.53610  0.45747  1.0000
  H   H950      1.0  0.86183  0.51640  0.43704  1.0000
  H   H951      1.0  0.71567  0.73979  0.14843  1.0000
  H   H952      1.0  0.75181  0.57338  0.49153  1.0000
  H   H953      1.0  0.77334  0.88645  0.03459  1.0000
  H   H954      1.0  0.74452  0.89269  0.03656  1.0000
  S   S166      1.0  0.81242  0.64115  0.00012  1.0000
  H   H955      1.0  0.74643  0.62104  0.47449  1.0000
  C   C557      1.0  0.84575  0.50734  0.43453  1.0000
  C   C558      1.0  0.80741  0.64639  0.27847  1.0000
  C   C559      1.0  0.78991  0.62943  0.27342  1.0000
  C   C560      1.0  0.78378  0.62225  0.23777  1.0000
  C   C561      1.0  0.79507  0.63166  0.20658  1.0000
  C   C562      1.0  0.81254  0.64869  0.21160  1.0000
  C   C563      1.0  0.81860  0.65602  0.24726  1.0000
  H   H956      1.0  0.78110  0.62184  0.29697  1.0000
  H   H957      1.0  0.77020  0.60914  0.23435  1.0000
  H   H958      1.0  0.82139  0.65620  0.18803  1.0000
  H   H959      1.0  0.83213  0.66917  0.25065  1.0000
  H   H960      1.0  0.74598  0.64738  0.12545  1.0000
  H   H961      1.0  0.97049  0.55959  0.01204  1.0000
  H   H962      1.0  0.83403  0.52449  0.43156  1.0000
  H   H963      1.0  0.89342  0.57852  0.04190  1.0000
  H   H964      1.0  0.96379  0.49289  0.25456  1.0000
  C   C564      1.0  0.71969  0.72927  0.49283  1.0000
  C   C565      1.0  0.86344  0.70269  0.32207  1.0000
  C   C566      1.0  0.72407  0.58793  0.43641  1.0000
  C   C567      1.0  0.69498  0.97889  0.48471  1.0000
  H   H965      1.0  0.71166  0.74358  0.10050  1.0000
  H   H966      1.0  0.71402  0.71035  0.11952  1.0000
  C   C568      1.0  0.87837  0.61686  0.36160  1.0000
  C   C569      1.0  0.78396  0.52723  0.46804  1.0000
  C   C570      1.0  0.88294  0.61960  0.46698  1.0000
  H   H967      1.0  0.86312  0.64699  0.32826  1.0000
  H   H968      1.0  0.73130  0.67173  0.09794  1.0000
  N   N41       1.0  0.88273  0.66885  0.36602  1.0000
  C   C571      1.0  0.88422  0.69386  0.34196  1.0000
  C   C572      1.0  0.90344  0.66578  0.38688  1.0000
  C   C573      1.0  0.86434  0.67124  0.39300  1.0000
  C   C574      1.0  0.75775  0.88175  0.02206  1.0000
  S   S167      1.0  0.76300  0.69710  0.01622  1.0000
  C   C575      1.0  0.75593  0.74165  0.47678  1.0000
  C   C576      1.0  0.86500  0.69593  0.41839  1.0000
  C   C577      1.0  0.75703  0.73185  0.00341  1.0000
  H   H969      1.0  0.88965  0.71157  0.35775  1.0000
  H   H970      1.0  0.69762  0.95765  0.01041  1.0000
  C   C578      1.0  0.95879  0.55088  0.03185  1.0000
  H   H971      1.0  0.90796  0.68539  0.39913  1.0000
  H   H972      1.0  0.84860  0.67154  0.37889  1.0000
  H   H973      1.0  0.86372  0.65297  0.41112  1.0000
  H   H974      1.0  0.77189  0.73632  0.46693  1.0000
  S   S168      1.0  0.94773  0.61171  0.47831  1.0000
  C   C579      1.0  0.93559  0.56111  0.02447  1.0000
  H   H975      1.0  0.85014  0.70791  0.34132  1.0000
  H   H976      1.0  0.75587  0.93489  0.02000  1.0000
  C   C580      1.0  0.69746  0.59022  0.48656  1.0000
  C   C581      1.0  0.77957  0.50103  0.45548  1.0000
  H   H977      1.0  0.89066  0.64380  0.31892  1.0000
  H   H978      1.0  0.86460  0.71546  0.40309  1.0000
  H   H979      1.0  0.87912  0.69488  0.43662  1.0000
  H   H980      1.0  0.78925  0.74658  0.00726  1.0000
  H   H981      1.0  0.78810  0.52941  0.04742  1.0000
  H   H982      1.0  0.92640  0.55664  0.05008  1.0000
  H   H983      1.0  0.78243  0.70185  0.20331  1.0000
  S   S169      1.0  0.69207  0.94289  0.48228  1.0000
  C   C582      1.0  0.90453  0.61069  0.46383  1.0000
  H   H984      1.0  0.72024  0.63564  0.47320  1.0000
  H   H985      1.0  0.90163  0.65196  0.41092  1.0000
  N   N42       1.0  0.72114  0.59161  0.47715  1.0000
  S   S170      1.0  0.79139  0.62963  0.48431  1.0000
  H   H986      1.0  0.72251  0.62946  0.41294  1.0000
  C   C583      1.0  0.87717  0.63964  0.49211  1.0000
  H   H987      1.0  0.96033  0.52844  0.03185  1.0000
  H   H988      1.0  0.92143  0.63458  0.35576  1.0000
  H   H989      1.0  0.74148  0.58665  0.42893  1.0000
  H   H990      1.0  0.85801  0.68717  0.30277  1.0000
  H   H991      1.0  0.69312  0.98427  0.42623  1.0000
  H   H992      1.0  0.77555  0.49837  0.42707  1.0000
  H   H993      1.0  0.89673  0.69094  0.32031  1.0000
  C   C584      1.0  0.87890  0.64482  0.34208  1.0000
  H   H994      1.0  0.79121  0.92453  0.00739  1.0000
  H   H995      1.0  0.96372  0.55773  0.05927  1.0000
  H   H996      1.0  0.85059  0.69588  0.43656  1.0000
  C   C585      1.0  0.69983  0.97783  0.99924  1.0000
  H   H997      1.0  0.69651  0.61365  0.41847  1.0000
  C   C586      1.0  0.72993  0.61903  0.48614  1.0000
  H   H998      1.0  0.67944  0.98643  0.12022  1.0000
  C   C587      1.0  0.75087  0.76888  0.48617  1.0000
  H   H999      1.0  0.71479  0.60348  0.38283  1.0000
  H   H1000     1.0  0.76418  0.67442  0.19485  1.0000
  C   C588      1.0  0.98877  0.50041  0.29358  1.0000
  H   H1001     1.0  0.86667  0.72126  0.30554  1.0000
  H   H1002     1.0  0.88511  0.60111  0.34308  1.0000
  H   H1003     1.0  0.92191  0.51336  0.02704  1.0000
  H   H1004     1.0  0.87083  0.61123  0.44968  1.0000
  N   N43       1.0  0.75928  0.71487  0.13690  1.0000
  C   C589      1.0  0.78149  0.72694  0.13555  1.0000
  C   C590      1.0  0.75198  0.71449  0.17641  1.0000
  C   C591      1.0  0.74458  0.73285  0.11413  1.0000
  C   C592      1.0  0.76106  0.68675  0.12142  1.0000
  C   C593      1.0  0.78994  0.73578  0.09731  1.0000
  C   C594      1.0  0.76532  0.69606  0.20230  1.0000
  C   C595      1.0  0.72018  0.73110  0.12151  1.0000
  C   C596      1.0  0.74089  0.66905  0.12320  1.0000
  H   H1005     1.0  0.78217  0.74523  0.15305  1.0000
  H   H1006     1.0  0.79371  0.71241  0.14679  1.0000
  H   H1007     1.0  0.73515  0.70786  0.17968  1.0000
  H   H1008     1.0  0.75196  0.73542  0.18755  1.0000
  H   H1009     1.0  0.74839  0.75461  0.11814  1.0000
  H   H1010     1.0  0.74723  0.72902  0.08442  1.0000
  H   H1011     1.0  0.76581  0.68770  0.09216  1.0000
  H   H1012     1.0  0.77449  0.67490  0.13400  1.0000
  H   H1013     1.0  0.78156  0.75438  0.08712  1.0000
  H   H1014     1.0  0.80726  0.74062  0.09914  1.0000
  H   H1015     1.0  0.78855  0.71974  0.07670  1.0000
  C   C597      1.0  0.92337  0.51876  0.99742  1.0000
  C   C598      1.0  0.91041  0.63961  0.01315  1.0000
  H   H1016     1.0  0.75489  0.85975  0.02643  1.0000
  H   H1017     1.0  0.68912  0.57624  0.46794  1.0000
  H   H1018     1.0  0.90899  0.59570  0.44368  1.0000
  H   H1019     1.0  0.86162  0.61149  0.36900  1.0000
  H   H1020     1.0  0.92651  0.66912  0.34064  1.0000
  H   H1021     1.0  0.88867  0.54264  0.03673  1.0000
  H   H1022     1.0  0.93754  0.65606  0.38244  1.0000
  H   H1023     1.0  0.68402  0.81001  0.47079  1.0000
  C   C599      1.0  0.88852  0.56265  0.02254  1.0000
  C   C600      1.0  0.71373  0.61009  0.41174  1.0000
  H   H1024     1.0  0.76312  0.78409  0.48331  1.0000
  H   H1025     1.0  0.97865  0.52494  0.42312  1.0000
  C   C601      1.0  0.78996  0.51811  0.02241  1.0000
  H   H1026     1.0  0.87167  0.56766  0.01481  1.0000
  H   H1027     1.0  0.71717  0.56845  0.42755  1.0000
  H   H1028     1.0  0.93596  0.58368  0.02196  1.0000
  C   C602      1.0  0.88805  0.64147  0.00816  1.0000
  H   H1029     1.0  0.71253  0.53620  0.48326  1.0000
  H   H1030     1.0  0.66396  0.81307  0.43681  1.0000
  C   C603      1.0  0.92047  0.62123  0.48632  1.0000
  C   C604      1.0  0.77273  0.75186  0.00113  1.0000
  C   C605      1.0  0.74036  0.72150  0.47989  1.0000
  H   H1031     1.0  0.80687  0.88277  0.99988  1.0000
  C   C606      1.0  0.72991  0.54046  0.48450  1.0000
  C   C607      1.0  0.66934  0.80041  0.46037  1.0000
  H   H1032     1.0  0.67428  0.77988  0.45123  1.0000
  C   C608      1.0  0.73566  0.73954  0.99517  1.0000
  H   H1033     1.0  0.72320  0.72455  0.99708  1.0000
  H   H1034     1.0  0.74910  0.97999  0.99981  1.0000
  H   H1035     1.0  0.95471  0.49417  0.47796  1.0000
  H   H1036     1.0  0.84491  0.49551  0.40904  1.0000
  H   H1037     1.0  0.99344  0.54754  0.47728  1.0000
  H   H1038     1.0  0.98988  0.49286  0.23659  1.0000
  H   H1039     1.0  0.83887  0.50486  0.49180  1.0000
  C   C609      1.0  0.74336  0.63765  0.96605  1.0000
  H   H1040     1.0  0.79213  0.55021  0.51529  1.0000
  Fe  Fe87      1.0  0.69080  0.87975  0.60003  1.0000
  S   S171      1.0  0.71475  0.88338  0.55314  1.0000
  S   S172      1.0  0.70313  0.88894  0.65755  1.0000
  Fe  Fe88      1.0  0.68885  0.90686  0.52295  1.0000
  H   H1041     1.0  0.70744  0.71406  0.49554  1.0000
  Fe  Fe89      1.0  0.70072  0.84466  0.53169  1.0000
  C   C610      1.0  0.73107  0.62643  0.52682  1.0000
  C   C611      1.0  0.75314  0.93675  0.99006  1.0000
  S   S173      1.0  0.67823  0.84005  0.58023  1.0000
  S   S174      1.0  0.66580  0.89682  0.90864  1.0000
  H   H1042     1.0  0.75211  0.82611  0.71354  1.0000
  C   C612      1.0  0.93825  0.55606  0.95858  1.0000
  Fe  Fe90      1.0  0.97464  0.61067  0.52040  1.0000
  H   H1043     1.0  0.74935  0.65471  0.85282  1.0000
  S   S175      1.0  0.97541  0.57487  0.55899  1.0000
  H   H1044     1.0  0.72256  0.64364  0.90445  1.0000
  H   H1045     1.0  0.88786  0.63893  0.91507  1.0000
  H   H1046     1.0  0.74459  0.92055  0.92377  1.0000
  Fe  Fe91      1.0  0.68403  0.86356  0.87894  1.0000
  S   S176      1.0  0.71618  0.87642  0.89951  1.0000
  C   C613      1.0  0.98940  0.60576  0.69730  1.0000
  Fe  Fe92      1.0  0.71079  0.84701  0.94698  1.0000
  H   H1047     1.0  0.67185  0.84921  0.68572  1.0000
  Fe  Fe93      1.0  0.69763  0.90811  0.93231  1.0000
  S   S177      1.0  0.70721  0.95323  0.93127  1.0000
  S   S178      1.0  0.67934  0.83266  0.92501  1.0000
  H   H1048     1.0  0.76775  0.59854  0.92170  1.0000
  H   H1049     1.0  0.78884  0.77187  0.62777  1.0000
  H   H1050     1.0  0.77707  0.79072  0.59205  1.0000
  Fe  Fe94      1.0  0.96901  0.62326  0.91117  1.0000
  S   S179      1.0  0.93386  0.63650  0.90860  1.0000
  S   S180      1.0  0.97705  0.59376  0.86667  1.0000
  C   C614      1.0  0.73758  0.63133  0.90088  1.0000
  H   H1051     1.0  0.86283  0.64208  0.96847  1.0000
  C   C615      1.0  0.70378  0.98128  0.96167  1.0000
  H   H1052     1.0  0.97756  0.49890  0.52891  1.0000
  S   S181      1.0  0.97461  0.59803  0.65796  1.0000
  H   H1053     1.0  0.97151  0.57807  0.73152  1.0000
  H   H1054     1.0  0.77060  0.67007  0.89662  1.0000
  S   S182      1.0  0.66589  0.90571  0.57099  1.0000
  H   H1055     1.0  0.91361  0.55235  0.91566  1.0000
  C   C616      1.0  0.73010  0.76645  0.98426  1.0000
  C   C617      1.0  0.91658  0.63741  0.94746  1.0000
  H   H1056     1.0  0.76797  0.94052  0.92006  1.0000
  H   H1057     1.0  0.94062  0.55485  0.89957  1.0000
  C   C618      1.0  0.91453  0.64048  0.51243  1.0000
  Fe  Fe95      1.0  0.98826  0.60363  0.60039  1.0000
  H   H1058     1.0  0.76605  0.87131  0.96702  1.0000
  C   C619      1.0  0.97118  0.66627  0.81099  1.0000
  H   H1059     1.0  0.76692  0.90496  0.87449  1.0000
  C   C620      1.0  0.89422  0.63888  0.94245  1.0000
  H   H1060     1.0  0.71362  0.77175  0.97785  1.0000
  C   C621      1.0  0.76157  0.66778  0.92278  1.0000
  C   C622      1.0  0.93036  0.54596  0.92159  1.0000
  C   C623      1.0  0.79354  0.53201  0.98930  1.0000
  C   C624      1.0  0.69438  0.87905  0.70253  1.0000
  C   C625      1.0  0.67931  0.85869  0.70871  1.0000
  H   H1061     1.0  0.67374  0.58366  0.52987  1.0000
  C   C626      1.0  0.68346  0.86230  0.77538  1.0000
  C   C627      1.0  0.69844  0.88278  0.76917  1.0000
  C   C628      1.0  0.70390  0.89097  0.73304  1.0000
  H   H1062     1.0  0.74058  0.88639  0.97161  1.0000
  H   H1063     1.0  0.91727  0.63850  0.71401  1.0000
  H   H1064     1.0  0.70590  0.89221  0.79221  1.0000
  H   H1065     1.0  0.71562  0.90666  0.72873  1.0000
  H   H1066     1.0  0.89361  0.55415  0.96557  1.0000
  S   S183      1.0  0.69487  0.87998  0.98096  1.0000
  H   H1067     1.0  0.90488  0.58459  0.97981  1.0000
  C   C629      1.0  0.98384  0.59327  0.73075  1.0000
  C   C630      1.0  0.92462  0.63736  0.98299  1.0000
  C   C631      1.0  0.98884  0.49346  0.60148  1.0000
  H   H1068     1.0  0.72275  0.60164  0.96275  1.0000
  C   C632      1.0  0.79254  0.62624  0.90426  1.0000
  C   C633      1.0  0.69134  0.58071  0.52571  1.0000
  H   H1069     1.0  0.73075  0.62878  0.84305  1.0000
  S   S184      1.0  0.98534  0.59889  0.95530  1.0000
  H   H1070     1.0  0.77319  0.67305  0.94445  1.0000
  H   H1071     1.0  0.76790  0.87877  0.90816  1.0000
  C   C634      1.0  0.99417  0.60023  0.76319  1.0000
  N   N44       1.0  0.75396  0.63911  0.92868  1.0000
  H   H1072     1.0  0.79675  0.80637  0.62024  1.0000
  H   H1073     1.0  0.71488  0.63098  0.53830  1.0000
  S   S185      1.0  0.98530  0.64030  0.56300  1.0000
  N   N45       1.0  0.93523  0.64885  0.78578  1.0000
  C   C635      1.0  0.94647  0.66890  0.80958  1.0000
  C   C636      1.0  0.91176  0.65703  0.78552  1.0000
  C   C637      1.0  0.94465  0.65155  0.74767  1.0000
  C   C638      1.0  0.93905  0.62070  0.80131  1.0000
  C   C639      1.0  0.73020  0.77666  0.49891  1.0000
  C   C640      1.0  0.90030  0.65684  0.82326  1.0000
  C   C641      1.0  0.93466  0.63445  0.71759  1.0000
  C   C642      1.0  0.92335  0.59832  0.79016  1.0000
  H   H1074     1.0  0.94257  0.69015  0.80083  1.0000
  H   H1075     1.0  0.94088  0.66709  0.83854  1.0000
  H   H1076     1.0  0.90224  0.64409  0.76761  1.0000
  H   H1077     1.0  0.90974  0.67782  0.77356  1.0000
  H   H1078     1.0  0.94384  0.67312  0.73819  1.0000
  H   H1079     1.0  0.96199  0.64566  0.74729  1.0000
  H   H1080     1.0  0.95552  0.61344  0.79423  1.0000
  H   H1081     1.0  0.93847  0.62116  0.83174  1.0000
  C   C643      1.0  0.75748  0.88825  0.98069  1.0000
  H   H1082     1.0  0.69747  0.98088  0.54319  1.0000
  S   S186      1.0  0.79397  0.56831  0.98600  1.0000
  H   H1083     1.0  0.90527  0.67410  0.84021  1.0000
  H   H1084     1.0  0.88269  0.65919  0.81936  1.0000
  H   H1085     1.0  0.90309  0.63765  0.83873  1.0000
  H   H1086     1.0  0.93805  0.61251  0.72192  1.0000
  H   H1087     1.0  0.94254  0.63977  0.69104  1.0000
  H   H1088     1.0  0.93275  0.57956  0.78380  1.0000
  H   H1089     1.0  0.91344  0.60290  0.76601  1.0000
  H   H1090     1.0  0.91265  0.59288  0.81359  1.0000
  H   H1091     1.0  0.92664  0.64885  0.52978  1.0000
  C   C644      1.0  0.79575  0.51675  0.95710  1.0000
  C   C645      1.0  0.74397  0.69021  0.92200  1.0000
  H   H1092     1.0  0.75764  0.61916  0.85385  1.0000
  C   C646      1.0  0.73617  0.60924  0.97916  1.0000
  H   H1093     1.0  0.79033  0.90189  0.90166  1.0000
  H   H1094     1.0  0.77965  0.61740  0.95654  1.0000
  H   H1095     1.0  0.99002  0.59010  0.78860  1.0000
  H   H1096     1.0  0.69877  0.76186  0.51228  1.0000
  H   H1097     1.0  0.95476  0.54746  0.96115  1.0000
  H   H1098     1.0  0.72874  0.65085  0.96751  1.0000
  C   C647      1.0  0.78897  0.50750  0.52901  1.0000
  C   C648      1.0  0.90467  0.50423  0.97890  1.0000
  S   S187      1.0  0.67643  0.85022  0.82030  1.0000
  H   H1099     1.0  0.90361  0.50858  0.94927  1.0000
  N   N46       1.0  0.74722  0.81927  0.63527  1.0000
  C   C649      1.0  0.73076  0.82131  0.66592  1.0000
  C   C650      1.0  0.73607  0.80754  0.60289  1.0000
  C   C651      1.0  0.75455  0.84765  0.62610  1.0000
  C   C652      1.0  0.76564  0.80162  0.64859  1.0000
  C   C653      1.0  0.73794  0.83597  0.70067  1.0000
  C   C654      1.0  0.72719  0.77877  0.60836  1.0000
  C   C655      1.0  0.76582  0.85219  0.58873  1.0000
  C   C656      1.0  0.78285  0.79254  0.62029  1.0000
  H   H1100     1.0  0.71585  0.83191  0.65624  1.0000
  H   H1101     1.0  0.72559  0.80089  0.67537  1.0000
  H   H1102     1.0  0.74663  0.80666  0.57839  1.0000
  H   H1103     1.0  0.72249  0.82111  0.59440  1.0000
  H   H1104     1.0  0.74056  0.86209  0.62625  1.0000
  H   H1105     1.0  0.76564  0.85501  0.64730  1.0000
  H   H1106     1.0  0.77460  0.81220  0.67015  1.0000
  H   H1107     1.0  0.75969  0.78309  0.66293  1.0000
  H   H1108     1.0  0.74103  0.85776  0.69526  1.0000
  H   H1109     1.0  0.72470  0.83520  0.72131  1.0000
  H   H1110     1.0  0.82056  0.90019  0.96427  1.0000
  H   H1111     1.0  0.71338  0.77848  0.62781  1.0000
  H   H1112     1.0  0.72104  0.77173  0.58179  1.0000
  H   H1113     1.0  0.73981  0.76401  0.61706  1.0000
  H   H1114     1.0  0.77120  0.87354  0.58693  1.0000
  H   H1115     1.0  0.75468  0.84958  0.56562  1.0000
  H   H1116     1.0  0.78024  0.83919  0.58482  1.0000
  H   H1117     1.0  0.73507  0.69176  0.94827  1.0000
  H   H1118     1.0  0.98265  0.51171  0.58672  1.0000
  H   H1119     1.0  0.97651  0.64547  0.81865  1.0000
  H   H1120     1.0  0.79845  0.52714  0.93127  1.0000
  H   H1121     1.0  0.73279  0.60987  0.90502  1.0000
  H   H1122     1.0  0.98771  0.49807  0.63110  1.0000
  H   H1123     1.0  0.74018  0.64552  0.52899  1.0000
  C   C657      1.0  0.76215  0.92032  0.92918  1.0000
  H   H1124     1.0  0.80385  0.60854  0.90442  1.0000
  H   H1125     1.0  0.75176  0.71013  0.91759  1.0000
  H   H1126     1.0  0.73559  0.93366  0.98654  1.0000
  H   H1127     1.0  0.73259  0.68766  0.89928  1.0000
  H   H1128     1.0  0.77506  0.97135  0.98150  1.0000
  H   H1129     1.0  0.97719  0.67998  0.83226  1.0000
  C   C658      1.0  0.77287  0.61937  0.92865  1.0000
  C   C659      1.0  0.74457  0.63384  0.86051  1.0000
  H   H1130     1.0  0.79234  0.51027  0.55765  1.0000
  C   C660      1.0  0.78886  0.53026  0.50501  1.0000
  H   H1131     1.0  0.75442  0.64527  0.98714  1.0000
  H   H1132     1.0  0.74953  0.59407  0.97945  1.0000
  H   H1133     1.0  0.69935  0.59212  0.54725  1.0000
  S   S188      1.0  0.67645  0.86843  0.49795  1.0000
  C   C661      1.0  0.67399  0.85035  0.74483  1.0000
  C   C662      1.0  0.77262  0.89999  0.90252  1.0000
  H   H1134     1.0  0.73983  0.61116  0.54363  1.0000
  H   H1135     1.0  0.88870  0.66514  0.53480  1.0000
  H   H1136     1.0  0.94003  0.57847  0.95595  1.0000
  H   H1137     1.0  0.93253  0.52365  0.91957  1.0000
  H   H1138     1.0  0.73220  0.57035  0.52625  1.0000
  C   C663      1.0  0.74581  0.78646  0.98174  1.0000
  C   C664      1.0  0.73435  0.56982  0.49614  1.0000
  C   C665      1.0  0.80437  0.89342  0.97326  1.0000
  H   H1139     1.0  0.69479  0.55877  0.52994  1.0000
  N   N47       1.0  0.76608  0.91558  0.96942  1.0000
  C   C666      1.0  0.71465  0.75649  0.50231  1.0000
  S   S189      1.0  0.98953  0.52664  0.91559  1.0000
  Fe  Fe96      1.0  0.66366  0.86728  0.95586  1.0000
  H   H1140     1.0  0.78846  0.63080  0.87551  1.0000
  H   H1141     1.0  0.80143  0.64352  0.91552  1.0000
  C   C667      1.0  0.87999  0.64064  0.97266  1.0000
  H   H1142     1.0  0.94179  0.63640  0.98723  1.0000
  C   C668      1.0  0.78955  0.91869  0.97823  1.0000
  S   S190      1.0  0.73989  0.82112  0.96837  1.0000
  S   S191      1.0  0.72487  0.81164  0.51039  1.0000
  H   H1143     1.0  0.66237  0.83453  0.74920  1.0000
  C   C669      1.0  0.75776  0.96665  0.98006  1.0000
  H   H1144     1.0  0.79914  0.87875  0.95279  1.0000
  H   H1145     1.0  0.73738  0.52601  0.50439  1.0000
  H   H1146     1.0  0.79655  0.93561  0.96176  1.0000
  C   C670      1.0  0.90300  0.56292  0.98796  1.0000
  H   H1147     1.0  0.97900  0.67256  0.78486  1.0000
  S   S192      1.0  0.85065  0.65335  0.49498  1.0000
  H   H1148     1.0  0.75147  0.97234  0.95270  1.0000
  H   H1149     1.0  0.93856  0.50854  0.98810  1.0000
  C   C671      1.0  0.89302  0.64975  0.51511  1.0000
  H   H1150     1.0  0.77953  0.79394  0.98883  1.0000
  H   H1151     1.0  0.87476  0.49360  0.50476  1.0000
  N   N48       1.0  0.92472  0.54914  0.99182  1.0000
  H   H1152     1.0  0.88898  0.50923  0.99210  1.0000
  C   C672      1.0  0.76714  0.77884  0.99054  1.0000
