data_image0
_chemical_formula_structural       HCSHFeS2HSHSFeCSH2CH5FeC6H8CHCH3C2FeSH2CH3CH2CHCHC2H2CH2CHC2HCH2NH2C2H2C2H9C2HSCH2CH2CHNH3C2SHFeCH3CHNH2SH2C2HNCH5CH4CSH6SHFeSCHSHCSH4FeC3HC2H2C2H4FeC6H2NC8H18CHCHSCSH2C2HCH7CHSNCH3CH3SC2SC2H7C2HCH3CH2NHFeH2C3HSHSHSH2FeH3C2HSCHCSCSHSH2CHFeS2FeSH7CSH3FeCH2C2H2SC7H3C6H2C6H2CH2NCHCH3FeH3CNSHC2HCHNHSH4C2H3CSCH2C2HCHCSFeH4NH6CH12CHCSCFeCSCH8C3HCHCFe2CH2FeCH2SH2FeSHSFeSC2SCFeSHSH3CH2CH3C6H7CNCHCHCH8CH5C2HCH2CHCFeHCSHNHCH2C2H4CH3FeH6CH2SHNH3CHNHCS2FeSHFeSH4CHFeH2C3SH2C4H2CSCHCSH2C2HNHC5H3C3HCSH2CSH3C3HCHC3HCH7C2H3SHCFeHCHSNHCHC2H2CH2C2FeH6CNCHCH4FeH2CSH2FeH3CSH3CH2C3HC2SHSHCHCH6C2H4CHC2SH5CH4SHSCH2CFeCSHCHSH6CSH2CHCH3C5HNC6HFeSC7H4NC6HCH4SH9CSH3FeNC7H7SH6CH4C3HFeHSFeH3CFeSHFeCSCH2FeCSH3Fe2H3CHFeSCFeS2CHCH2S2H3C2H2C7H5FeSHCHC2H3CH3FeC2HCSH3NH3CH4CSH5NH10SFeCH3CHSCH7C2HSH2CH2CFeSCHC2NH2CS2CH3CNH7SH4C3HC4HNC2HSHFeC3H4CHCHFeCH4CHCFeHC2H2SH2C4HSC2H4CSHCSC4HC2HC4H5CH4NH9NC2H2CHFeH2CSFeH2SC3SCHC2HSFeHCHSHCHCHSH3CSHSHFeSHSHC2H3FeC2H4CHCHC6H4C7H7FeHCH2CHNH7CH2CNH5CH3CH3C3HCS2H2CH4SH2SH2CS2CHSCH3SHCHCH2C2H3SFeSH5SCS3CFeSFeSHSCHCHCH3C2HCH2SFeH5C6H4CHSC2HCHCSCH4FeCH2C2HNC8H15SH4NCH2CFeCHCH2CHCH3FeCSCHCH3FeC2HCH2CH4C
_chemical_formula_sum              "H768 C448 S128 Fe64 N32"
_cell_length_a       41.3883
_cell_length_b       40.052
_cell_length_c       45.5553
_cell_angle_alpha    89.9046
_cell_angle_beta     89.8998
_cell_angle_gamma    114.226

_space_group_name_H-M_alt    "P 1"
_space_group_IT_number       1

loop_
  _space_group_symop_operation_xyz
  'x, y, z'

loop_
  _atom_site_type_symbol
  _atom_site_label
  _atom_site_symmetry_multiplicity
  _atom_site_fract_x
  _atom_site_fract_y
  _atom_site_fract_z
  _atom_site_occupancy
  H   H1        1.0  0.48729  0.37392  0.31430  1.0000
  C   C1        1.0  0.40399  0.35184  0.23051  1.0000
  S   S1        1.0  0.40660  0.43753  0.19812  1.0000
  H   H2        1.0  0.45961  0.43162  0.15927  1.0000
  Fe  Fe1       1.0  0.48437  0.03689  0.20216  1.0000
  S   S2        1.0  0.47270  0.06513  0.16327  1.0000
  S   S3        1.0  0.26556  0.20747  0.03464  1.0000
  H   H3        1.0  0.15443  0.47834  0.18429  1.0000
  S   S4        1.0  0.39753  0.37383  0.06979  1.0000
  H   H4        1.0  0.44881  0.07893  0.10764  1.0000
  S   S5        1.0  0.29132  0.31021  0.06110  1.0000
  Fe  Fe2       1.0  0.34657  0.34373  0.04464  1.0000
  C   C2        1.0  0.49176  0.36604  0.29177  1.0000
  S   S6        1.0  0.23391  0.36161  0.02711  1.0000
  H   H5        1.0  0.44918  0.02433  0.03926  1.0000
  H   H6        1.0  0.39230  0.10556  0.05044  1.0000
  C   C3        1.0  0.33789  0.08117  0.16296  1.0000
  H   H7        1.0  0.34384  0.04818  0.12800  1.0000
  H   H8        1.0  0.37547  0.18055  0.10538  1.0000
  H   H9        1.0  0.34101  0.22527  0.03064  1.0000
  H   H10       1.0  0.07261  0.44565  0.13255  1.0000
  H   H11       1.0  0.39535  0.49732  0.16220  1.0000
  Fe  Fe3       1.0  0.27356  0.33580  0.02378  1.0000
  C   C4        1.0  0.40365  0.41652  0.16362  1.0000
  C   C5        1.0  0.37047  0.39870  0.15015  1.0000
  C   C6        1.0  0.36787  0.38413  0.12169  1.0000
  C   C7        1.0  0.39847  0.38699  0.10679  1.0000
  C   C8        1.0  0.43142  0.40340  0.12083  1.0000
  C   C9        1.0  0.43402  0.41822  0.14906  1.0000
  H   H12       1.0  0.34681  0.39710  0.16137  1.0000
  H   H13       1.0  0.34235  0.37154  0.11103  1.0000
  H   H14       1.0  0.45516  0.40553  0.10944  1.0000
  H   H15       1.0  0.48896  0.48801  0.12039  1.0000
  H   H16       1.0  0.34384  0.05784  0.07502  1.0000
  H   H17       1.0  0.48263  0.07686  0.06351  1.0000
  H   H18       1.0  0.39714  0.36070  0.25182  1.0000
  H   H19       1.0  0.27973  0.05996  0.12970  1.0000
  C   C10       1.0  0.37774  0.46753  0.08645  1.0000
  H   H20       1.0  0.44403  0.30911  0.24537  1.0000
  C   C11       1.0  0.46605  0.32885  0.23183  1.0000
  H   H21       1.0  0.46843  0.40121  0.27462  1.0000
  H   H22       1.0  0.12028  0.46022  0.12943  1.0000
  H   H23       1.0  0.48095  0.47025  0.08313  1.0000
  C   C12       1.0  0.49291  0.49525  0.09677  1.0000
  C   C13       1.0  0.34861  0.07744  0.13108  1.0000
  Fe  Fe4       1.0  0.29102  0.26893  0.02732  1.0000
  S   S7        1.0  0.01502  0.48870  0.14410  1.0000
  H   H24       1.0  0.33946  0.10884  0.16789  1.0000
  H   H25       1.0  0.26435  0.09579  0.09150  1.0000
  C   C14       1.0  0.44289  0.37526  0.22189  1.0000
  H   H26       1.0  0.44448  0.37114  0.19786  1.0000
  H   H27       1.0  0.36689  0.48743  0.07972  1.0000
  H   H28       1.0  0.42456  0.45858  0.08788  1.0000
  C   C15       1.0  0.43477  0.03942  0.14276  1.0000
  H   H29       1.0  0.35647  0.07610  0.17809  1.0000
  H   H30       1.0  0.07386  0.41370  0.22855  1.0000
  C   C16       1.0  0.01075  0.44072  0.10038  1.0000
  H   H31       1.0  0.39557  0.04357  0.07793  1.0000
  C   C17       1.0  0.16619  0.35700  0.02080  1.0000
  H   H32       1.0  0.38596  0.14135  0.06874  1.0000
  C   C18       1.0  0.27112  0.14281  0.02332  1.0000
  C   C19       1.0  0.45643  0.03276  0.34539  1.0000
  H   H33       1.0  0.36413  0.44257  0.07293  1.0000
  H   H34       1.0  0.28971  0.03370  0.10265  1.0000
  C   C20       1.0  0.32653  0.19636  0.02642  1.0000
  H   H35       1.0  0.23919  0.04758  0.08933  1.0000
  H   H36       1.0  0.13302  0.45586  0.21693  1.0000
  C   C21       1.0  0.38389  0.11306  0.07168  1.0000
  H   H37       1.0  0.42906  0.03108  0.34780  1.0000
  C   C22       1.0  0.36714  0.15759  0.12145  1.0000
  C   C23       1.0  0.39927  0.03304  0.09885  1.0000
  H   H38       1.0  0.02812  0.40330  0.22191  1.0000
  C   C24       1.0  0.42948  0.05296  0.11563  1.0000
  H   H39       1.0  0.24248  0.13042  0.02469  1.0000
  H   H40       1.0  0.38637  0.35612  0.21392  1.0000
  N   N1        1.0  0.33000  0.08920  0.10735  1.0000
  H   H41       1.0  0.45781  0.32192  0.20854  1.0000
  H   H42       1.0  0.36404  0.16917  0.14288  1.0000
  C   C25       1.0  0.34538  0.08606  0.07799  1.0000
  C   C26       1.0  0.33131  0.12706  0.11180  1.0000
  H   H43       1.0  0.14413  0.42158  0.16801  1.0000
  H   H44       1.0  0.49911  0.40811  0.18217  1.0000
  C   C27       1.0  0.46619  0.37287  0.27054  1.0000
  C   C28       1.0  0.11995  0.42101  0.17908  1.0000
  H   H45       1.0  0.38930  0.14918  0.12350  1.0000
  H   H46       1.0  0.27316  0.06903  0.06318  1.0000
  H   H47       1.0  0.05579  0.42498  0.17614  1.0000
  H   H48       1.0  0.39762  0.32215  0.23096  1.0000
  H   H49       1.0  0.44740  0.40450  0.22459  1.0000
  H   H50       1.0  0.32979  0.09035  0.05980  1.0000
  H   H51       1.0  0.32326  0.13672  0.09121  1.0000
  H   H52       1.0  0.31128  0.12624  0.12852  1.0000
  H   H53       1.0  0.42245  0.48456  0.05704  1.0000
  C   C29       1.0  0.29169  0.06180  0.10759  1.0000
  C   C30       1.0  0.06356  0.44628  0.19331  1.0000
  H   H54       1.0  0.40306  0.11219  0.08821  1.0000
  S   S8        1.0  0.46171  0.02845  0.24787  1.0000
  C   C31       1.0  0.26626  0.06955  0.08655  1.0000
  H   H55       1.0  0.48988  0.29196  0.24596  1.0000
  H   H56       1.0  0.09879  0.41199  0.16241  1.0000
  C   C32       1.0  0.09862  0.46936  0.13270  1.0000
  H   H57       1.0  0.43520  0.48433  0.13619  1.0000
  H   H58       1.0  0.02249  0.46484  0.08668  1.0000
  C   C33       1.0  0.12839  0.45890  0.19316  1.0000
  H   H59       1.0  0.50217  0.05129  0.10138  1.0000
  N   N2        1.0  0.47084  0.36757  0.23825  1.0000
  H   H60       1.0  0.01024  0.40365  0.06582  1.0000
  H   H61       1.0  0.31107  0.06029  0.16839  1.0000
  H   H62       1.0  0.37777  0.09209  0.12982  1.0000
  C   C34       1.0  0.28956  0.18060  0.02805  1.0000
  C   C35       1.0  0.10481  0.49335  0.16030  1.0000
  S   S9        1.0  0.48156  0.48638  0.25750  1.0000
  H   H63       1.0  0.43935  0.35410  0.27823  1.0000
  Fe  Fe5       1.0  0.45911  0.48227  0.21194  1.0000
  C   C36       1.0  0.41791  0.48160  0.08122  1.0000
  H   H64       1.0  0.05422  0.44405  0.24118  1.0000
  H   H65       1.0  0.11328  0.39953  0.19631  1.0000
  H   H66       1.0  0.04458  0.45927  0.19048  1.0000
  C   C37       1.0  0.05501  0.42593  0.22304  1.0000
  H   H67       1.0  0.37073  0.45878  0.10956  1.0000
  N   N3        1.0  0.10108  0.47456  0.18964  1.0000
  H   H68       1.0  0.46512  0.04365  0.32280  1.0000
  H   H69       1.0  0.10629  0.49132  0.23541  1.0000
  S   S10       1.0  0.28671  0.01238  0.03143  1.0000
  H   H70       1.0  0.48660  0.33661  0.29275  1.0000
  H   H71       1.0  0.17662  0.38426  0.03001  1.0000
  C   C38       1.0  0.10703  0.50309  0.21315  1.0000
  C   C39       1.0  0.49874  0.31979  0.23623  1.0000
  H   H72       1.0  0.09880  0.48611  0.11318  1.0000
  N   N4        1.0  0.50250  0.00982  0.07109  1.0000
  C   C40       1.0  0.50622  0.39594  0.22827  1.0000
  H   H73       1.0  0.00974  0.50331  0.02483  1.0000
  H   H74       1.0  0.50475  0.01652  0.02341  1.0000
  H   H75       1.0  0.50611  0.01403  0.32464  1.0000
  H   H76       1.0  0.47321  0.05367  0.39041  1.0000
  H   H77       1.0  0.47336  0.08712  0.36428  1.0000
  C   C41       1.0  0.47916  0.06258  0.36724  1.0000
  H   H78       1.0  0.43120  0.49088  0.64147  1.0000
  H   H79       1.0  0.47783  0.47611  0.65077  1.0000
  H   H80       1.0  0.43078  0.45888  0.68601  1.0000
  H   H81       1.0  0.07554  0.43503  0.80661  1.0000
  C   C42       1.0  0.29552  0.24241  0.88923  1.0000
  S   S11       1.0  0.45275  0.49030  0.78619  1.0000
  H   H82       1.0  0.10958  0.42216  0.81722  1.0000
  H   H83       1.0  0.36703  0.40547  0.95503  1.0000
  H   H84       1.0  0.39837  0.46574  0.93077  1.0000
  H   H85       1.0  0.46699  0.46038  0.93147  1.0000
  H   H86       1.0  0.02556  0.37958  0.86047  1.0000
  H   H87       1.0  0.19156  0.28888  0.00304  1.0000
  S   S12       1.0  0.26906  0.29216  0.99141  1.0000
  H   H88       1.0  0.14595  0.47612  0.79318  1.0000
  Fe  Fe6       1.0  0.32587  0.32731  0.98025  1.0000
  S   S13       1.0  0.34354  0.33129  0.93273  1.0000
  C   C43       1.0  0.08396  0.45358  0.73818  1.0000
  H   H89       1.0  0.31701  0.17226  0.96348  1.0000
  S   S14       1.0  0.31419  0.01303  0.96328  1.0000
  H   H90       1.0  0.05003  0.45016  0.70078  1.0000
  C   C44       1.0  0.29515  0.22397  0.95207  1.0000
  S   S15       1.0  0.07257  0.28444  0.98659  1.0000
  H   H91       1.0  0.06083  0.49102  0.72155  1.0000
  H   H92       1.0  0.28532  0.44098  0.95401  1.0000
  H   H93       1.0  0.32401  0.43456  0.96239  1.0000
  H   H94       1.0  0.41566  0.47258  0.71884  1.0000
  Fe  Fe7       1.0  0.32948  0.05109  0.00205  1.0000
  C   C45       1.0  0.30961  0.17231  0.94012  1.0000
  C   C46       1.0  0.43935  0.47216  0.70760  1.0000
  C   C47       1.0  0.07161  0.47172  0.71322  1.0000
  H   H95       1.0  0.49572  0.08661  0.76366  1.0000
  C   C48       1.0  0.48893  0.10589  0.83115  1.0000
  C   C49       1.0  0.49611  0.13706  0.78382  1.0000
  H   H96       1.0  0.44881  0.45512  0.72142  1.0000
  H   H97       1.0  0.24209  0.18847  0.93380  1.0000
  C   C50       1.0  0.25476  0.20105  0.95467  1.0000
  C   C51       1.0  0.09101  0.49769  0.77742  1.0000
  H   H98       1.0  0.05959  0.43474  0.74992  1.0000
  H   H99       1.0  0.08352  0.40176  0.78487  1.0000
  H   H100      1.0  0.35603  0.26480  0.92640  1.0000
  H   H101      1.0  0.31803  0.20326  0.88370  1.0000
  Fe  Fe8       1.0  0.03064  0.30596  0.99650  1.0000
  C   C52       1.0  0.40733  0.44312  0.89027  1.0000
  C   C53       1.0  0.40230  0.41092  0.87529  1.0000
  C   C54       1.0  0.38322  0.37668  0.88871  1.0000
  C   C55       1.0  0.37000  0.37452  0.91740  1.0000
  C   C56       1.0  0.37658  0.40679  0.93281  1.0000
  C   C57       1.0  0.39443  0.44090  0.91905  1.0000
  H   H102      1.0  0.41208  0.41238  0.85306  1.0000
  H   H103      1.0  0.37838  0.35183  0.87667  1.0000
  N   N5        1.0  0.25020  0.37698  0.92389  1.0000
  C   C58       1.0  0.24525  0.34554  0.90357  1.0000
  C   C59       1.0  0.25069  0.40858  0.90549  1.0000
  C   C60       1.0  0.22053  0.36671  0.94596  1.0000
  C   C61       1.0  0.28436  0.38699  0.94038  1.0000
  C   C62       1.0  0.24088  0.30925  0.91837  1.0000
  C   C63       1.0  0.28485  0.42917  0.88749  1.0000
  C   C64       1.0  0.18281  0.35183  0.93307  1.0000
  C   C65       1.0  0.29470  0.42017  0.96127  1.0000
  H   H104      1.0  0.22194  0.33947  0.88902  1.0000
  H   H105      1.0  0.26833  0.35288  0.88848  1.0000
  H   H106      1.0  0.24582  0.42914  0.91909  1.0000
  H   H107      1.0  0.22845  0.39908  0.88948  1.0000
  H   H108      1.0  0.22174  0.34615  0.96183  1.0000
  H   H109      1.0  0.22348  0.39066  0.95986  1.0000
  H   H110      1.0  0.28317  0.36378  0.95443  1.0000
  H   H111      1.0  0.30681  0.39126  0.92525  1.0000
  H   H112      1.0  0.26567  0.31172  0.92924  1.0000
  H   H113      1.0  0.21852  0.29891  0.93418  1.0000
  H   H114      1.0  0.23521  0.28795  0.90120  1.0000
  H   H115      1.0  0.28107  0.44982  0.87324  1.0000
  H   H116      1.0  0.24884  0.17903  0.97136  1.0000
  H   H117      1.0  0.29138  0.41066  0.87293  1.0000
  H   H118      1.0  0.17917  0.37150  0.91775  1.0000
  H   H119      1.0  0.16355  0.34727  0.95127  1.0000
  H   H120      1.0  0.17561  0.32500  0.92218  1.0000
  H   H121      1.0  0.09489  0.43525  0.72782  1.0000
  C   C66       1.0  0.01701  0.39692  0.87365  1.0000
  H   H122      1.0  0.28411  0.41111  0.98369  1.0000
  C   C67       1.0  0.32996  0.15462  0.92205  1.0000
  H   H123      1.0  0.40188  0.25832  0.95553  1.0000
  S   S16       1.0  0.42804  0.48662  0.87367  1.0000
  C   C68       1.0  0.01824  0.39530  0.90448  1.0000
  S   S17       1.0  0.47427  0.00776  0.75112  1.0000
  H   H124      1.0  0.13700  0.44385  0.76516  1.0000
  H   H125      1.0  0.46406  0.47508  0.96782  1.0000
  C   C69       1.0  0.30024  0.20809  0.89990  1.0000
  C   C70       1.0  0.32628  0.13736  0.01285  1.0000
  H   H126      1.0  0.47680  0.08170  0.87463  1.0000
  C   C71       1.0  0.13042  0.34044  0.01207  1.0000
  H   H127      1.0  0.24159  0.21903  0.96142  1.0000
  H   H128      1.0  0.48738  0.07891  0.82356  1.0000
  H   H129      1.0  0.37713  0.03010  0.86225  1.0000
  H   H130      1.0  0.02795  0.37697  0.91497  1.0000
  H   H131      1.0  0.35899  0.17090  0.92250  1.0000
  H   H132      1.0  0.30028  0.25310  0.94792  1.0000
  H   H133      1.0  0.30790  0.44436  0.90179  1.0000
  C   C72       1.0  0.35314  0.23628  0.93031  1.0000
  H   H134      1.0  0.28114  0.15300  0.93929  1.0000
  S   S18       1.0  0.50260  0.43281  0.75533  1.0000
  N   N6        1.0  0.31452  0.21012  0.93060  1.0000
  C   C73       1.0  0.17474  0.30340  0.00557  1.0000
  H   H135      1.0  0.49982  0.17744  0.83131  1.0000
  H   H136      1.0  0.30559  0.22476  0.97461  1.0000
  H   H137      1.0  0.27486  0.09248  0.01066  1.0000
  C   C74       1.0  0.12411  0.45798  0.77877  1.0000
  H   H138      1.0  0.46153  0.10439  0.82886  1.0000
  H   H139      1.0  0.47356  0.43602  0.96217  1.0000
  H   H140      1.0  0.27441  0.18411  0.89724  1.0000
  S   S19       1.0  0.04042  0.36025  0.01720  1.0000
  C   C75       1.0  0.11673  0.30542  0.99969  1.0000
  C   C76       1.0  0.47751  0.09993  0.76801  1.0000
  S   S20       1.0  0.34987  0.11287  0.99899  1.0000
  C   C77       1.0  0.28940  0.12123  0.01559  1.0000
  C   C78       1.0  0.47887  0.46374  0.95352  1.0000
  H   H141      1.0  0.49033  0.44121  0.89117  1.0000
  H   H142      1.0  0.28680  0.23850  0.86596  1.0000
  H   H143      1.0  0.12871  0.25993  0.98697  1.0000
  H   H144      1.0  0.32067  0.26733  0.89008  1.0000
  H   H145      1.0  0.32505  0.12751  0.93188  1.0000
  H   H146      1.0  0.36747  0.23030  0.91176  1.0000
  H   H147      1.0  0.11395  0.50073  0.82163  1.0000
  C   C79       1.0  0.39085  0.01625  0.87388  1.0000
  C   C80       1.0  0.16191  0.49557  0.72264  1.0000
  H   H148      1.0  0.36347  0.24617  0.97782  1.0000
  C   C81       1.0  0.37427  0.23757  0.95847  1.0000
  H   H149      1.0  0.46766  0.10455  0.74638  1.0000
  H   H150      1.0  0.37594  0.21115  0.96309  1.0000
  H   H151      1.0  0.32059  0.14969  0.89902  1.0000
  C   C82       1.0  0.09642  0.42745  0.79763  1.0000
  H   H152      1.0  0.06448  0.47774  0.78490  1.0000
  H   H153      1.0  0.27482  0.24698  0.90192  1.0000
  N   N7        1.0  0.10995  0.47949  0.75955  1.0000
  H   H154      1.0  0.09318  0.48630  0.69733  1.0000
  Fe  Fe9       1.0  0.46518  0.49921  0.83445  1.0000
  H   H155      1.0  0.37340  0.18734  0.01701  1.0000
  H   H156      1.0  0.45412  0.08077  0.78040  1.0000
  C   C83       1.0  0.34482  0.17477  0.01891  1.0000
  C   C84       1.0  0.13908  0.28703  0.99648  1.0000
  C   C85       1.0  0.38450  0.00867  0.90403  1.0000
  H   H157      1.0  0.11360  0.35496  0.01455  1.0000
  S   S21       1.0  0.42153  0.01473  0.82075  1.0000
  H   H158      1.0  0.47549  0.14782  0.78744  1.0000
  S   S22       1.0  0.32924  0.37298  0.01010  1.0000
  H   H159      1.0  0.36595  0.01667  0.91550  1.0000
  S   S23       1.0  0.34737  0.30050  0.01348  1.0000
  H   H160      1.0  0.49068  0.13010  0.87486  1.0000
  H   H161      1.0  0.03172  0.47781  0.00907  1.0000
  Fe  Fe10      1.0  0.50262  0.48005  0.78330  1.0000
  H   H162      1.0  0.49768  0.46365  0.69484  1.0000
  H   H163      1.0  0.14515  0.47633  0.70584  1.0000
  H   H164      1.0  0.49524  0.49655  0.89493  1.0000
  C   C86       1.0  0.18853  0.33863  0.01758  1.0000
  C   C87       1.0  0.49578  0.10767  0.86449  1.0000
  H   H165      1.0  0.17746  0.48304  0.73462  1.0000
  S   S24       1.0  0.37127  0.03290  0.01756  1.0000
  C   C88       1.0  0.02978  0.50468  0.00817  1.0000
  H   H166      1.0  0.50230  0.42093  0.92276  1.0000
  C   C89       1.0  0.00714  0.41760  0.92164  1.0000
  S   S25       1.0  0.00728  0.41573  0.96033  1.0000
  C   C90       1.0  0.16062  0.77804  0.11229  1.0000
  S   S26       1.0  0.22010  0.67548  0.32160  1.0000
  H   H167      1.0  0.16764  0.78414  0.13569  1.0000
  S   S27       1.0  0.32157  0.69855  0.30951  1.0000
  H   H168      1.0  0.13074  0.70980  0.16096  1.0000
  H   H169      1.0  0.13192  0.51516  0.15742  1.0000
  C   C91       1.0  0.08056  0.76879  0.12654  1.0000
  H   H170      1.0  0.45889  0.85037  0.32455  1.0000
  Fe  Fe11      1.0  0.46469  0.97331  0.24594  1.0000
  S   S28       1.0  0.41590  0.92226  0.25934  1.0000
  S   S29       1.0  0.04013  0.55715  0.20435  1.0000
  Fe  Fe12      1.0  0.03533  0.53381  0.24969  1.0000
  S   S30       1.0  0.08398  0.53748  0.27608  1.0000
  H   H171      1.0  0.35906  0.96125  0.14531  1.0000
  H   H172      1.0  0.10504  0.78458  0.13879  1.0000
  H   H173      1.0  0.07104  0.63798  0.07931  1.0000
  H   H174      1.0  0.38323  0.96186  0.34414  1.0000
  H   H175      1.0  0.15006  0.54397  0.30078  1.0000
  H   H176      1.0  0.13533  0.73527  0.08200  1.0000
  H   H177      1.0  0.45379  0.96056  0.07455  1.0000
  C   C92       1.0  0.45442  0.75840  0.21359  1.0000
  S   S31       1.0  0.46475  0.54038  0.21090  1.0000
  H   H178      1.0  0.05085  0.71217  0.11661  1.0000
  H   H179      1.0  0.39202  0.75018  0.28949  1.0000
  H   H180      1.0  0.45983  0.58556  0.12202  1.0000
  Fe  Fe13      1.0  0.00891  0.67387  0.03269  1.0000
  C   C93       1.0  0.43542  0.97190  0.32424  1.0000
  H   H181      1.0  0.15733  0.72304  0.11101  1.0000
  H   H182      1.0  0.07873  0.78727  0.10898  1.0000
  C   C94       1.0  0.14567  0.83077  0.02387  1.0000
  C   C95       1.0  0.50328  0.98809  0.12461  1.0000
  H   H183      1.0  0.07987  0.73694  0.08818  1.0000
  H   H184      1.0  0.05531  0.70765  0.16806  1.0000
  S   S32       1.0  0.48193  0.57841  0.29249  1.0000
  C   C96       1.0  0.18308  0.63683  0.30810  1.0000
  C   C97       1.0  0.18157  0.60130  0.30931  1.0000
  C   C98       1.0  0.15106  0.57135  0.29944  1.0000
  C   C99       1.0  0.12192  0.57649  0.28776  1.0000
  C   C100      1.0  0.12366  0.61208  0.28616  1.0000
  C   C101      1.0  0.15394  0.64197  0.29648  1.0000
  C   C102      1.0  0.45699  0.58577  0.09784  1.0000
  H   H185      1.0  0.41648  0.54489  0.15546  1.0000
  H   H186      1.0  0.10149  0.61654  0.27734  1.0000
  H   H187      1.0  0.15475  0.66929  0.29543  1.0000
  C   C103      1.0  0.38440  0.60576  0.29856  1.0000
  C   C104      1.0  0.41376  0.62347  0.31665  1.0000
  C   C105      1.0  0.44342  0.61475  0.31465  1.0000
  C   C106      1.0  0.44428  0.58883  0.29419  1.0000
  C   C107      1.0  0.41507  0.57150  0.27592  1.0000
  C   C108      1.0  0.38525  0.57981  0.27822  1.0000
  H   H188      1.0  0.46604  0.62842  0.32874  1.0000
  H   H189      1.0  0.41531  0.55140  0.26018  1.0000
  C   C109      1.0  0.44195  0.99545  0.04526  1.0000
  C   C110      1.0  0.40215  0.82442  0.31942  1.0000
  C   C111      1.0  0.37299  0.82681  0.30568  1.0000
  C   C112      1.0  0.37780  0.85679  0.28719  1.0000
  C   C113      1.0  0.41175  0.88445  0.28191  1.0000
  C   C114      1.0  0.44100  0.88166  0.29518  1.0000
  H   H190      1.0  0.34668  0.80587  0.30961  1.0000
  H   H191      1.0  0.35499  0.85864  0.27699  1.0000
  C   C115      1.0  0.43614  0.85202  0.31408  1.0000
  H   H192      1.0  0.06400  0.66237  0.12493  1.0000
  H   H193      1.0  0.10786  0.66512  0.12348  1.0000
  N   N8        1.0  0.42054  0.72788  0.26127  1.0000
  C   C116      1.0  0.39662  0.96749  0.32249  1.0000
  H   H194      1.0  0.38551  0.79436  0.25416  1.0000
  C   C117      1.0  0.07772  0.70071  0.17417  1.0000
  H   H195      1.0  0.41317  0.98343  0.05056  1.0000
  H   H196      1.0  0.20379  0.59685  0.31798  1.0000
  H   H197      1.0  0.44498  0.60525  0.09252  1.0000
  Fe  Fe14      1.0  0.33328  0.65356  0.32986  1.0000
  H   H198      1.0  0.42243  0.67754  0.21569  1.0000
  H   H199      1.0  0.37740  0.64632  0.22158  1.0000
  H   H200      1.0  0.49787  0.55013  0.09864  1.0000
  C   C118      1.0  0.43345  0.54763  0.08539  1.0000
  N   N9        1.0  0.10467  0.71799  0.12220  1.0000
  S   S33       1.0  0.01605  0.72767  0.05201  1.0000
  H   H201      1.0  0.18622  0.84522  0.05705  1.0000
  C   C119      1.0  0.45507  0.74325  0.24461  1.0000
  C   C120      1.0  0.38759  0.76892  0.24674  1.0000
  H   H202      1.0  0.18604  0.78754  0.09997  1.0000
  C   C121      1.0  0.45302  0.73748  0.31129  1.0000
  H   H203      1.0  0.05748  0.76329  0.14124  1.0000
  N   N10       1.0  0.44133  0.51636  0.09673  1.0000
  H   H204      1.0  0.11062  0.67642  0.06978  1.0000
  S   S34       1.0  0.33331  0.97681  0.09105  1.0000
  H   H205      1.0  0.06900  0.67055  0.17345  1.0000
  H   H206      1.0  0.14677  0.79456  0.10374  1.0000
  H   H207      1.0  0.40875  0.65243  0.24979  1.0000
  H   H208      1.0  0.14548  0.55345  0.23217  1.0000
  C   C122      1.0  0.42636  0.71101  0.28937  1.0000
  C   C123      1.0  0.07824  0.73274  0.11238  1.0000
  H   H209      1.0  0.12276  0.74948  0.16260  1.0000
  H   H210      1.0  0.46730  0.90238  0.29092  1.0000
  H   H211      1.0  0.40084  0.69685  0.30143  1.0000
  C   C124      1.0  0.08508  0.66818  0.08163  1.0000
  S   S35       1.0  0.11698  0.79075  0.04277  1.0000
  C   C125      1.0  0.11088  0.72081  0.15492  1.0000
  H   H212      1.0  0.06836  0.68021  0.07086  1.0000
  H   H213      1.0  0.14222  0.55599  0.19346  1.0000
  C   C126      1.0  0.13946  0.73694  0.10620  1.0000
  C   C127      1.0  0.40906  0.75798  0.26953  1.0000
  H   H214      1.0  0.42972  0.74287  0.20142  1.0000
  C   C128      1.0  0.09036  0.67773  0.11458  1.0000
  H   H215      1.0  0.36276  0.56610  0.26401  1.0000
  C   C129      1.0  0.39153  0.69785  0.24466  1.0000
  S   S36       1.0  0.34649  0.61573  0.29965  1.0000
  Fe  Fe15      1.0  0.27326  0.67859  0.33862  1.0000
  H   H216      1.0  0.38220  0.70844  0.22549  1.0000
  H   H217      1.0  0.39997  0.77475  0.22477  1.0000
  H   H218      1.0  0.38424  0.51496  0.12989  1.0000
  H   H219      1.0  0.44519  0.98030  0.02587  1.0000
  N   N11       1.0  0.45697  0.99545  0.34902  1.0000
  H   H220      1.0  0.08425  0.70880  0.19746  1.0000
  H   H221      1.0  0.47522  0.76643  0.25690  1.0000
  H   H222      1.0  0.43457  0.94397  0.32482  1.0000
  H   H223      1.0  0.41356  0.99540  0.17411  1.0000
  H   H224      1.0  0.43631  0.68967  0.28474  1.0000
  H   H225      1.0  0.45190  0.99943  0.09170  1.0000
  C   C130      1.0  0.40112  0.66712  0.23245  1.0000
  H   H226      1.0  0.39505  0.99206  0.31247  1.0000
  H   H227      1.0  0.45299  0.72204  0.33159  1.0000
  H   H228      1.0  0.46715  0.72303  0.24311  1.0000
  H   H229      1.0  0.38143  0.94405  0.30793  1.0000
  H   H230      1.0  0.41384  0.64415  0.33186  1.0000
  H   H231      1.0  0.43622  0.54954  0.06103  1.0000
  H   H232      1.0  0.48316  0.52911  0.06414  1.0000
  H   H233      1.0  0.36756  0.68480  0.25883  1.0000
  H   H234      1.0  0.44584  0.76012  0.31804  1.0000
  H   H235      1.0  0.43234  0.78348  0.27559  1.0000
  H   H236      1.0  0.44813  0.98314  0.30275  1.0000
  H   H237      1.0  0.47572  0.75592  0.20011  1.0000
  C   C131      1.0  0.49497  0.00040  0.34591  1.0000
  H   H238      1.0  0.36006  0.74763  0.24514  1.0000
  C   C132      1.0  0.37355  0.00016  0.10967  1.0000
  S   S37       1.0  0.48287  0.98051  0.19883  1.0000
  C   C133      1.0  0.14231  0.53751  0.21161  1.0000
  Fe  Fe16      1.0  0.35058  0.73236  0.34810  1.0000
  C   C134      1.0  0.40657  0.51787  0.14435  1.0000
  S   S38       1.0  0.39753  0.78803  0.34381  1.0000
  C   C135      1.0  0.17865  0.85290  0.03626  1.0000
  H   H239      1.0  0.48376  0.59691  0.08768  1.0000
  H   H240      1.0  0.48047  0.74876  0.30259  1.0000
  H   H241      1.0  0.22700  0.90211  0.03191  1.0000
  H   H242      1.0  0.40564  0.54325  0.08946  1.0000
  H   H243      1.0  0.46207  0.53134  0.14055  1.0000
  H   H244      1.0  0.47425  0.97196  0.12638  1.0000
  H   H245      1.0  0.08655  0.50743  0.15912  1.0000
  H   H246      1.0  0.48718  0.94491  0.33121  1.0000
  C   C136      1.0  0.47916  0.52445  0.08826  1.0000
  C   C137      1.0  0.43756  0.51190  0.12965  1.0000
  C   C138      1.0  0.50213  0.96567  0.34773  1.0000
  H   H247      1.0  0.16562  0.53073  0.20980  1.0000
  C   C139      1.0  0.46250  0.99073  0.07205  1.0000
  H   H248      1.0  0.45905  0.78775  0.21455  1.0000
  C   C140      1.0  0.37891  0.98665  0.13679  1.0000
  Fe  Fe17      1.0  0.49119  0.54610  0.25457  1.0000
  Fe  Fe18      1.0  0.32773  0.99174  0.04419  1.0000
  C   C141      1.0  0.40968  0.00598  0.15315  1.0000
  H   H249      1.0  0.31570  0.53426  0.35117  1.0000
  H   H250      1.0  0.04159  0.57256  0.02575  1.0000
  Fe  Fe19      1.0  0.06439  0.75233  0.02315  1.0000
  C   C142      1.0  0.20182  0.88519  0.02204  1.0000
  H   H251      1.0  0.08532  0.51280  0.21300  1.0000
  H   H252      1.0  0.19250  0.74862  0.66687  1.0000
  S   S39       1.0  0.36547  0.68821  0.36664  1.0000
  H   H253      1.0  0.35800  0.52266  0.37679  1.0000
  H   H254      1.0  0.25060  0.67109  0.43612  1.0000
  Fe  Fe20      1.0  0.31436  0.66931  0.39233  1.0000
  S   S40       1.0  0.30522  0.64013  0.43716  1.0000
  H   H255      1.0  0.20152  0.58729  0.43786  1.0000
  S   S41       1.0  0.30151  0.71590  0.37646  1.0000
  Fe  Fe21      1.0  0.25499  0.63672  0.66256  1.0000
  S   S42       1.0  0.28685  0.61598  0.63335  1.0000
  C   C143      1.0  0.19026  0.69690  0.65118  1.0000
  C   C144      1.0  0.12893  0.61386  0.41284  1.0000
  S   S43       1.0  0.35807  0.68860  0.65319  1.0000
  C   C145      1.0  0.20518  0.60385  0.41754  1.0000
  Fe  Fe22      1.0  0.31575  0.67422  0.61775  1.0000
  S   S44       1.0  0.32897  0.69748  0.57066  1.0000
  H   H256      1.0  0.43747  0.92344  0.36798  1.0000
  S   S45       1.0  0.28116  0.69414  0.64456  1.0000
  H   H257      1.0  0.32607  0.57112  0.45622  1.0000
  H   H258      1.0  0.18403  0.64308  0.37731  1.0000
  H   H259      1.0  0.24158  0.66400  0.49018  1.0000
  C   C146      1.0  0.22337  0.64273  0.47519  1.0000
  H   H260      1.0  0.21821  0.68524  0.45027  1.0000
  H   H261      1.0  0.49716  0.95380  0.37015  1.0000
  C   C147      1.0  0.30788  0.55205  0.36553  1.0000
  H   H262      1.0  0.36429  0.57824  0.47753  1.0000
  H   H263      1.0  0.19211  0.70597  0.62795  1.0000
  H   H264      1.0  0.43318  0.57599  0.39479  1.0000
  C   C148      1.0  0.31232  0.65679  0.47409  1.0000
  C   C149      1.0  0.32668  0.69416  0.48074  1.0000
  C   C150      1.0  0.33145  0.70588  0.51032  1.0000
  C   C151      1.0  0.32169  0.68058  0.53377  1.0000
  C   C152      1.0  0.30704  0.64317  0.52708  1.0000
  C   C153      1.0  0.30259  0.63143  0.49749  1.0000
  H   H265      1.0  0.33434  0.71412  0.46317  1.0000
  H   H266      1.0  0.34288  0.73488  0.51512  1.0000
  H   H267      1.0  0.29942  0.62331  0.54474  1.0000
  H   H268      1.0  0.29133  0.60244  0.49277  1.0000
  H   H269      1.0  0.20465  0.67902  0.65261  1.0000
  H   H270      1.0  0.15818  0.64794  0.44813  1.0000
  H   H271      1.0  0.11870  0.57199  0.66725  1.0000
  C   C154      1.0  0.41208  0.54955  0.38820  1.0000
  N   N12       1.0  0.36194  0.57134  0.40045  1.0000
  C   C155      1.0  0.37017  0.56570  0.43186  1.0000
  H   H272      1.0  0.42229  0.53965  0.36900  1.0000
  C   C156      1.0  0.37517  0.61138  0.39277  1.0000
  H   H273      1.0  0.16180  0.68055  0.65593  1.0000
  C   C157      1.0  0.41488  0.63490  0.39754  1.0000
  H   H274      1.0  0.39914  0.57654  0.43574  1.0000
  H   H275      1.0  0.15360  0.60191  0.45097  1.0000
  H   H276      1.0  0.10501  0.59204  0.42275  1.0000
  H   H277      1.0  0.46206  0.52359  0.61784  1.0000
  H   H278      1.0  0.35987  0.53586  0.43688  1.0000
  H   H279      1.0  0.36040  0.62436  0.40544  1.0000
  H   H280      1.0  0.38047  0.56403  0.35718  1.0000
  H   H281      1.0  0.18469  0.58933  0.37222  1.0000
  C   C158      1.0  0.22309  0.66055  0.44514  1.0000
  H   H282      1.0  0.40774  0.52943  0.40622  1.0000
  H   H283      1.0  0.42052  0.98863  0.38483  1.0000
  H   H284      1.0  0.42307  0.63440  0.42061  1.0000
  H   H285      1.0  0.42050  0.66389  0.39241  1.0000
  H   H286      1.0  0.23360  0.61307  0.41128  1.0000
  C   C159      1.0  0.42669  0.93821  0.38278  1.0000
  C   C160      1.0  0.32208  0.55457  0.39720  1.0000
  H   H287      1.0  0.43147  0.62701  0.38242  1.0000
  C   C161      1.0  0.18326  0.57646  0.39398  1.0000
  H   H288      1.0  0.39736  0.92631  0.38083  1.0000
  H   H289      1.0  0.15536  0.56131  0.40106  1.0000
  C   C162      1.0  0.35544  0.58328  0.45560  1.0000
  H   H290      1.0  0.19691  0.63123  0.48578  1.0000
  C   C163      1.0  0.15975  0.62503  0.43521  1.0000
  Fe  Fe23      1.0  0.32653  0.63144  0.67049  1.0000
  H   H291      1.0  0.17570  0.69318  0.41020  1.0000
  C   C164      1.0  0.44236  0.98039  0.37894  1.0000
  S   S46       1.0  0.19459  0.60493  0.66505  1.0000
  H   H292      1.0  0.22913  0.66416  0.38570  1.0000
  N   N13       1.0  0.19669  0.63656  0.42291  1.0000
  H   H293      1.0  0.36988  0.61493  0.36935  1.0000
  C   C165      1.0  0.20247  0.65844  0.39492  1.0000
  H   H294      1.0  0.13761  0.71326  0.68590  1.0000
  H   H295      1.0  0.36556  0.61342  0.45304  1.0000
  C   C166      1.0  0.37693  0.55181  0.37959  1.0000
  C   C167      1.0  0.20685  0.73090  0.67104  1.0000
  H   H296      1.0  0.19427  0.55563  0.39095  1.0000
  H   H297      1.0  0.46306  0.99261  0.39606  1.0000
  H   H298      1.0  0.12147  0.63710  0.40857  1.0000
  H   H299      1.0  0.45298  0.53826  0.65236  1.0000
  C   C168      1.0  0.45668  0.51557  0.64131  1.0000
  H   H300      1.0  0.38540  0.79333  0.66949  1.0000
  H   H301      1.0  0.23409  0.74658  0.66231  1.0000
  H   H302      1.0  0.23388  0.62143  0.47352  1.0000
  Fe  Fe24      1.0  0.32136  0.70480  0.68055  1.0000
  H   H303      1.0  0.43205  0.93171  0.40550  1.0000
  H   H304      1.0  0.13345  0.60292  0.39174  1.0000
  H   H305      1.0  0.30996  0.57038  0.40977  1.0000
  H   H306      1.0  0.22360  0.71652  0.40757  1.0000
  H   H307      1.0  0.48155  0.80712  0.68317  1.0000
  H   H308      1.0  0.19723  0.70553  0.37523  1.0000
  C   C169      1.0  0.19940  0.69543  0.39757  1.0000
  H   H309      1.0  0.48897  0.58468  0.68577  1.0000
  H   H310      1.0  0.31045  0.52628  0.40645  1.0000
  S   S47       1.0  0.28280  0.63127  0.35624  1.0000
  H   H311      1.0  0.43390  0.85597  0.67088  1.0000
  N   N14       1.0  0.49842  0.51705  0.68466  1.0000
  H   H312      1.0  0.27846  0.53994  0.36618  1.0000
  H   H313      1.0  0.44046  0.76867  0.67830  1.0000
  H   H314      1.0  0.31628  0.57928  0.35515  1.0000
  C   C170      1.0  0.48706  0.50630  0.65334  1.0000
  H   H315      1.0  0.47776  0.52087  0.72749  1.0000
  N   N15       1.0  0.20797  0.72346  0.70343  1.0000
  H   H316      1.0  0.26534  0.92712  0.88371  1.0000
  C   C171      1.0  0.14130  0.70858  0.70939  1.0000
  S   S48       1.0  0.48372  0.59225  0.74993  1.0000
  S   S49       1.0  0.46250  0.94257  0.80026  1.0000
  Fe  Fe25      1.0  0.47851  0.95319  0.75280  1.0000
  S   S50       1.0  0.45928  0.91118  0.71548  1.0000
  H   H317      1.0  0.40252  0.66976  0.74793  1.0000
  Fe  Fe26      1.0  0.02771  0.54418  0.77675  1.0000
  S   S51       1.0  0.08448  0.58698  0.76872  1.0000
  H   H318      1.0  0.03266  0.76161  0.90028  1.0000
  H   H319      1.0  0.04122  0.51031  0.96264  1.0000
  H   H320      1.0  0.31741  0.94654  0.93605  1.0000
  H   H321      1.0  0.26295  0.94808  0.91837  1.0000
  C   C172      1.0  0.23414  0.70667  0.70827  1.0000
  H   H322      1.0  0.09517  0.53281  0.81478  1.0000
  Fe  Fe27      1.0  0.02651  0.70497  0.97112  1.0000
  H   H323      1.0  0.48214  0.75669  0.76867  1.0000
  H   H324      1.0  0.23394  0.82279  0.94073  1.0000
  C   C173      1.0  0.41464  0.62073  0.70366  1.0000
  C   C174      1.0  0.16457  0.59796  0.69476  1.0000
  C   C175      1.0  0.36808  0.79563  0.71372  1.0000
  S   S52       1.0  0.03943  0.69437  0.92495  1.0000
  H   H325      1.0  0.27737  0.77855  0.72119  1.0000
  H   H326      1.0  0.42241  0.71222  0.70308  1.0000
  C   C176      1.0  0.11093  0.51910  0.80465  1.0000
  C   C177      1.0  0.28107  0.94470  0.90178  1.0000
  C   C178      1.0  0.04585  0.57887  0.97636  1.0000
  C   C179      1.0  0.45604  0.78300  0.72436  1.0000
  H   H327      1.0  0.35748  0.80696  0.75813  1.0000
  H   H328      1.0  0.40634  0.86930  0.75961  1.0000
  C   C180      1.0  0.37410  0.81752  0.73900  1.0000
  S   S53       1.0  0.39207  0.97705  0.95616  1.0000
  C   C181      1.0  0.31734  0.88069  0.94014  1.0000
  H   H329      1.0  0.20102  0.77272  0.71431  1.0000
  C   C182      1.0  0.17608  0.60931  0.72336  1.0000
  S   S54       1.0  0.22020  0.93622  0.97676  1.0000
  H   H330      1.0  0.16039  0.61525  0.76765  1.0000
  H   H331      1.0  0.43946  0.96597  0.91538  1.0000
  C   C183      1.0  0.11455  0.58923  0.74012  1.0000
  C   C184      1.0  0.10302  0.57650  0.71181  1.0000
  H   H332      1.0  0.46983  0.70717  0.71479  1.0000
  N   N16       1.0  0.43666  0.74799  0.74149  1.0000
  H   H333      1.0  0.48126  0.80066  0.73544  1.0000
  C   C185      1.0  0.38222  0.59041  0.70688  1.0000
  C   C186      1.0  0.38100  0.56036  0.72365  1.0000
  C   C187      1.0  0.41162  0.56070  0.73742  1.0000
  C   C188      1.0  0.44400  0.59098  0.73419  1.0000
  C   C189      1.0  0.44537  0.62085  0.71711  1.0000
  H   H334      1.0  0.01510  0.78488  0.92435  1.0000
  H   H335      1.0  0.30572  0.85189  0.94802  1.0000
  H   H336      1.0  0.41018  0.53744  0.75034  1.0000
  C   C190      1.0  0.41470  0.00573  0.85868  1.0000
  C   C191      1.0  0.42362  0.86701  0.71543  1.0000
  C   C192      1.0  0.40183  0.85288  0.73996  1.0000
  H   H337      1.0  0.11634  0.68598  0.71701  1.0000
  C   C193      1.0  0.46485  0.77941  0.69191  1.0000
  S   S55       1.0  0.05968  0.69757  0.00716  1.0000
  H   H338      1.0  0.26139  0.81316  0.72619  1.0000
  H   H339      1.0  0.45106  0.97993  0.86235  1.0000
  C   C194      1.0  0.41727  0.84526  0.69000  1.0000
  S   S56       1.0  0.31250  0.94860  0.00930  1.0000
  H   H340      1.0  0.20413  0.62136  0.72809  1.0000
  H   H341      1.0  0.32947  0.93730  0.90116  1.0000
  H   H342      1.0  0.35612  0.53666  0.72606  1.0000
  C   C195      1.0  0.42596  0.98020  0.90391  1.0000
  C   C196      1.0  0.38660  0.68288  0.73733  1.0000
  C   C197      1.0  0.05364  0.59313  0.00831  1.0000
  H   H343      1.0  0.39331  0.76038  0.75720  1.0000
  C   C198      1.0  0.40173  0.99018  0.91905  1.0000
  H   H344      1.0  0.11098  0.82430  0.98716  1.0000
  C   C199      1.0  0.48463  0.72243  0.73408  1.0000
  C   C200      1.0  0.17219  0.69715  0.71454  1.0000
  C   C201      1.0  0.21888  0.75909  0.71980  1.0000
  H   H345      1.0  0.46008  0.78719  0.79666  1.0000
  C   C202      1.0  0.15121  0.60553  0.74577  1.0000
  H   H346      1.0  0.01501  0.60142  0.84861  1.0000
  H   H347      1.0  0.17280  0.69284  0.73861  1.0000
  H   H348      1.0  0.34461  0.86317  0.90590  1.0000
  H   H349      1.0  0.32625  0.89813  0.96015  1.0000
  H   H350      1.0  0.47048  0.64399  0.71399  1.0000
  H   H351      1.0  0.25495  0.72777  0.75247  1.0000
  H   H352      1.0  0.26848  0.90278  0.96309  1.0000
  C   C203      1.0  0.19210  0.89573  0.99535  1.0000
  C   C204      1.0  0.13622  0.84105  0.99696  1.0000
  H   H353      1.0  0.04577  0.61623  0.01164  1.0000
  H   H354      1.0  0.36519  0.91202  0.91347  1.0000
  H   H355      1.0  0.14448  0.73312  0.72236  1.0000
  S   S57       1.0  0.33395  0.75055  0.71450  1.0000
  H   H356      1.0  0.25745  0.83973  0.97504  1.0000
  C   C205      1.0  0.46781  0.51173  0.70494  1.0000
  Fe  Fe28      1.0  0.27482  0.97224  0.99419  1.0000
  H   H357      1.0  0.08272  0.60486  0.01198  1.0000
  C   C206      1.0  0.35081  0.88448  0.92307  1.0000
  H   H358      1.0  0.45392  0.52918  0.69895  1.0000
  S   S58       1.0  0.01987  0.52357  0.82344  1.0000
  N   N17       1.0  0.29032  0.88970  0.92365  1.0000
  H   H359      1.0  0.05160  0.65958  0.87391  1.0000
  C   C207      1.0  0.25974  0.88334  0.94435  1.0000
  H   H360      1.0  0.07494  0.56407  0.70707  1.0000
  C   C208      1.0  0.27657  0.86534  0.89717  1.0000
  C   C209      1.0  0.46243  0.73471  0.75512  1.0000
  H   H361      1.0  0.29690  0.97236  0.89253  1.0000
  H   H362      1.0  0.08506  0.51730  0.76366  1.0000
  C   C210      1.0  0.29855  0.87743  0.86846  1.0000
  H   H363      1.0  0.49303  0.55659  0.90341  1.0000
  H   H364      1.0  0.23846  0.88882  0.93324  1.0000
  C   C211      1.0  0.25692  0.78782  0.71374  1.0000
  C   C212      1.0  0.30640  0.92990  0.91600  1.0000
  Fe  Fe29      1.0  0.48930  0.54977  0.78069  1.0000
  H   H365      1.0  0.21616  0.84202  0.96839  1.0000
  H   H366      1.0  0.27341  0.83698  0.90234  1.0000
  H   H367      1.0  0.24957  0.86314  0.89149  1.0000
  H   H368      1.0  0.44016  0.79964  0.72376  1.0000
  H   H369      1.0  0.21603  0.75422  0.74393  1.0000
  H   H370      1.0  0.15160  0.88131  0.96218  1.0000
  C   C213      1.0  0.02562  0.64235  0.88242  1.0000
  N   N18       1.0  0.01278  0.54443  0.97131  1.0000
  C   C214      1.0  0.15931  0.87340  0.98283  1.0000
  H   H371      1.0  0.26186  0.68890  0.74098  1.0000
  C   C215      1.0  0.24118  0.84454  0.95758  1.0000
  H   H372      1.0  0.40493  0.73238  0.78138  1.0000
  H   H373      1.0  0.29671  0.85264  0.85638  1.0000
  H   H374      1.0  0.32709  0.89461  0.87127  1.0000
  H   H375      1.0  0.28694  0.89152  0.85354  1.0000
  Fe  Fe30      1.0  0.35271  0.99196  0.98118  1.0000
  H   H376      1.0  0.21873  0.68267  0.75273  1.0000
  H   H377      1.0  0.36794  0.68626  0.75332  1.0000
  C   C216      1.0  0.24242  0.70147  0.74058  1.0000
  S   S59       1.0  0.03438  0.76163  0.98528  1.0000
  H   H378      1.0  0.47965  0.52800  0.93493  1.0000
  H   H379      1.0  0.22471  0.67921  0.69789  1.0000
  Fe  Fe31      1.0  0.46272  0.99878  0.79960  1.0000
  H   H380      1.0  0.03480  0.51970  0.91640  1.0000
  H   H381      1.0  0.36957  0.88032  0.93854  1.0000
  H   H382      1.0  0.13703  0.54107  0.79898  1.0000
  C   C217      1.0  0.41637  0.75608  0.76608  1.0000
  S   S60       1.0  0.29261  0.64851  0.70022  1.0000
  H   H383      1.0  0.13139  0.52700  0.73107  1.0000
  H   H384      1.0  0.16459  0.66955  0.70476  1.0000
  H   H385      1.0  0.26143  0.79556  0.69024  1.0000
  C   C218      1.0  0.43250  0.98800  0.87384  1.0000
  H   H386      1.0  0.06957  0.57529  0.96805  1.0000
  H   H387      1.0  0.36999  0.66344  0.72045  1.0000
  C   C219      1.0  0.40993  0.71936  0.72218  1.0000
  C   C220      1.0  0.12792  0.58109  0.68925  1.0000
  C   C221      1.0  0.01297  0.65282  0.90779  1.0000
  H   H388      1.0  0.39183  0.73044  0.71222  1.0000
  C   C222      1.0  0.01941  0.51057  0.97676  1.0000
  C   C223      1.0  0.02945  0.54460  0.91622  1.0000
  S   S61       1.0  0.49814  0.55971  0.82917  1.0000
  H   H389      1.0  0.25978  0.72314  0.69725  1.0000
  S   S62       1.0  0.34290  0.58766  0.68929  1.0000
  H   H390      1.0  0.41968  0.79209  0.80272  1.0000
  C   C224      1.0  0.43753  0.78974  0.78536  1.0000
  H   H391      1.0  0.44707  0.81580  0.77278  1.0000
  C   C225      1.0  0.14055  0.50889  0.74381  1.0000
  H   H392      1.0  0.49280  0.70272  0.74574  1.0000
  H   H393      1.0  0.04454  0.60189  0.96329  1.0000
  H   H394      1.0  0.44927  0.71234  0.77132  1.0000
  H   H395      1.0  0.05459  0.56938  0.91824  1.0000
  H   H396      1.0  0.05634  0.52557  0.01409  1.0000
  H   H397      1.0  0.01860  0.54574  0.89410  1.0000
  C   C226      1.0  0.50278  0.54358  0.92081  1.0000
  C   C227      1.0  0.38975  0.80973  0.68915  1.0000
  H   H398      1.0  0.16003  0.52735  0.75970  1.0000
  H   H399      1.0  0.41614  0.64363  0.69026  1.0000
  H   H400      1.0  0.18134  0.51967  0.71060  1.0000
  H   H401      1.0  0.47974  0.76226  0.68882  1.0000
  C   C228      1.0  0.00864  0.76661  0.90494  1.0000
  H   H402      1.0  0.97007  0.35435  0.14950  1.0000
  C   C229      1.0  0.68851  0.09516  0.18179  1.0000
  C   C230      1.0  0.59731  0.01290  0.16283  1.0000
  S   S63       1.0  0.66765  0.36036  0.31545  1.0000
  H   H403      1.0  0.69962  0.09844  0.15919  1.0000
  H   H404      1.0  0.52969  0.10381  0.06229  1.0000
  H   H405      1.0  0.60182  0.09683  0.26125  1.0000
  H   H406      1.0  0.64083  0.09259  0.27601  1.0000
  H   H407      1.0  0.90991  0.25503  0.04745  1.0000
  C   C231      1.0  0.55669  0.02405  0.03706  1.0000
  H   H408      1.0  0.51955  0.33834  0.25090  1.0000
  H   H409      1.0  0.51057  0.01540  0.13468  1.0000
  H   H410      1.0  0.60615  0.42772  0.24700  1.0000
  H   H411      1.0  0.67667  0.45955  0.25489  1.0000
  S   S64       1.0  0.90500  0.44393  0.26386  1.0000
  H   H412      1.0  0.83054  0.49197  0.31985  1.0000
  S   S65       1.0  0.53843  0.08795  0.30281  1.0000
  C   C232      1.0  0.62576  0.04613  0.10859  1.0000
  H   H413      1.0  0.98162  0.41565  0.17025  1.0000
  H   H414      1.0  0.78674  0.19987  0.09260  1.0000
  C   C233      1.0  0.69118  0.46719  0.33224  1.0000
  Fe  Fe32      1.0  0.67016  0.04428  0.04326  1.0000
  C   C234      1.0  0.69538  0.45084  0.26656  1.0000
  S   S66       1.0  0.64372  0.06855  0.07531  1.0000
  H   H415      1.0  0.86463  0.23446  0.04023  1.0000
  C   C235      1.0  0.88301  0.28753  0.06148  1.0000
  H   H416      1.0  0.74083  0.47016  0.29424  1.0000
  S   S67       1.0  0.70884  0.01921  0.05230  1.0000
  H   H417      1.0  0.66795  0.44396  0.32311  1.0000
  H   H418      1.0  0.70080  0.12637  0.24130  1.0000
  H   H419      1.0  0.87415  0.29552  0.04064  1.0000
  H   H420      1.0  0.65049  0.00823  0.10684  1.0000
  H   H421      1.0  0.70975  0.44235  0.24955  1.0000
  H   H422      1.0  0.54378  0.06125  0.08605  1.0000
  C   C236      1.0  0.58905  0.04101  0.15172  1.0000
  S   S68       1.0  0.64001  0.25881  0.29842  1.0000
  H   H423      1.0  0.55373  0.47624  0.30295  1.0000
  H   H424      1.0  0.59784  0.08024  0.11684  1.0000
  C   C237      1.0  0.72263  0.48171  0.28516  1.0000
  H   H425      1.0  0.71091  0.10314  0.19740  1.0000
  C   C238      1.0  0.98948  0.37493  0.10626  1.0000
  H   H426      1.0  0.69142  0.19427  0.25709  1.0000
  H   H427      1.0  0.61332  0.06928  0.21314  1.0000
  H   H428      1.0  0.51036  0.06990  0.03566  1.0000
  C   C239      1.0  0.60997  0.21188  0.30051  1.0000
  C   C240      1.0  0.59940  0.19326  0.32726  1.0000
  C   C241      1.0  0.57730  0.15542  0.32763  1.0000
  C   C242      1.0  0.56512  0.13588  0.30135  1.0000
  C   C243      1.0  0.57485  0.15471  0.27467  1.0000
  H   H429      1.0  0.56798  0.05363  0.04244  1.0000
  N   N19       1.0  0.70759  0.49671  0.30941  1.0000
  C   C244      1.0  0.59065  0.41629  0.32065  1.0000
  C   C245      1.0  0.60206  0.41173  0.29262  1.0000
  C   C246      1.0  0.59666  0.43093  0.26850  1.0000
  C   C247      1.0  0.57945  0.45451  0.27207  1.0000
  C   C248      1.0  0.56700  0.45817  0.29990  1.0000
  C   C249      1.0  0.57272  0.43923  0.32408  1.0000
  H   H430      1.0  0.61524  0.39359  0.28958  1.0000
  Fe  Fe33      1.0  0.99140  0.32809  0.04358  1.0000
  S   S69       1.0  0.57565  0.47992  0.24138  1.0000
  C   C250      1.0  0.00393  0.40613  0.08854  1.0000
  C   C251      1.0  0.80438  0.43331  0.31493  1.0000
  C   C252      1.0  0.83238  0.46796  0.31066  1.0000
  C   C253      1.0  0.86303  0.47191  0.29465  1.0000
  C   C254      1.0  0.86632  0.44111  0.28306  1.0000
  C   C255      1.0  0.83838  0.40645  0.28754  1.0000
  C   C256      1.0  0.80750  0.40254  0.30316  1.0000
  H   H431      1.0  0.70990  0.45505  0.33880  1.0000
  H   H432      1.0  0.84063  0.38241  0.27875  1.0000
  H   H433      1.0  0.78632  0.37570  0.30627  1.0000
  H   H434      1.0  0.65244  0.07003  0.22949  1.0000
  N   N20       1.0  0.65567  0.12329  0.21565  1.0000
  C   C257      1.0  0.66742  0.11904  0.18494  1.0000
  C   C258      1.0  0.63107  0.14235  0.21267  1.0000
  C   C259      1.0  0.63543  0.08541  0.22808  1.0000
  C   C260      1.0  0.68800  0.14457  0.23395  1.0000
  C   C261      1.0  0.59753  0.19233  0.27426  1.0000
  C   C262      1.0  0.64718  0.18052  0.19811  1.0000
  H   H435      1.0  0.51993  0.38277  0.28664  1.0000
  C   C263      1.0  0.68249  0.16449  0.26145  1.0000
  H   H436      1.0  0.64418  0.10718  0.17002  1.0000
  H   H437      1.0  0.68448  0.14614  0.17529  1.0000
  H   H438      1.0  0.62029  0.14583  0.23401  1.0000
  H   H439      1.0  0.60728  0.12526  0.19960  1.0000
  S   S70       1.0  0.98187  0.33139  0.09220  1.0000
  H   H440      1.0  0.67104  0.06560  0.18427  1.0000
  H   H441      1.0  0.69975  0.16256  0.27943  1.0000
  H   H442      1.0  0.70825  0.16626  0.22031  1.0000
  H   H443      1.0  0.68037  0.42622  0.27993  1.0000
  H   H444      1.0  0.90973  0.30853  0.06709  1.0000
  H   H445      1.0  0.52860  0.39374  0.23998  1.0000
  H   H446      1.0  0.62872  0.19405  0.20121  1.0000
  H   H447      1.0  0.67288  0.19862  0.20791  1.0000
  H   H448      1.0  0.65035  0.17845  0.17407  1.0000
  C   C264      1.0  0.61976  0.08273  0.25912  1.0000
  S   S71       1.0  0.54071  0.06342  0.21750  1.0000
  H   H449      1.0  0.88433  0.49869  0.29160  1.0000
  H   H450      1.0  0.60527  0.20653  0.25349  1.0000
  H   H451      1.0  0.65533  0.15370  0.27052  1.0000
  Fe  Fe34      1.0  0.95377  0.49118  0.24430  1.0000
  N   N21       1.0  0.87856  0.22688  0.08509  1.0000
  C   C265      1.0  0.87849  0.19033  0.07691  1.0000
  C   C266      1.0  0.84362  0.21996  0.09967  1.0000
  C   C267      1.0  0.90822  0.24751  0.10595  1.0000
  C   C268      1.0  0.88380  0.24953  0.05763  1.0000
  C   C269      1.0  0.91424  0.19080  0.06671  1.0000
  C   C270      1.0  0.81107  0.20657  0.07920  1.0000
  C   C271      1.0  0.90815  0.22771  0.13502  1.0000
  H   H452      1.0  0.86413  0.28813  0.07841  1.0000
  H   H453      1.0  0.86899  0.17051  0.09545  1.0000
  H   H454      1.0  0.85940  0.17750  0.05882  1.0000
  H   H455      1.0  0.84458  0.24469  0.11140  1.0000
  H   H456      1.0  0.83763  0.19886  0.11722  1.0000
  H   H457      1.0  0.93447  0.25504  0.09520  1.0000
  H   H458      1.0  0.90772  0.27422  0.11207  1.0000
  S   S72       1.0  0.76676  0.42999  0.33595  1.0000
  H   H459      1.0  0.56486  0.14027  0.25436  1.0000
  H   H460      1.0  0.65521  0.48392  0.29192  1.0000
  H   H461      1.0  0.91019  0.16256  0.06040  1.0000
  H   H462      1.0  0.92469  0.20815  0.04706  1.0000
  H   H463      1.0  0.57183  0.05016  0.16393  1.0000
  H   H464      1.0  0.80786  0.18137  0.06714  1.0000
  C   C272      1.0  0.60367  0.05793  0.12495  1.0000
  H   H465      1.0  0.90941  0.20091  0.13151  1.0000
  H   H466      1.0  0.88480  0.22409  0.14876  1.0000
  H   H467      1.0  0.93208  0.24493  0.14776  1.0000
  H   H468      1.0  0.60346  0.05342  0.26419  1.0000
  C   C273      1.0  0.98136  0.37845  0.13574  1.0000
  C   C274      1.0  0.63344  0.01747  0.11932  1.0000
  C   C275      1.0  0.51509  0.04928  0.08040  1.0000
  H   H469      1.0  0.50826  0.42382  0.23378  1.0000
  Fe  Fe35      1.0  0.71483  0.38011  0.34549  1.0000
  H   H470      1.0  0.81223  0.22808  0.06332  1.0000
  S   S73       1.0  0.00014  0.47683  0.23426  1.0000
  Fe  Fe36      1.0  0.65531  0.30368  0.33349  1.0000
  H   H471      1.0  0.93450  0.19955  0.08427  1.0000
  H   H472      1.0  0.57035  0.01025  0.05004  1.0000
  H   H473      1.0  0.54280  0.41397  0.19143  1.0000
  C   C276      1.0  0.98788  0.41309  0.14752  1.0000
  Fe  Fe37      1.0  0.53439  0.50361  0.23484  1.0000
  S   S74       1.0  0.51082  0.49490  0.18935  1.0000
  H   H474      1.0  0.60882  0.20787  0.34762  1.0000
  Fe  Fe38      1.0  0.51848  0.05058  0.26298  1.0000
  C   C277      1.0  0.50860  0.07587  0.05910  1.0000
  S   S75       1.0  0.98402  0.27324  0.02549  1.0000
  C   C278      1.0  0.51433  0.39612  0.19519  1.0000
  H   H475      1.0  0.56358  0.44273  0.34565  1.0000
  H   H476      1.0  0.56982  0.14121  0.34842  1.0000
  Fe  Fe39      1.0  0.00164  0.50157  0.18980  1.0000
  C   C279      1.0  0.00296  0.44435  0.12989  1.0000
  S   S76       1.0  0.59854  0.39433  0.35197  1.0000
  H   H477      1.0  0.51081  0.31832  0.21474  1.0000
  H   H478      1.0  0.73932  0.50384  0.26991  1.0000
  H   H479      1.0  0.50928  0.36854  0.18673  1.0000
  Fe  Fe40      1.0  0.63648  0.36599  0.35385  1.0000
  Fe  Fe41      1.0  0.53781  0.00636  0.21710  1.0000
  H   H480      1.0  0.52361  0.16235  0.60405  1.0000
  H   H481      1.0  0.51187  0.01874  0.36324  1.0000
  H   H482      1.0  0.60787  0.28636  0.59822  1.0000
  C   C280      1.0  0.81833  0.41289  0.47706  1.0000
  H   H483      1.0  0.81075  0.42908  0.38913  1.0000
  Fe  Fe42      1.0  0.67168  0.33171  0.39720  1.0000
  S   S77       1.0  0.68092  0.31380  0.44358  1.0000
  C   C281      1.0  0.53648  0.18380  0.62072  1.0000
  Fe  Fe43      1.0  0.66668  0.34426  0.62553  1.0000
  S   S78       1.0  0.67978  0.30053  0.64732  1.0000
  S   S79       1.0  0.66375  0.35854  0.57659  1.0000
  C   C282      1.0  0.82613  0.41666  0.44374  1.0000
  H   H484      1.0  0.61398  0.22917  0.62306  1.0000
  C   C283      1.0  0.77290  0.32084  0.41026  1.0000
  H   H485      1.0  0.77539  0.29511  0.41628  1.0000
  H   H486      1.0  0.84032  0.37023  0.38177  1.0000
  S   S80       1.0  0.69926  0.38811  0.65771  1.0000
  S   S81       1.0  0.61647  0.33019  0.65198  1.0000
  H   H487      1.0  0.78019  0.32607  0.38677  1.0000
  H   H488      1.0  0.73203  0.42162  0.43577  1.0000
  H   H489      1.0  0.78533  0.38368  0.37797  1.0000
  C   C284      1.0  0.80738  0.40036  0.39282  1.0000
  C   C285      1.0  0.64784  0.23603  0.58619  1.0000
  H   H490      1.0  0.64826  0.22964  0.56270  1.0000
  H   H491      1.0  0.58735  0.31319  0.55689  1.0000
  C   C286      1.0  0.76213  0.38859  0.43084  1.0000
  C   C287      1.0  0.67647  0.32732  0.48030  1.0000
  C   C288      1.0  0.66282  0.35320  0.48667  1.0000
  C   C289      1.0  0.65948  0.36252  0.51615  1.0000
  C   C290      1.0  0.66985  0.34634  0.53977  1.0000
  C   C291      1.0  0.68401  0.32085  0.53334  1.0000
  C   C292      1.0  0.68710  0.31133  0.50389  1.0000
  H   H492      1.0  0.65448  0.36582  0.46893  1.0000
  H   H493      1.0  0.64856  0.38232  0.52070  1.0000
  H   H494      1.0  0.69276  0.30860  0.55103  1.0000
  H   H495      1.0  0.69788  0.29142  0.49935  1.0000
  H   H496      1.0  0.66107  0.26607  0.58944  1.0000
  Fe  Fe44      1.0  0.63142  0.28875  0.67556  1.0000
  S   S82       1.0  0.68423  0.38949  0.38324  1.0000
  H   H497      1.0  0.55893  0.17651  0.56448  1.0000
  C   C293      1.0  0.55300  0.22260  0.60712  1.0000
  H   H498      1.0  0.56117  0.26905  0.54226  1.0000
  C   C294      1.0  0.61033  0.21992  0.59972  1.0000
  C   C295      1.0  0.84164  0.39842  0.38125  1.0000
  H   H499      1.0  0.62116  0.27816  0.56354  1.0000
  H   H500      1.0  0.83128  0.44521  0.43721  1.0000
  H   H501      1.0  0.76343  0.43682  0.40643  1.0000
  C   C296      1.0  0.56700  0.20585  0.55872  1.0000
  H   H502      1.0  0.55602  0.17730  0.63344  1.0000
  H   H503      1.0  0.86544  0.41728  0.39315  1.0000
  H   H504      1.0  0.55072  0.28297  0.57783  1.0000
  Fe  Fe45      1.0  0.70898  0.34380  0.68129  1.0000
  C   C297      1.0  0.57225  0.28392  0.56290  1.0000
  C   C298      1.0  0.59769  0.26992  0.57795  1.0000
  H   H505      1.0  0.53062  0.22707  0.59709  1.0000
  C   C299      1.0  0.59066  0.21260  0.53112  1.0000
  S   S83       1.0  0.70520  0.32338  0.36082  1.0000
  H   H506      1.0  0.81497  0.38577  0.48569  1.0000
  H   H507      1.0  0.61015  0.24116  0.52810  1.0000
  H   H508      1.0  0.60473  0.19421  0.53099  1.0000
  N   N22       1.0  0.58251  0.22963  0.58516  1.0000
  H   H509      1.0  0.54168  0.20705  0.55185  1.0000
  H   H510      1.0  0.60169  0.18969  0.60055  1.0000
  H   H511      1.0  0.66435  0.22427  0.59783  1.0000
  C   C300      1.0  0.79703  0.35185  0.43050  1.0000
  H   H512      1.0  0.85459  0.46958  0.68096  1.0000
  H   H513      1.0  0.57374  0.20666  0.51122  1.0000
  H   H514      1.0  0.84114  0.43378  0.48885  1.0000
  H   H515      1.0  0.85194  0.41458  0.44085  1.0000
  C   C301      1.0  0.75928  0.42579  0.42915  1.0000
  S   S84       1.0  0.62114  0.30824  0.37052  1.0000
  H   H516      1.0  0.75674  0.50342  0.35674  1.0000
  H   H517      1.0  0.75228  0.37638  0.45282  1.0000
  H   H518      1.0  0.77755  0.44645  0.44433  1.0000
  H   H519      1.0  0.74463  0.31543  0.41332  1.0000
  H   H520      1.0  0.74229  0.37045  0.41504  1.0000
  N   N23       1.0  0.79817  0.38937  0.42446  1.0000
  H   H521      1.0  0.79467  0.41787  0.48290  1.0000
  H   H522      1.0  0.78728  0.34277  0.45317  1.0000
  H   H523      1.0  0.82406  0.35223  0.42960  1.0000
  H   H524      1.0  0.79636  0.41731  0.67270  1.0000
  H   H525      1.0  0.56234  0.24241  0.62567  1.0000
  H   H526      1.0  0.69984  0.49981  0.37301  1.0000
  H   H527      1.0  0.74965  0.47498  0.67270  1.0000
  H   H528      1.0  0.66582  0.45470  0.37513  1.0000
  H   H529      1.0  0.51561  0.18254  0.63662  1.0000
  H   H530      1.0  0.54746  0.49471  0.65622  1.0000
  S   S85       1.0  0.58577  0.23222  0.68269  1.0000
  Fe  Fe46      1.0  0.64971  0.37094  0.68541  1.0000
  C   C302      1.0  0.55028  0.49656  0.68040  1.0000
  H   H531      1.0  0.50792  0.07190  0.36283  1.0000
  H   H532      1.0  0.79119  0.47727  0.68634  1.0000
  H   H533      1.0  0.65707  0.48874  0.35598  1.0000
  C   C303      1.0  0.67799  0.47889  0.36050  1.0000
  H   H534      1.0  0.84545  0.40730  0.35789  1.0000
  S   S86       1.0  0.66114  0.32880  0.71075  1.0000
  C   C304      1.0  0.90849  0.35223  0.88253  1.0000
  H   H535      1.0  0.80568  0.13128  0.93462  1.0000
  H   H536      1.0  0.55631  0.23142  0.82319  1.0000
  H   H537      1.0  0.56260  0.14761  0.78670  1.0000
  H   H538      1.0  0.79259  0.15363  0.87212  1.0000
  H   H539      1.0  0.92810  0.37721  0.96826  1.0000
  H   H540      1.0  0.62588  0.06875  0.88297  1.0000
  H   H541      1.0  0.90161  0.36443  0.83722  1.0000
  C   C305      1.0  0.80069  0.38688  0.71028  1.0000
  C   C306      1.0  0.62561  0.02465  0.91030  1.0000
  H   H542      1.0  0.57591  0.20451  0.80555  1.0000
  S   S87       1.0  0.00210  0.42159  0.82128  1.0000
  H   H543      1.0  0.59946  0.13937  0.82044  1.0000
  H   H544      1.0  0.95494  0.28140  0.87692  1.0000
  C   C307      1.0  0.86281  0.14163  0.00330  1.0000
  H   H545      1.0  0.52254  0.49863  0.71982  1.0000
  H   H546      1.0  0.90744  0.27224  0.91268  1.0000
  C   C308      1.0  0.91328  0.36939  0.94728  1.0000
  Fe  Fe47      1.0  0.95004  0.28291  0.99106  1.0000
  S   S88       1.0  0.89330  0.24757  0.97660  1.0000
  C   C309      1.0  0.86189  0.30606  0.91381  1.0000
  H   H547      1.0  0.81843  0.20719  0.98445  1.0000
  C   C310      1.0  0.72586  0.03152  0.87945  1.0000
  C   C311      1.0  0.74561  0.44991  0.71570  1.0000
  N   N24       1.0  0.75205  0.46006  0.74770  1.0000
  H   H548      1.0  0.73823  0.04353  0.85816  1.0000
  H   H549      1.0  0.99552  0.48555  0.97082  1.0000
  C   C312      1.0  0.75392  0.13150  0.93227  1.0000
  S   S89       1.0  0.64220  0.41756  0.70948  1.0000
  S   S90       1.0  0.90881  0.48459  0.72441  1.0000
  C   C313      1.0  0.55032  0.20642  0.80982  1.0000
  H   H550      1.0  0.78808  0.12418  0.84113  1.0000
  H   H551      1.0  0.68959  0.47531  0.75907  1.0000
  H   H552      1.0  0.75181  0.42601  0.71082  1.0000
  C   C314      1.0  0.83677  0.27163  0.89719  1.0000
  N   N25       1.0  0.53757  0.50274  0.92569  1.0000
  H   H553      1.0  0.56335  0.46544  0.92098  1.0000
  H   H554      1.0  0.91853  0.31800  0.94913  1.0000
  H   H555      1.0  0.79732  0.08036  0.86779  1.0000
  H   H556      1.0  0.84175  0.24737  0.90362  1.0000
  H   H557      1.0  0.75143  0.11494  0.86416  1.0000
  H   H558      1.0  0.53866  0.10176  0.79527  1.0000
  H   H559      1.0  0.53609  0.17393  0.84889  1.0000
  S   S91       1.0  0.70373  0.08151  0.00772  1.0000
  H   H560      1.0  0.83094  0.09305  0.95048  1.0000
  H   H561      1.0  0.79406  0.44096  0.74733  1.0000
  H   H562      1.0  0.52865  0.16166  0.69161  1.0000
  H   H563      1.0  0.75134  0.50032  0.77895  1.0000
  C   C315      1.0  0.54893  0.12868  0.71671  1.0000
  C   C316      1.0  0.57844  0.12730  0.73070  1.0000
  C   C317      1.0  0.55164  0.16107  0.70243  1.0000
  H   H564      1.0  0.72543  0.43755  0.78892  1.0000
  C   C318      1.0  0.80992  0.15271  0.99851  1.0000
  C   C319      1.0  0.61063  0.15875  0.73006  1.0000
  C   C320      1.0  0.54165  0.42867  0.74310  1.0000
  C   C321      1.0  0.57537  0.45632  0.74791  1.0000
  H   H565      1.0  0.95675  0.32468  0.86546  1.0000
  N   N26       1.0  0.51462  0.13636  0.81228  1.0000
  C   C322      1.0  0.56907  0.39319  0.71715  1.0000
  C   C323      1.0  0.53868  0.39720  0.72754  1.0000
  H   H566      1.0  0.77193  0.04017  0.94029  1.0000
  S   S92       1.0  0.65711  0.05475  0.93480  1.0000
  H   H567      1.0  0.69668  0.01913  0.87600  1.0000
  Fe  Fe48      1.0  0.99007  0.46819  0.80406  1.0000
  C   C324      1.0  0.86734  0.44646  0.71967  1.0000
  C   C325      1.0  0.85548  0.41638  0.73876  1.0000
  C   C326      1.0  0.82249  0.38669  0.73392  1.0000
  H   H568      1.0  0.87190  0.41580  0.75703  1.0000
  H   H569      1.0  0.81380  0.36338  0.74862  1.0000
  H   H570      1.0  0.63371  0.15802  0.74067  1.0000
  H   H571      1.0  0.69730  0.42386  0.75767  1.0000
  C   C327      1.0  0.54439  0.47365  0.90908  1.0000
  H   H572      1.0  0.72089  0.04630  0.92408  1.0000
  C   C328      1.0  0.95061  0.30564  0.88441  1.0000
  H   H573      1.0  0.58229  0.02809  0.84730  1.0000
  Fe  Fe49      1.0  0.53161  0.03355  0.76460  1.0000
  C   C329      1.0  0.58389  0.19247  0.70171  1.0000
  H   H574      1.0  0.89562  0.27737  0.87610  1.0000
  H   H575      1.0  0.92229  0.39467  0.93377  1.0000
  H   H576      1.0  0.78144  0.14321  0.99999  1.0000
  H   H577      1.0  0.57812  0.48074  0.75972  1.0000
  C   C330      1.0  0.60570  0.45245  0.73731  1.0000
  H   H578      1.0  0.56322  0.02181  0.01367  1.0000
  C   C331      1.0  0.61339  0.19112  0.71571  1.0000
  Fe  Fe50      1.0  0.67346  0.03564  0.97683  1.0000
  H   H579      1.0  0.53197  0.47294  0.96628  1.0000
  C   C332      1.0  0.72742  0.39233  0.76481  1.0000
  C   C333      1.0  0.73462  0.06061  0.90377  1.0000
  H   H580      1.0  0.70547  0.37223  0.77806  1.0000
  H   H581      1.0  0.78698  0.03591  0.90454  1.0000
  S   S93       1.0  0.93702  0.47085  0.80642  1.0000
  H   H582      1.0  0.56638  0.36876  0.70537  1.0000
  H   H583      1.0  0.55735  0.48484  0.88756  1.0000
  C   C334      1.0  0.72459  0.42958  0.76541  1.0000
  C   C335      1.0  0.91187  0.29284  0.89487  1.0000
  C   C336      1.0  0.61499  0.03940  0.88610  1.0000
  C   C337      1.0  0.82697  0.07357  0.93219  1.0000
  H   H584      1.0  0.80895  0.26556  0.90348  1.0000
  S   S94       1.0  0.95462  0.33578  0.01114  1.0000
  C   C338      1.0  0.59018  0.01643  0.86591  1.0000
  C   C339      1.0  0.51906  0.48862  0.95454  1.0000
  H   H585      1.0  0.51273  0.37568  0.72362  1.0000
  H   H586      1.0  0.91241  0.18759  0.99368  1.0000
  H   H587      1.0  0.95063  0.35218  0.92750  1.0000
  H   H588      1.0  0.52258  0.11018  0.87017  1.0000
  C   C340      1.0  0.60282  0.42083  0.72201  1.0000
  S   S95       1.0  0.75943  0.34863  0.70525  1.0000
  H   H589      1.0  0.98357  0.46121  0.86669  1.0000
  C   C341      1.0  0.78815  0.05631  0.92150  1.0000
  S   S96       1.0  0.71217  0.00951  0.98039  1.0000
  C   C342      1.0  0.89241  0.34007  0.85192  1.0000
  C   C343      1.0  0.78057  0.12478  0.86449  1.0000
  C   C344      1.0  0.88392  0.17812  0.99515  1.0000
  C   C345      1.0  0.77780  0.11040  0.93373  1.0000
  H   H590      1.0  0.71699  0.43961  0.71020  1.0000
  C   C346      1.0  0.99363  0.44309  0.87707  1.0000
  C   C347      1.0  0.57247  0.13130  0.82983  1.0000
  H   H591      1.0  0.63156  0.47414  0.74105  1.0000
  C   C348      1.0  0.83096  0.18898  0.98976  1.0000
  C   C349      1.0  0.79416  0.10076  0.88281  1.0000
  C   C350      1.0  0.86805  0.20190  0.98816  1.0000
  C   C351      1.0  0.78819  0.46326  0.75715  1.0000
  H   H592      1.0  0.75253  0.39368  0.77441  1.0000
  H   H593      1.0  0.56462  0.10411  0.84048  1.0000
  H   H594      1.0  0.83400  0.05151  0.94095  1.0000
  H   H595      1.0  0.52424  0.10456  0.71633  1.0000
  H   H596      1.0  0.83870  0.27483  0.87306  1.0000
  C   C352      1.0  0.52421  0.17288  0.82696  1.0000
  H   H597      1.0  0.86313  0.32898  0.85254  1.0000
  H   H598      1.0  0.96990  0.31818  0.90218  1.0000
  H   H599      1.0  0.84584  0.08709  0.91416  1.0000
  H   H600      1.0  0.76357  0.15434  0.94829  1.0000
  N   N27       1.0  0.77342  0.08262  0.90993  1.0000
  H   H601      1.0  0.77228  0.09678  0.95569  1.0000
  H   H602      1.0  0.63841  0.21492  0.71533  1.0000
  H   H603      1.0  0.75368  0.14357  0.91055  1.0000
  H   H604      1.0  0.85851  0.29738  0.93735  1.0000
  H   H605      1.0  0.90121  0.32012  0.84171  1.0000
  H   H606      1.0  0.82191  0.11899  0.88872  1.0000
  H   H607      1.0  0.57542  0.15220  0.84658  1.0000
  H   H608      1.0  0.88483  0.36008  0.95279  1.0000
  H   H609      1.0  0.72638  0.11367  0.93890  1.0000
  N   N28       1.0  0.90072  0.32238  0.90517  1.0000
  C   C353      1.0  0.84560  0.44658  0.69597  1.0000
  C   C354      1.0  0.92191  0.33937  0.93232  1.0000
  H   H610      1.0  0.89886  0.37298  0.88997  1.0000
  H   H611      1.0  0.93758  0.36755  0.87961  1.0000
  C   C355      1.0  0.81248  0.41704  0.69129  1.0000
  H   H612      1.0  0.85060  0.32691  0.91207  1.0000
  Fe  Fe51      1.0  0.94953  0.49536  0.76123  1.0000
  H   H613      1.0  0.72075  0.07811  0.89769  1.0000
  H   H614      1.0  0.72437  0.38113  0.74234  1.0000
  C   C356      1.0  0.54682  0.12942  0.80476  1.0000
  S   S97       1.0  0.57678  0.08740  0.74938  1.0000
  Fe  Fe52      1.0  0.73993  0.05329  0.01396  1.0000
  H   H615      1.0  0.53896  0.21071  0.78885  1.0000
  H   H616      1.0  0.84494  0.49620  0.75601  1.0000
  S   S98       1.0  0.00071  0.48784  0.75721  1.0000
  C   C357      1.0  0.82572  0.12867  0.00487  1.0000
  C   C358      1.0  0.51597  0.49316  0.69614  1.0000
  C   C359      1.0  0.51222  0.43748  0.90257  1.0000
  S   S99       1.0  0.51951  0.02771  0.81312  1.0000
  C   C360      1.0  0.71196  0.49529  0.74620  1.0000
  H   H617      1.0  0.78887  0.45961  0.78138  1.0000
  C   C361      1.0  0.74775  0.49475  0.75493  1.0000
  C   C362      1.0  0.76621  0.47937  0.69272  1.0000
  H   H618      1.0  0.60252  0.50259  0.95038  1.0000
  S   S100      1.0  0.99581  0.31109  0.96012  1.0000
  Fe  Fe53      1.0  0.00264  0.36326  0.98274  1.0000
  H   H619      1.0  0.98547  0.45815  0.92090  1.0000
  C   C363      1.0  0.99482  0.44143  0.90782  1.0000
  H   H620      1.0  0.70649  0.49027  0.72241  1.0000
  S   S101      1.0  0.51163  0.48395  0.83208  1.0000
  H   H621      1.0  0.51506  0.15582  0.76754  1.0000
  C   C364      1.0  0.00471  0.42082  0.85987  1.0000
  H   H622      1.0  0.52087  0.42078  0.88763  1.0000
  C   C365      1.0  0.82027  0.49941  0.75019  1.0000
  H   H623      1.0  0.87529  0.12323  0.00816  1.0000
  S   S102      1.0  0.80033  0.08206  0.01389  1.0000
  H   H624      1.0  0.73314  0.00877  0.88577  1.0000
  H   H625      1.0  0.55695  0.47360  0.68759  1.0000
  H   H626      1.0  0.71120  0.56171  0.27746  1.0000
  C   C366      1.0  0.82360  0.65599  0.07415  1.0000
  S   S103      1.0  0.54608  0.56390  0.23501  1.0000
  H   H627      1.0  0.67262  0.80150  0.02333  1.0000
  S   S104      1.0  0.74803  0.73144  0.03762  1.0000
  H   H628      1.0  0.90578  0.59233  0.06532  1.0000
  Fe  Fe54      1.0  0.69236  0.69423  0.05057  1.0000
  S   S105      1.0  0.68387  0.68210  0.09924  1.0000
  H   H629      1.0  0.83230  0.62138  0.12815  1.0000
  S   S106      1.0  0.52985  0.58773  0.14959  1.0000
  H   H630      1.0  0.85284  0.64188  0.04222  1.0000
  C   C367      1.0  0.84922  0.63805  0.06641  1.0000
  C   C368      1.0  0.66639  0.85242  0.02468  1.0000
  H   H631      1.0  0.68429  0.74577  0.13241  1.0000
  H   H632      1.0  0.78653  0.54872  0.34678  1.0000
  H   H633      1.0  0.87688  0.59834  0.03782  1.0000
  Fe  Fe55      1.0  0.51855  0.55367  0.19132  1.0000
  C   C369      1.0  0.69003  0.53475  0.27168  1.0000
  C   C370      1.0  0.99017  0.61853  0.15797  1.0000
  H   H634      1.0  0.91574  0.66852  0.04200  1.0000
  H   H635      1.0  0.72779  0.76556  0.17214  1.0000
  H   H636      1.0  0.51602  0.97377  0.13815  1.0000
  H   H637      1.0  0.87733  0.69593  0.10515  1.0000
  C   C371      1.0  0.73714  0.52979  0.32232  1.0000
  H   H638      1.0  0.72662  0.54409  0.33810  1.0000
  C   C372      1.0  0.65991  0.78824  0.10161  1.0000
  H   H639      1.0  0.62794  0.73215  0.11737  1.0000
  C   C373      1.0  0.64105  0.65447  0.11253  1.0000
  C   C374      1.0  0.63697  0.64110  0.14144  1.0000
  C   C375      1.0  0.60307  0.61985  0.15292  1.0000
  C   C376      1.0  0.57302  0.61250  0.13568  1.0000
  C   C377      1.0  0.57711  0.62604  0.10681  1.0000
  C   C378      1.0  0.61102  0.64667  0.09515  1.0000
  H   H640      1.0  0.66011  0.64708  0.15500  1.0000
  H   H641      1.0  0.60017  0.60966  0.17522  1.0000
  H   H642      1.0  0.55398  0.62056  0.09339  1.0000
  H   H643      1.0  0.61391  0.65691  0.07287  1.0000
  C   C379      1.0  0.91175  0.64947  0.06083  1.0000
  C   C380      1.0  0.71297  0.83828  0.11986  1.0000
  C   C381      1.0  0.69681  0.77549  0.13768  1.0000
  C   C382      1.0  0.71792  0.79077  0.08615  1.0000
  C   C383      1.0  0.70988  0.86492  0.09657  1.0000
  C   C384      1.0  0.73272  0.78141  0.15132  1.0000
  C   C385      1.0  0.75819  0.81473  0.08419  1.0000
  H   H644      1.0  0.74136  0.84838  0.12581  1.0000
  H   H645      1.0  0.69965  0.84203  0.14011  1.0000
  H   H646      1.0  0.72747  0.89352  0.10260  1.0000
  H   H647      1.0  0.71779  0.85973  0.07442  1.0000
  H   H648      1.0  0.52194  0.50661  0.09272  1.0000
  H   H649      1.0  0.74912  0.81035  0.15691  1.0000
  H   H650      1.0  0.63915  0.83976  0.03208  1.0000
  Fe  Fe56      1.0  0.99152  0.56609  0.21514  1.0000
  H   H651      1.0  0.70711  0.79386  0.06450  1.0000
  C   C386      1.0  0.51691  0.99075  0.09274  1.0000
  H   H652      1.0  0.77253  0.81537  0.10473  1.0000
  H   H653      1.0  0.74746  0.77016  0.13690  1.0000
  C   C387      1.0  0.93301  0.71031  0.10502  1.0000
  H   H654      1.0  0.68250  0.86341  0.09553  1.0000
  N   N29       1.0  0.69777  0.79846  0.11110  1.0000
  H   H655      1.0  0.87258  0.59916  0.10216  1.0000
  H   H656      1.0  0.65905  0.80236  0.08073  1.0000
  H   H657      1.0  0.68010  0.77966  0.15530  1.0000
  H   H658      1.0  0.64545  0.79755  0.11812  1.0000
  H   H659      1.0  0.93527  0.69546  0.12491  1.0000
  H   H660      1.0  0.67060  0.52191  0.31553  1.0000
  H   H661      1.0  0.83445  0.60796  0.06955  1.0000
  C   C388      1.0  0.88326  0.62861  0.10831  1.0000
  H   H662      1.0  0.95483  0.71399  0.08953  1.0000
  H   H663      1.0  0.93696  0.73828  0.11204  1.0000
  C   C389      1.0  0.63737  0.74711  0.09633  1.0000
  N   N30       1.0  0.88474  0.65206  0.08196  1.0000
  H   H664      1.0  0.65207  0.73408  0.08395  1.0000
  H   H665      1.0  0.61345  0.74359  0.08342  1.0000
  H   H666      1.0  0.99525  0.56812  0.09939  1.0000
  H   H667      1.0  0.86190  0.61261  0.15210  1.0000
  H   H668      1.0  0.93813  0.65815  0.07131  1.0000
  C   C390      1.0  0.89651  0.69185  0.09011  1.0000
  H   H669      1.0  0.91038  0.63501  0.11683  1.0000
  H   H670      1.0  0.79787  0.64083  0.06292  1.0000
  H   H671      1.0  0.76386  0.84316  0.07732  1.0000
  C   C391      1.0  0.86053  0.63099  0.13428  1.0000
  H   H672      1.0  0.98954  0.67278  0.10026  1.0000
  H   H673      1.0  0.71443  0.76170  0.08672  1.0000
  H   H674      1.0  0.89730  0.70835  0.07019  1.0000
  C   C392      1.0  0.90331  0.61096  0.04826  1.0000
  C   C393      1.0  0.76672  0.52251  0.33791  1.0000
  C   C394      1.0  0.98880  0.64839  0.14267  1.0000
  H   H675      1.0  0.76986  0.80356  0.06689  1.0000
  C   C395      1.0  0.99016  0.64952  0.11178  1.0000
  S   S107      1.0  0.98943  0.61779  0.19672  1.0000
  S   S108      1.0  0.98892  0.54696  0.26238  1.0000
  H   H676      1.0  0.81809  0.65572  0.09792  1.0000
  H   H677      1.0  0.51100  0.96228  0.08542  1.0000
  C   C396      1.0  0.61956  0.00120  0.14656  1.0000
  H   H678      1.0  0.53064  0.97330  0.34301  1.0000
  H   H679      1.0  0.69811  0.52346  0.25222  1.0000
  H   H680      1.0  0.66654  0.53972  0.26494  1.0000
  H   H681      1.0  0.83378  0.68458  0.06582  1.0000
  S   S109      1.0  0.66775  0.72504  0.02423  1.0000
  H   H682      1.0  0.98690  0.67072  0.15480  1.0000
  H   H683      1.0  0.50719  0.97609  0.03571  1.0000
  S   S110      1.0  0.65684  0.91603  0.02502  1.0000
  H   H684      1.0  0.75059  0.55035  0.30490  1.0000
  H   H685      1.0  0.87045  0.65891  0.14370  1.0000
  C   C397      1.0  0.99246  0.62058  0.09603  1.0000
  S   S111      1.0  0.99435  0.62082  0.05733  1.0000
  S   S112      1.0  0.58144  0.99328  0.19750  1.0000
  C   C398      1.0  0.99347  0.59067  0.11132  1.0000
  H   H686      1.0  0.88420  0.77211  0.02820  1.0000
  S   S113      1.0  0.51993  0.99476  0.26421  1.0000
  C   C399      1.0  0.99264  0.58978  0.14213  1.0000
  H   H687      1.0  0.92313  0.61323  0.03106  1.0000
  H   H688      1.0  0.99393  0.56669  0.15356  1.0000
  H   H689      1.0  0.62604  0.97944  0.15501  1.0000
  S   S114      1.0  0.95310  0.51173  0.19826  1.0000
  H   H690      1.0  0.54627  0.00474  0.09415  1.0000
  C   C400      1.0  0.67944  0.50815  0.29806  1.0000
  H   H691      1.0  0.78109  0.51198  0.32251  1.0000
  C   C401      1.0  0.51607  0.00567  0.04113  1.0000
  H   H692      1.0  0.54943  0.56066  0.67382  1.0000
  H   H693      1.0  0.53439  0.61319  0.68018  1.0000
  C   C402      1.0  0.51338  0.58575  0.67508  1.0000
  C   C403      1.0  0.52514  0.55632  0.68659  1.0000
  H   H694      1.0  0.51028  0.58433  0.65089  1.0000
  H   H695      1.0  0.51011  0.51884  0.63821  1.0000
  H   H696      1.0  0.57316  0.52207  0.68671  1.0000
  S   S115      1.0  0.53833  0.53894  0.77489  1.0000
  Fe  Fe57      1.0  0.54377  0.54394  0.82398  1.0000
  S   S116      1.0  0.59715  0.57119  0.84633  1.0000
  H   H697      1.0  0.88306  0.73667  0.94562  1.0000
  H   H698      1.0  0.95223  0.57404  0.00355  1.0000
  H   H699      1.0  0.95350  0.56915  0.96474  1.0000
  H   H700      1.0  0.92026  0.68366  0.94048  1.0000
  H   H701      1.0  0.58549  0.72534  0.95638  1.0000
  S   S117      1.0  0.63721  0.00063  0.01181  1.0000
  C   C404      1.0  0.97121  0.58735  0.87871  1.0000
  S   S118      1.0  0.53716  0.97973  0.76260  1.0000
  S   S119      1.0  0.71965  0.72322  0.96964  1.0000
  S   S120      1.0  0.68605  0.65299  0.01523  1.0000
  C   C405      1.0  0.68228  0.89036  0.01966  1.0000
  Fe  Fe58      1.0  0.66604  0.68696  0.98740  1.0000
  S   S121      1.0  0.61579  0.66789  0.96042  1.0000
  Fe  Fe59      1.0  0.98537  0.73214  0.01265  1.0000
  S   S122      1.0  0.54512  0.94875  0.84445  1.0000
  H   H702      1.0  0.92311  0.72338  0.83699  1.0000
  S   S123      1.0  0.94506  0.54556  0.86181  1.0000
  C   C406      1.0  0.71749  0.90662  0.01018  1.0000
  H   H703      1.0  0.95023  0.70588  0.85596  1.0000
  C   C407      1.0  0.95828  0.59813  0.90381  1.0000
  H   H704      1.0  0.95844  0.51625  0.98599  1.0000
  C   C408      1.0  0.00492  0.60952  0.86802  1.0000
  H   H705      1.0  0.99194  0.60110  0.98405  1.0000
  H   H706      1.0  0.97952  0.70961  0.89569  1.0000
  H   H707      1.0  0.90991  0.78225  0.95601  1.0000
  C   C409      1.0  0.73660  0.88498  0.00566  1.0000
  C   C410      1.0  0.57342  0.53354  0.93146  1.0000
  H   H708      1.0  0.57603  0.93426  0.89671  1.0000
  C   C411      1.0  0.97722  0.72964  0.91132  1.0000
  H   H709      1.0  0.97695  0.51890  0.93508  1.0000
  H   H710      1.0  0.89615  0.66527  0.87626  1.0000
  S   S124      1.0  0.74540  0.82083  0.00379  1.0000
  Fe  Fe60      1.0  0.96791  0.52833  0.82241  1.0000
  H   H711      1.0  0.96920  0.63862  0.93792  1.0000
  H   H712      1.0  0.96779  0.75294  0.84402  1.0000
  H   H713      1.0  0.57101  0.55898  0.93836  1.0000
  H   H714      1.0  0.93311  0.65806  0.89211  1.0000
  H   H715      1.0  0.89903  0.77265  0.91820  1.0000
  C   C412      1.0  0.60331  0.60107  0.87634  1.0000
  C   C413      1.0  0.63485  0.61255  0.89256  1.0000
  C   C414      1.0  0.63927  0.63350  0.91821  1.0000
  C   C415      1.0  0.61222  0.64334  0.92761  1.0000
  C   C416      1.0  0.58109  0.63272  0.91099  1.0000
  C   C417      1.0  0.57661  0.61162  0.88546  1.0000
  H   H716      1.0  0.65564  0.60449  0.88563  1.0000
  H   H717      1.0  0.66342  0.64165  0.93084  1.0000
  H   H718      1.0  0.56014  0.64042  0.91809  1.0000
  H   H719      1.0  0.55235  0.60321  0.87304  1.0000
  C   C418      1.0  0.58689  0.96363  0.89373  1.0000
  H   H720      1.0  0.90379  0.68341  0.99164  1.0000
  S   S125      1.0  0.97495  0.67640  0.99507  1.0000
  C   C419      1.0  0.84969  0.67793  0.98952  1.0000
  C   C420      1.0  0.90591  0.76167  0.93845  1.0000
  H   H721      1.0  0.53386  0.56342  0.70979  1.0000
  C   C421      1.0  0.83854  0.72772  0.01032  1.0000
  H   H722      1.0  0.94642  0.74672  0.95668  1.0000
  C   C422      1.0  0.88579  0.69587  0.99684  1.0000
  S   S126      1.0  0.97749  0.55370  0.77744  1.0000
  C   C423      1.0  0.57599  0.97843  0.86965  1.0000
  H   H723      1.0  0.93211  0.58106  0.91202  1.0000
  H   H724      1.0  0.72999  0.93586  0.00634  1.0000
  H   H725      1.0  0.98228  0.72002  0.93311  1.0000
  H   H726      1.0  0.62259  0.55083  0.95586  1.0000
  Fe  Fe61      1.0  0.74044  0.69254  0.00038  1.0000
  C   C424      1.0  0.51776  0.51822  0.90601  1.0000
  H   H727      1.0  0.96150  0.78379  0.93151  1.0000
  H   H728      1.0  0.60507  0.74299  0.87777  1.0000
  C   C425      1.0  0.72061  0.84697  0.01037  1.0000
  C   C426      1.0  0.89837  0.72992  0.01079  1.0000
  H   H729      1.0  0.76387  0.89775  0.99833  1.0000
  N   N31       1.0  0.63927  0.79654  0.93974  1.0000
  C   C427      1.0  0.65973  0.83769  0.94100  1.0000
  C   C428      1.0  0.66543  0.77977  0.94504  1.0000
  C   C429      1.0  0.61161  0.78545  0.96379  1.0000
  C   C430      1.0  0.62214  0.78707  0.90992  1.0000
  C   C431      1.0  0.63747  0.86062  0.94231  1.0000
  C   C432      1.0  0.69569  0.78980  0.92234  1.0000
  C   C433      1.0  0.59657  0.74532  0.97428  1.0000
  C   C434      1.0  0.60343  0.74609  0.90189  1.0000
  H   H730      1.0  0.67751  0.84570  0.96045  1.0000
  H   H731      1.0  0.67755  0.84797  0.92164  1.0000
  H   H732      1.0  0.65258  0.74948  0.94599  1.0000
  H   H733      1.0  0.67785  0.78784  0.96705  1.0000
  H   H734      1.0  0.62256  0.80193  0.98389  1.0000
  H   H735      1.0  0.58861  0.79145  0.95724  1.0000
  H   H736      1.0  0.60165  0.79815  0.90748  1.0000
  H   H737      1.0  0.64129  0.80114  0.89202  1.0000
  H   H738      1.0  0.61934  0.85548  0.92335  1.0000
  H   H739      1.0  0.62234  0.85632  0.96316  1.0000
  H   H740      1.0  0.65568  0.89016  0.94176  1.0000
  H   H741      1.0  0.68558  0.78210  0.89973  1.0000
  H   H742      1.0  0.71393  0.81920  0.92337  1.0000
  H   H743      1.0  0.71193  0.77437  0.92751  1.0000
  H   H744      1.0  0.61681  0.73924  0.98628  1.0000
  S   S127      1.0  0.94343  0.75377  0.02023  1.0000
  H   H745      1.0  0.57468  0.74069  0.99009  1.0000
  H   H746      1.0  0.57500  0.73479  0.90822  1.0000
  H   H747      1.0  0.61571  0.72868  0.91133  1.0000
  H   H748      1.0  0.99600  0.56750  0.93436  1.0000
  N   N32       1.0  0.94094  0.73010  0.91097  1.0000
  C   C435      1.0  0.94044  0.75587  0.93503  1.0000
  H   H749      1.0  0.88967  0.63511  0.90655  1.0000
  H   H750      1.0  0.58942  0.54100  0.91089  1.0000
  C   C436      1.0  0.93225  0.74310  0.88215  1.0000
  Fe  Fe62      1.0  0.52078  0.97251  0.81007  1.0000
  C   C437      1.0  0.96957  0.57373  0.98500  1.0000
  H   H751      1.0  0.53502  0.53374  0.88747  1.0000
  C   C438      1.0  0.94437  0.73027  0.85372  1.0000
  H   H752      1.0  0.84002  0.65163  0.97866  1.0000
  H   H753      1.0  0.71264  0.52276  0.75097  1.0000
  C   C439      1.0  0.61153  0.98666  0.91409  1.0000
  H   H754      1.0  0.50880  0.74616  0.72673  1.0000
  C   C440      1.0  0.90843  0.66147  0.89689  1.0000
  H   H755      1.0  0.88699  0.69231  0.92152  1.0000
  H   H756      1.0  0.90313  0.73501  0.88049  1.0000
  H   H757      1.0  0.94455  0.77362  0.88135  1.0000
  Fe  Fe63      1.0  0.72264  0.75905  0.00840  1.0000
  C   C441      1.0  0.82591  0.69373  0.99632  1.0000
  S   S128      1.0  0.78076  0.67022  0.98704  1.0000
  C   C442      1.0  0.97929  0.63059  0.91856  1.0000
  H   H758      1.0  0.61958  0.97504  0.93266  1.0000
  C   C443      1.0  0.91371  0.69242  0.91889  1.0000
  H   H759      1.0  0.76850  0.51917  0.74456  1.0000
  H   H760      1.0  0.52261  0.56593  0.93374  1.0000
  H   H761      1.0  0.82010  0.52235  0.76370  1.0000
  Fe  Fe64      1.0  0.67828  0.97769  0.01809  1.0000
  C   C444      1.0  0.59668  0.52663  0.95514  1.0000
  C   C445      1.0  0.98183  0.54257  0.98989  1.0000
  H   H762      1.0  0.58486  0.52400  0.97736  1.0000
  C   C446      1.0  0.00189  0.54351  0.93955  1.0000
  H   H763      1.0  0.98710  0.54226  0.01368  1.0000
  H   H764      1.0  0.82056  0.74027  0.01546  1.0000
  C   C447      1.0  0.87464  0.74571  0.01749  1.0000
  H   H765      1.0  0.52236  0.51207  0.96921  1.0000
  H   H766      1.0  0.77215  0.50771  0.69946  1.0000
  H   H767      1.0  0.82253  0.50676  0.72669  1.0000
  H   H768      1.0  0.00410  0.78100  0.88570  1.0000
  C   C448      1.0  0.68536  0.83073  0.01987  1.0000
