data_image0
_chemical_formula_structural       FeS2FeS2FeSFeS3FeS2FeS2FeSFeS3FeS2FeS2FeHFeS3H2C3H2C6H9C3HCH3C6H5CH3C3H2C6H3CNC4HCH13CH3CHCH4CHC2HCH2C2H2CHCHC4H3NH2CHCH7CH2CH5CH10CHCHCH2C2H3CH2CHCH4CNH2NSH2CHC2H7CHNCH2C4HCH6CH3CHCH2CH4FeSCFeS2FeSFeS3FeS2FeS2FeHFeS3FeSCFeS2FeSFeS3C5H4C7H4NC4H3C3H3C5HCH2CHC6H7CH2CNCHCSH2CH2C2H3C2H2CHCHCHCH4C2H4CH5CH2NH2CHCH2CH10CH5CHCHCH2C2HCH2C2HCH2CHC2HCHC2H6NCSCHNH3CH3CH5CH6CHCH4CSH2C3HCH4C2NHNH4CH3C3H10NH2C2H3CH4C2HFeS2FeS2FeSFeS3FeS2FeSHFeSFeS3FeSHFeS2FeSFeS3C7H3C3H4C3HC2H7C8H4C6H4C5H2C2HCH2CH5CHCH2CNHNHC2H2CH2CH4C3H3CH2CHCH4CH3CH4C2H10C2HSCH8CH2CHCHCHCNCH7NC2HCH4C2H3CH2CH5CHC3H3CHCH4SHC5H8C2H2CH4NH6CH4CH5NHCHCH2C2NH6CFeS2FeS2FeCFeS3FeS2FeS2FeSFeS3FeS2FeSHFeSFeS3HCHCH2CH7C3HC6H4C3H2C6H4C7HC6H4NCHC2H2NCH11CH8NC6H19CH2CHC2HSCH5CHNH3CH2CHCH7C2HC6H2SHCH2C2HCHCHCH3CHCHNHC3H2CH9CH2C2H2CH2NH2CHCSH3FeS2FeS2FeSFeS3FeS2FeS2FeHFeS3FeS2FeS2FeSFeS3H5C6H3C4HCH2CH5C6H4C6H4C5HC3H4C3NC7H13CH7CH4CHCHNH7C2H5CH3NC8H20CH10C5H10NH3NHCH3CH2NHCH2C3HCHCHCHCHC2NC2H3C2H4CSHC2HCH2C2H7C5H3CH2CFeS2FeS2FeHFeHS2FeS2FeS2FeCFeS3FeS2FeS2FeHFeS3C6H4C2H5CH3C7H4C6HCH2CHC3H4C6H2CH3CH4CHCHCH4SC2H2C2H3C2HNC8H9CH15C2HSHC2H2CH4CH3CNCH2CH8CH4NSH5CHCNH7CH3C2H3CH2CH3CH3CH6CHFeSHFeS2FeSFeS3FeS2FeS2FeSFeS3FeS2FeSCFeSFeS3C3H2C6H8C3HNC3HC6H4C8H4C6H5C2H7C2H2CH2CH4CH6C2HNH3CH2NCSC3HC2H13NH14C2HC2H2CH2CH8CH3CH4C2NCH2C5HCHCH11C2H2CHC2H4CH2CHCH4CFeS2FeS2FeSFeS3FeS2FeS2FeCFeS3FeS2FeS2FeSFeS3HC7H4C3H2CH3C7H5C2NHC4H2CHC6H4C3H2NC8H9CH10NC8H16CH7CHCH8CHCHCHCH3CH4CH7CH3NHC2HNH2CH2C2HC2H6CHSCH2CH2C2HCH3CH2CH7CH2NHC2H4CH2C2HCHCH5CNH2CH3CH5CH4CH2SCH3FeS2FeSCFeSFeS3FeS2FeS2FeSFeS3FeS2FeS2FeSFeS3C2HC2H3C6H4C2H3C7H3C6H4C7H3CH5CH3CHCH7CH2C2HNHCH3C3HCH7NCHCHCH4CH13NC8H23NCH3C4HC3H9NH3CH2C5H3CH3CH2CH3SH4CHCFeS2FeS2FeSFeS3FeS2FeS2FeHFeS3FeS2FeS2FeHFeS3CH4CHC6H5C2H2C6H4C2H3C6H5C8H4NC2HC3H14CH3CHCH3NHC3H8CH3CH3CSNC8H23CH7CHC5H2CHNH9CHNCHSC2HCH3CH9CH2C2H4CHC2HC2H2CH6CH2CH5C2HCFeSHFeS2FeSFeS3FeS2FeS2FeSFeS3FeS2FeS2FeSFeS3C5H5C3H2C2H3C6H4CNC3H5C2H3C3HNC6H8CH5NC4HC3H11CH2CH4SH2CH2CH3CH2CNH3C2H2C3H4CH2CHC5H2CHCHCH13CH3C3H8CH2CH2CH2NCH2CH2CHC2H7C2HCH2CH3NH4C2NC3H3CHCH5CH3CH4CHCFeSCFeS2FeSFeS3FeS2FeS2FeHFeS3FeS2FeS2FeSFeS3NH3C8H3C6H4C3HCH2C6H4C3HC2H4C4H3CH3NHC2H6CH3CH2C2NHCH4C2HCH6CSH6CH2CHCH3CH2CHCH2CH2NHC2H2CH2CH6CHC2H5C2H2CH2CH3C2H3C2HCH6CHCH4SNHC3H5CH10CH7CH2CH2CHFeS2FeS2FeSFeS3FeSHFeSHFeSFeS3FeS2FeSHFeSFeS3C3H2CH2C5H2C3HC2H9C6H4C6H4C4H2CH2CH2CH6CH2CH10CH3CHC5H9C2H4NC2HC2HCH2CHCH5CH4NC8H7CH9CNC6H16CH2NSHCNH7C2HCH4C3HCHNH5C2HC3HC2H3CH2CHS2H2C2H6FeS2FeS2FeSFeS3FeS2FeS2FeSFeS3FeS2FeS2FeHFeS3C5H3CH3C7H4C2H3CH2NH2C2HCH2C6H4C6H4NC8H20C2H4C2H4NCHC4H2C2H6NH3CHC2H2CHCH3CH9CH5NH4CHCH3C2HCHCHCHSH3CH2NHCH4C2HCHNC8H15CH2CH5C2H10C2H2CH3CH3CFeS2FeS2FeSFeS3FeS2FeS2FeSFeS3FeSCFeS2FeSFeS3C2H2C7H4C2NC3HC6H4C6H4C3H3C3H5C3HC3H6CH9NC8H14CHCHCHCH5CHCHC2H5CH2C3NH3CH3SH5CH6C2H2NC7H15NC8H17CH4CH7CH4CHCHC3FeS2FeSHFeSFeS3FeS2FeSCFeSFeS3FeS2FeS2FeHFeS3HC6H2NC6H5C2H4CH2C6H4CH2CHC3HC2H4C2H3CHCH2C2H10SCH2NCH5CNC8H20CHCH2CH2CHNH4C2H3NH4NCHC2H3C2H5SHCH8CHCHCH4CH2CH2CHCH2C2HCH7SCHCH3C3NH2CH3CH2CHC2HCH
_chemical_formula_sum              "Fe192 S384 H2304 C1344 N96"
_cell_length_a       57.7345
_cell_length_b       57.7603
_cell_length_c       57.9483
_cell_angle_alpha    90.2327
_cell_angle_beta     90.116
_cell_angle_gamma    89.8102

_space_group_name_H-M_alt    "P 1"
_space_group_IT_number       1

loop_
  _space_group_symop_operation_xyz
  'x, y, z'

loop_
  _atom_site_type_symbol
  _atom_site_label
  _atom_site_symmetry_multiplicity
  _atom_site_fract_x
  _atom_site_fract_y
  _atom_site_fract_z
  _atom_site_occupancy
  Fe  Fe1       1.0  0.19431  0.39311  0.13968  1.0000
  S   S1        1.0  0.15894  0.37671  0.14298  1.0000
  S   S2        1.0  0.22173  0.36627  0.12982  1.0000
  Fe  Fe2       1.0  0.17358  0.44213  0.14167  1.0000
  S   S3        1.0  0.13764  0.42841  0.14391  1.0000
  S   S4        1.0  0.17943  0.48116  0.14167  1.0000
  Fe  Fe3       1.0  0.15197  0.40378  0.17024  1.0000
  S   S5        1.0  0.12799  0.40462  0.20144  1.0000
  Fe  Fe4       1.0  0.14813  0.40294  0.11662  1.0000
  S   S6        1.0  0.12325  0.39531  0.08712  1.0000
  S   S7        1.0  0.18808  0.41844  0.16906  1.0000
  S   S8        1.0  0.18334  0.41837  0.11218  1.0000
  Fe  Fe5       1.0  0.35567  0.34200  0.11777  1.0000
  S   S9        1.0  0.34407  0.31474  0.09262  1.0000
  S   S10       1.0  0.33163  0.36285  0.14123  1.0000
  Fe  Fe6       1.0  0.40564  0.34133  0.09988  1.0000
  S   S11       1.0  0.39671  0.31501  0.07253  1.0000
  S   S12       1.0  0.44273  0.35511  0.09971  1.0000
  Fe  Fe7       1.0  0.36400  0.33530  0.06629  1.0000
  S   S13       1.0  0.34259  0.34379  0.03402  1.0000
  Fe  Fe8       1.0  0.37778  0.29668  0.10113  1.0000
  S   S14       1.0  0.38584  0.25785  0.10100  1.0000
  S   S15       1.0  0.37440  0.36317  0.09128  1.0000
  S   S16       1.0  0.38803  0.32237  0.12868  1.0000
  Fe  Fe9       1.0  0.40758  0.14767  0.17886  1.0000
  S   S17       1.0  0.43991  0.15144  0.19995  1.0000
  S   S18       1.0  0.38491  0.18013  0.17921  1.0000
  Fe  Fe10      1.0  0.41900  0.09664  0.16752  1.0000
  S   S19       1.0  0.45239  0.09800  0.18777  1.0000
  S   S20       1.0  0.41368  0.06338  0.14655  1.0000
  Fe  Fe11      1.0  0.43093  0.11662  0.21459  1.0000
  H   H1        1.0  0.46905  0.04175  0.14568  1.0000
  Fe  Fe12      1.0  0.45803  0.13267  0.17110  1.0000
  S   S21       1.0  0.48879  0.15098  0.15434  1.0000
  S   S22       1.0  0.39733  0.11362  0.19528  1.0000
  S   S23       1.0  0.42584  0.13049  0.14925  1.0000
  H   H2        1.0  0.45703  0.22163  0.10044  1.0000
  H   H3        1.0  0.29013  0.41663  0.11284  1.0000
  C   C1        1.0  0.47063  0.05941  0.11267  1.0000
  C   C2        1.0  0.39315  0.04096  0.15151  1.0000
  C   C3        1.0  0.37564  0.04302  0.16807  1.0000
  H   H4        1.0  0.48730  0.34556  0.22013  1.0000
  H   H5        1.0  0.37447  0.05856  0.17848  1.0000
  C   C4        1.0  0.38653  0.23718  0.12366  1.0000
  C   C5        1.0  0.37736  0.24172  0.14556  1.0000
  C   C6        1.0  0.37720  0.22418  0.16249  1.0000
  C   C7        1.0  0.38671  0.20215  0.15792  1.0000
  C   C8        1.0  0.39653  0.19789  0.13627  1.0000
  C   C9        1.0  0.39614  0.21519  0.11918  1.0000
  H   H6        1.0  0.36976  0.25848  0.14921  1.0000
  H   H7        1.0  0.36942  0.22764  0.17910  1.0000
  H   H8        1.0  0.40374  0.18101  0.13242  1.0000
  H   H9        1.0  0.40308  0.21141  0.10226  1.0000
  H   H10       1.0  0.12615  0.44174  0.06290  1.0000
  H   H11       1.0  0.16485  0.47796  0.20323  1.0000
  H   H12       1.0  0.47077  0.33981  0.17882  1.0000
  H   H13       1.0  0.13514  0.33552  0.12195  1.0000
  H   H14       1.0  0.49563  0.05694  0.14163  1.0000
  C   C10       1.0  0.46306  0.35573  0.12274  1.0000
  C   C11       1.0  0.45779  0.34724  0.14469  1.0000
  C   C12       1.0  0.47502  0.34655  0.16198  1.0000
  H   H15       1.0  0.43600  0.24397  0.09876  1.0000
  C   C13       1.0  0.48563  0.36373  0.11843  1.0000
  H   H16       1.0  0.44050  0.34106  0.14826  1.0000
  H   H17       1.0  0.27294  0.38440  0.09293  1.0000
  H   H18       1.0  0.48990  0.37026  0.10149  1.0000
  C   C14       1.0  0.25219  0.36570  0.13374  1.0000
  C   C15       1.0  0.26398  0.38269  0.14632  1.0000
  C   C16       1.0  0.28829  0.38144  0.14869  1.0000
  C   C17       1.0  0.30104  0.36349  0.13819  1.0000
  C   C18       1.0  0.28922  0.34660  0.12549  1.0000
  C   C19       1.0  0.26492  0.34760  0.12348  1.0000
  H   H19       1.0  0.25439  0.39666  0.15438  1.0000
  H   H20       1.0  0.29728  0.39453  0.15863  1.0000
  H   H21       1.0  0.29878  0.33255  0.11756  1.0000
  H   H22       1.0  0.25596  0.33426  0.11387  1.0000
  H   H23       1.0  0.16798  0.30851  0.12330  1.0000
  C   C20       1.0  0.07728  0.45247  0.10556  1.0000
  H   H24       1.0  0.07644  0.44052  0.12053  1.0000
  H   H25       1.0  0.42246  0.28428  0.15019  1.0000
  H   H26       1.0  0.13025  0.47508  0.15109  1.0000
  C   C21       1.0  0.12968  0.38887  0.22752  1.0000
  C   C22       1.0  0.14802  0.37378  0.23237  1.0000
  C   C23       1.0  0.47743  0.05977  0.06107  1.0000
  H   H27       1.0  0.16145  0.37097  0.21965  1.0000
  H   H28       1.0  0.08691  0.50307  0.10767  1.0000
  C   C24       1.0  0.14837  0.35985  0.02066  1.0000
  C   C25       1.0  0.16428  0.37072  0.03552  1.0000
  C   C26       1.0  0.15672  0.38253  0.05542  1.0000
  C   C27       1.0  0.13313  0.38338  0.06075  1.0000
  C   C28       1.0  0.11711  0.37342  0.04539  1.0000
  C   C29       1.0  0.12468  0.36166  0.02540  1.0000
  H   H29       1.0  0.18260  0.36961  0.03181  1.0000
  H   H30       1.0  0.16916  0.39045  0.06695  1.0000
  H   H31       1.0  0.09881  0.37408  0.04935  1.0000
  C   C30       1.0  0.47145  0.25489  0.11101  1.0000
  N   N1        1.0  0.29588  0.39632  0.06595  1.0000
  C   C31       1.0  0.28993  0.37610  0.05044  1.0000
  C   C32       1.0  0.29845  0.41735  0.05083  1.0000
  C   C33       1.0  0.31772  0.39071  0.07926  1.0000
  C   C34       1.0  0.28550  0.35278  0.06260  1.0000
  H   H32       1.0  0.39721  0.20863  0.22208  1.0000
  C   C35       1.0  0.33284  0.41130  0.08721  1.0000
  H   H33       1.0  0.30414  0.37261  0.03804  1.0000
  H   H34       1.0  0.30365  0.43281  0.06097  1.0000
  H   H35       1.0  0.31358  0.38045  0.09490  1.0000
  H   H36       1.0  0.32941  0.37926  0.06902  1.0000
  H   H37       1.0  0.26863  0.35267  0.07173  1.0000
  H   H38       1.0  0.28481  0.33880  0.04940  1.0000
  H   H39       1.0  0.29967  0.34813  0.07469  1.0000
  H   H40       1.0  0.13434  0.47916  0.20657  1.0000
  H   H41       1.0  0.43664  0.16460  0.24981  1.0000
  H   H42       1.0  0.17905  0.32752  0.05240  1.0000
  H   H43       1.0  0.34251  0.41892  0.07259  1.0000
  H   H44       1.0  0.34595  0.40492  0.09974  1.0000
  H   H45       1.0  0.32307  0.42509  0.09617  1.0000
  C   C36       1.0  0.44327  0.28735  0.11912  1.0000
  H   H46       1.0  0.21539  0.29978  0.09994  1.0000
  H   H47       1.0  0.19948  0.30811  0.06413  1.0000
  H   H48       1.0  0.14428  0.33745  0.07030  1.0000
  C   C37       1.0  0.15153  0.33380  0.08770  1.0000
  H   H49       1.0  0.42841  0.27876  0.11076  1.0000
  C   C38       1.0  0.47669  0.05785  0.13858  1.0000
  H   H50       1.0  0.45328  0.25637  0.06496  1.0000
  H   H51       1.0  0.21323  0.34902  0.05979  1.0000
  H   H52       1.0  0.48088  0.31303  0.11903  1.0000
  H   H53       1.0  0.43031  0.27622  0.07344  1.0000
  C   C39       1.0  0.15259  0.46976  0.08662  1.0000
  H   H54       1.0  0.48479  0.24942  0.09822  1.0000
  C   C40       1.0  0.11230  0.45454  0.05879  1.0000
  C   C41       1.0  0.13347  0.49322  0.14855  1.0000
  H   H55       1.0  0.11547  0.33818  0.09783  1.0000
  C   C42       1.0  0.13062  0.48438  0.08228  1.0000
  H   H56       1.0  0.48038  0.33278  0.24782  1.0000
  H   H57       1.0  0.33260  0.00915  0.23192  1.0000
  C   C43       1.0  0.46641  0.12454  0.09972  1.0000
  C   C44       1.0  0.49280  0.33279  0.23326  1.0000
  H   H58       1.0  0.15309  0.30023  0.04307  1.0000
  H   H59       1.0  0.47257  0.09603  0.06644  1.0000
  C   C45       1.0  0.11240  0.39241  0.24427  1.0000
  H   H60       1.0  0.38491  0.10591  0.24833  1.0000
  C   C46       1.0  0.16066  0.29241  0.07976  1.0000
  H   H61       1.0  0.18729  0.33101  0.11648  1.0000
  C   C47       1.0  0.49761  0.35453  0.15764  1.0000
  C   C48       1.0  0.18785  0.32279  0.06883  1.0000
  C   C49       1.0  0.10297  0.45790  0.10059  1.0000
  C   C50       1.0  0.09155  0.43971  0.05108  1.0000
  H   H62       1.0  0.14018  0.27434  0.05375  1.0000
  H   H63       1.0  0.40005  0.05236  0.25207  1.0000
  H   H64       1.0  0.50127  0.37899  0.23003  1.0000
  N   N2        1.0  0.17030  0.31566  0.08672  1.0000
  H   H65       1.0  0.12635  0.31064  0.10536  1.0000
  H   H66       1.0  0.36133  0.18225  0.22210  1.0000
  C   C51       1.0  0.45093  0.23780  0.10896  1.0000
  H   H67       1.0  0.11227  0.35334  0.01410  1.0000
  C   C52       1.0  0.35789  0.17565  0.23976  1.0000
  H   H68       1.0  0.11845  0.46419  0.04335  1.0000
  H   H69       1.0  0.48544  0.29026  0.13898  1.0000
  H   H70       1.0  0.20899  0.29796  0.12996  1.0000
  H   H71       1.0  0.09635  0.43034  0.03498  1.0000
  H   H72       1.0  0.12808  0.30164  0.06183  1.0000
  H   H73       1.0  0.09813  0.40403  0.24062  1.0000
  H   H74       1.0  0.16694  0.48145  0.09186  1.0000
  C   C53       1.0  0.35143  0.14994  0.23683  1.0000
  H   H75       1.0  0.40769  0.01884  0.12518  1.0000
  H   H76       1.0  0.21676  0.33829  0.08835  1.0000
  C   C54       1.0  0.35915  0.02520  0.17068  1.0000
  H   H77       1.0  0.07264  0.47976  0.07053  1.0000
  H   H78       1.0  0.48293  0.28426  0.07513  1.0000
  H   H79       1.0  0.46238  0.30635  0.08172  1.0000
  H   H80       1.0  0.15851  0.46063  0.07081  1.0000
  H   H81       1.0  0.45108  0.09778  0.11965  1.0000
  C   C55       1.0  0.31601  0.41483  0.03084  1.0000
  H   H82       1.0  0.48251  0.12979  0.09098  1.0000
  H   H83       1.0  0.28051  0.43703  0.09077  1.0000
  H   H84       1.0  0.15110  0.28419  0.09421  1.0000
  H   H85       1.0  0.45144  0.05755  0.11122  1.0000
  H   H86       1.0  0.45047  0.29616  0.15542  1.0000
  H   H87       1.0  0.15323  0.48268  0.23136  1.0000
  H   H88       1.0  0.45200  0.12359  0.08704  1.0000
  H   H89       1.0  0.15010  0.45723  0.10080  1.0000
  H   H90       1.0  0.47083  0.04287  0.06719  1.0000
  H   H91       1.0  0.47933  0.10557  0.12892  1.0000
  C   C56       1.0  0.48473  0.29424  0.12023  1.0000
  H   H92       1.0  0.07587  0.45000  0.04709  1.0000
  C   C57       1.0  0.20131  0.29640  0.11241  1.0000
  H   H93       1.0  0.28146  0.42213  0.04297  1.0000
  C   C58       1.0  0.44843  0.27481  0.06741  1.0000
  H   H94       1.0  0.44958  0.07918  0.07691  1.0000
  H   H95       1.0  0.19387  0.35854  0.08187  1.0000
  C   C59       1.0  0.15075  0.48687  0.21290  1.0000
  C   C60       1.0  0.44102  0.28289  0.14525  1.0000
  H   H96       1.0  0.34218  0.18529  0.24548  1.0000
  H   H97       1.0  0.47815  0.04357  0.10466  1.0000
  H   H98       1.0  0.10924  0.46743  0.11605  1.0000
  C   C61       1.0  0.46580  0.28736  0.08327  1.0000
  H   H99       1.0  0.17494  0.28000  0.07585  1.0000
  H   H100      1.0  0.44487  0.23235  0.12629  1.0000
  C   C62       1.0  0.13119  0.32909  0.10430  1.0000
  H   H101      1.0  0.49169  0.31555  0.22475  1.0000
  C   C63       1.0  0.35138  0.35837  0.00856  1.0000
  H   H102      1.0  0.43989  0.30614  0.11630  1.0000
  H   H103      1.0  0.19523  0.27830  0.11041  1.0000
  H   H104      1.0  0.11252  0.44118  0.10092  1.0000
  H   H105      1.0  0.47055  0.06208  0.04329  1.0000
  C   C64       1.0  0.14905  0.36241  0.25383  1.0000
  N   N3        1.0  0.10842  0.47099  0.07875  1.0000
  H   H106      1.0  0.08777  0.42603  0.06389  1.0000
  H   H107      1.0  0.47921  0.25170  0.12834  1.0000
  N   N4        1.0  0.47864  0.08099  0.10042  1.0000
  S   S24       1.0  0.43530  0.10916  0.25303  1.0000
  H   H108      1.0  0.40083  0.17150  0.22681  1.0000
  H   H109      1.0  0.06833  0.44381  0.09108  1.0000
  C   C65       1.0  0.08978  0.48819  0.07238  1.0000
  H   H110      1.0  0.46192  0.13871  0.11194  1.0000
  C   C66       1.0  0.46888  0.08005  0.07626  1.0000
  C   C67       1.0  0.39426  0.02064  0.13804  1.0000
  H   H111      1.0  0.30810  0.40563  0.01593  1.0000
  H   H112      1.0  0.26025  0.42189  0.10819  1.0000
  H   H113      1.0  0.34538  0.02724  0.18315  1.0000
  H   H114      1.0  0.06746  0.46824  0.11049  1.0000
  H   H115      1.0  0.15874  0.35074  0.09331  1.0000
  H   H116      1.0  0.38801  0.35692  0.01529  1.0000
  H   H117      1.0  0.44704  0.26541  0.15026  1.0000
  C   C68       1.0  0.14465  0.29247  0.05837  1.0000
  H   H118      1.0  0.37016  0.22373  0.22514  1.0000
  N   N5        1.0  0.46602  0.28035  0.10833  1.0000
  C   C69       1.0  0.46885  0.10167  0.11323  1.0000
  H   H119      1.0  0.33198  0.40543  0.03603  1.0000
  H   H120      1.0  0.34727  0.14154  0.25344  1.0000
  C   C70       1.0  0.27561  0.39988  0.08201  1.0000
  C   C71       1.0  0.39942  0.16880  0.24572  1.0000
  C   C72       1.0  0.18111  0.31381  0.11032  1.0000
  C   C73       1.0  0.20362  0.34335  0.07534  1.0000
  H   H121      1.0  0.25927  0.40214  0.07196  1.0000
  C   C74       1.0  0.27716  0.42020  0.09916  1.0000
  H   H122      1.0  0.27441  0.38011  0.03970  1.0000
  H   H123      1.0  0.49658  0.05928  0.05974  1.0000
  H   H124      1.0  0.39821  0.14969  0.24747  1.0000
  H   H125      1.0  0.46911  0.07234  0.14858  1.0000
  H   H126      1.0  0.36535  0.14014  0.22793  1.0000
  H   H127      1.0  0.09767  0.50285  0.15319  1.0000
  C   C75       1.0  0.15595  0.50089  0.14411  1.0000
  H   H128      1.0  0.32116  0.43224  0.02464  1.0000
  H   H129      1.0  0.44889  0.28295  0.05008  1.0000
  H   H130      1.0  0.33579  0.14867  0.22570  1.0000
  C   C76       1.0  0.50282  0.36318  0.13576  1.0000
  H   H131      1.0  0.17083  0.42874  0.24514  1.0000
  C   C77       1.0  0.50477  0.08122  0.10086  1.0000
  H   H132      1.0  0.13418  0.49570  0.06717  1.0000
  H   H133      1.0  0.12924  0.49621  0.09745  1.0000
  C   C78       1.0  0.38647  0.21890  0.23417  1.0000
  H   H134      1.0  0.39663  0.23480  0.23777  1.0000
  H   H135      1.0  0.09338  0.49579  0.05509  1.0000
  H   H136      1.0  0.10740  0.50430  0.22910  1.0000
  H   H137      1.0  0.42727  0.19394  0.25276  1.0000
  Fe  Fe13      1.0  0.06366  0.35779  0.35232  1.0000
  S   S25       1.0  0.07851  0.36956  0.38604  1.0000
  C   C79       1.0  0.00944  0.46895  0.39769  1.0000
  Fe  Fe14      1.0  0.11125  0.35902  0.32871  1.0000
  S   S26       1.0  0.12934  0.37058  0.36132  1.0000
  S   S27       1.0  0.13456  0.35237  0.29776  1.0000
  Fe  Fe15      1.0  0.10698  0.34382  0.37876  1.0000
  S   S28       1.0  0.11797  0.32038  0.40834  1.0000
  Fe  Fe16      1.0  0.09929  0.39508  0.36543  1.0000
  S   S29       1.0  0.09801  0.43363  0.37446  1.0000
  S   S30       1.0  0.09097  0.33061  0.34599  1.0000
  S   S31       1.0  0.08245  0.38503  0.33181  1.0000
  Fe  Fe17      1.0  0.10295  0.14175  0.43988  1.0000
  S   S32       1.0  0.11138  0.17643  0.45536  1.0000
  S   S33       1.0  0.06513  0.13182  0.44487  1.0000
  Fe  Fe18      1.0  0.15355  0.13445  0.42422  1.0000
  S   S34       1.0  0.16510  0.16857  0.43872  1.0000
  S   S35       1.0  0.17692  0.11228  0.40164  1.0000
  Fe  Fe19      1.0  0.14325  0.15863  0.46945  1.0000
  H   H138      1.0  0.23502  0.18003  0.40728  1.0000
  Fe  Fe20      1.0  0.13216  0.18293  0.42342  1.0000
  S   S36       1.0  0.12889  0.21109  0.39628  1.0000
  S   S37       1.0  0.13368  0.12351  0.45579  1.0000
  S   S38       1.0  0.12179  0.14918  0.40709  1.0000
  Fe  Fe21      1.0  0.34623  0.04462  0.38226  1.0000
  S   S39       1.0  0.37714  0.06774  0.37852  1.0000
  C   C80       1.0  0.07358  0.16187  0.36104  1.0000
  Fe  Fe22      1.0  0.31528  0.08498  0.40078  1.0000
  S   S40       1.0  0.34424  0.11063  0.39679  1.0000
  S   S41       1.0  0.28471  0.09910  0.42159  1.0000
  Fe  Fe23      1.0  0.35199  0.09297  0.36278  1.0000
  S   S42       1.0  0.35402  0.10935  0.32702  1.0000
  Fe  Fe24      1.0  0.36636  0.08304  0.41297  1.0000
  S   S43       1.0  0.39034  0.08807  0.44390  1.0000
  S   S44       1.0  0.32114  0.06950  0.36562  1.0000
  S   S45       1.0  0.33736  0.05770  0.41790  1.0000
  C   C81       1.0  0.41246  0.10732  0.27334  1.0000
  C   C82       1.0  0.41780  0.10705  0.29703  1.0000
  C   C83       1.0  0.40010  0.10659  0.31376  1.0000
  C   C84       1.0  0.37686  0.10643  0.30690  1.0000
  C   C85       1.0  0.37155  0.10589  0.28321  1.0000
  H   H139      1.0  0.05123  0.10084  0.49452  1.0000
  H   H140      1.0  0.43572  0.10776  0.30249  1.0000
  H   H141      1.0  0.40442  0.10720  0.33193  1.0000
  H   H142      1.0  0.35361  0.10562  0.27778  1.0000
  C   C86       1.0  0.23395  0.16869  0.39181  1.0000
  C   C87       1.0  0.20686  0.10862  0.40736  1.0000
  C   C88       1.0  0.22088  0.09718  0.39106  1.0000
  C   C89       1.0  0.24484  0.09430  0.39491  1.0000
  C   C90       1.0  0.25491  0.10274  0.41521  1.0000
  C   C91       1.0  0.24089  0.11426  0.43145  1.0000
  C   C92       1.0  0.21700  0.11730  0.42753  1.0000
  H   H143      1.0  0.21315  0.09045  0.37539  1.0000
  H   H144      1.0  0.25544  0.08535  0.38232  1.0000
  H   H145      1.0  0.24856  0.12095  0.44715  1.0000
  H   H146      1.0  0.20642  0.12621  0.44015  1.0000
  N   N6        1.0  0.39919  0.02954  0.30825  1.0000
  C   C93       1.0  0.02226  0.12728  0.42451  1.0000
  C   C94       1.0  0.04634  0.12490  0.42161  1.0000
  C   C95       1.0  0.05487  0.11684  0.40049  1.0000
  C   C96       1.0  0.03943  0.11097  0.38255  1.0000
  H   H147      1.0  0.17212  0.15841  0.33377  1.0000
  H   H148      1.0  0.02469  0.47253  0.40885  1.0000
  H   H149      1.0  0.07333  0.11463  0.39812  1.0000
  C   C97       1.0  0.42265  0.17580  0.25688  1.0000
  C   C98       1.0  0.38382  0.10792  0.46647  1.0000
  C   C99       1.0  0.36779  0.12585  0.46339  1.0000
  H   H150      1.0  0.07029  0.23483  0.40782  1.0000
  H   H151      1.0  0.35960  0.12820  0.44676  1.0000
  H   H152      1.0  0.18065  0.43658  0.33953  1.0000
  C   C100      1.0  0.16729  0.15492  0.35192  1.0000
  C   C101      1.0  0.12195  0.45281  0.37456  1.0000
  C   C102      1.0  0.14477  0.44502  0.37726  1.0000
  C   C103      1.0  0.16311  0.46109  0.37844  1.0000
  C   C104      1.0  0.15887  0.48503  0.37680  1.0000
  H   H153      1.0  0.42271  0.17315  0.27580  1.0000
  C   C105      1.0  0.11774  0.47672  0.37288  1.0000
  H   H154      1.0  0.14825  0.42666  0.37883  1.0000
  H   H155      1.0  0.18068  0.45496  0.38091  1.0000
  C   C106      1.0  0.10801  0.49190  0.48484  1.0000
  H   H156      1.0  0.10016  0.48293  0.37076  1.0000
  C   C107      1.0  0.12069  0.28996  0.40487  1.0000
  C   C108      1.0  0.12331  0.27585  0.42445  1.0000
  C   C109      1.0  0.12577  0.25163  0.42224  1.0000
  C   C110      1.0  0.12593  0.24138  0.40034  1.0000
  C   C111      1.0  0.12346  0.25549  0.38078  1.0000
  C   C112      1.0  0.12068  0.27961  0.38301  1.0000
  H   H157      1.0  0.12342  0.28373  0.44143  1.0000
  H   H158      1.0  0.12771  0.24099  0.43744  1.0000
  H   H159      1.0  0.12363  0.24775  0.36375  1.0000
  H   H160      1.0  0.11890  0.29026  0.36780  1.0000
  H   H161      1.0  0.04617  0.10440  0.36638  1.0000
  H   H162      1.0  0.17633  0.50469  0.46062  1.0000
  H   H163      1.0  0.14951  0.40108  0.29845  1.0000
  C   C113      1.0  0.12868  0.50154  0.47127  1.0000
  H   H164      1.0  0.14842  0.15118  0.35192  1.0000
  H   H165      1.0  0.03184  0.34818  0.39684  1.0000
  C   C114      1.0  0.17445  0.44003  0.28092  1.0000
  N   N7        1.0  0.37815  0.18047  0.25547  1.0000
  C   C115      1.0  0.41564  0.00948  0.30506  1.0000
  H   H166      1.0  0.29459  0.14345  0.49167  1.0000
  C   C116      1.0  0.13183  0.36606  0.27060  1.0000
  S   S46       1.0  0.02503  0.35132  0.34712  1.0000
  H   H167      1.0  0.19274  0.43459  0.27799  1.0000
  H   H168      1.0  0.18691  0.24094  0.38840  1.0000
  C   C117      1.0  0.03067  0.17851  0.38423  1.0000
  H   H169      1.0  0.17496  0.45911  0.27856  1.0000
  H   H170      1.0  0.01884  0.18277  0.39880  1.0000
  C   C118      1.0  0.06464  0.23584  0.38954  1.0000
  C   C119      1.0  0.02116  0.41156  0.34634  1.0000
  H   H171      1.0  0.18609  0.20137  0.40256  1.0000
  H   H172      1.0  0.39392  0.05879  0.33116  1.0000
  H   H173      1.0  0.14361  0.46411  0.30287  1.0000
  C   C120      1.0  0.21882  0.16776  0.33524  1.0000
  C   C121      1.0  0.15975  0.43083  0.26069  1.0000
  H   H174      1.0  0.19508  0.47620  0.30676  1.0000
  H   H175      1.0  0.35639  0.04838  0.32689  1.0000
  C   C122      1.0  0.05118  0.19319  0.42999  1.0000
  H   H176      1.0  0.16858  0.22536  0.36944  1.0000
  C   C123      1.0  0.06467  0.18791  0.40755  1.0000
  H   H177      1.0  0.18096  0.37501  0.30529  1.0000
  C   C124      1.0  0.38924  0.10621  0.26649  1.0000
  H   H178      1.0  0.10009  0.38401  0.27847  1.0000
  C   C125      1.0  0.42891  0.04781  0.33631  1.0000
  H   H179      1.0  0.09695  0.45897  0.45052  1.0000
  H   H180      1.0  0.12074  0.42942  0.28501  1.0000
  H   H181      1.0  0.24422  0.17626  0.37764  1.0000
  H   H182      1.0  0.35035  0.16977  0.30834  1.0000
  C   C126      1.0  0.06836  0.18774  0.36549  1.0000
  C   C127      1.0  0.17167  0.17615  0.36744  1.0000
  H   H183      1.0  0.17592  0.13903  0.35827  1.0000
  H   H184      1.0  0.02311  0.43671  0.42424  1.0000
  H   H185      1.0  0.21123  0.15067  0.33898  1.0000
  H   H186      1.0  0.23791  0.16676  0.33757  1.0000
  C   C128      1.0  0.30172  0.12739  0.49947  1.0000
  H   H187      1.0  0.37222  0.00836  0.32296  1.0000
  H   H188      1.0  0.19010  0.39513  0.28403  1.0000
  H   H189      1.0  0.03134  0.45507  0.37151  1.0000
  H   H190      1.0  0.09132  0.49967  0.47937  1.0000
  H   H191      1.0  0.06167  0.19502  0.34900  1.0000
  C   C129      1.0  0.18675  0.22683  0.37529  1.0000
  H   H192      1.0  0.20106  0.47299  0.33675  1.0000
  H   H193      1.0  0.14032  0.47103  0.42231  1.0000
  N   N8        1.0  0.12808  0.49816  0.44546  1.0000
  H   H194      1.0  0.14528  0.44279  0.25647  1.0000
  H   H195      1.0  0.09019  0.10960  0.48208  1.0000
  C   C130      1.0  0.36227  0.14075  0.48187  1.0000
  H   H196      1.0  0.33603  0.08993  0.46824  1.0000
  C   C131      1.0  0.38127  0.20631  0.25709  1.0000
  H   H197      1.0  0.06364  0.19739  0.44400  1.0000
  H   H198      1.0  0.01548  0.13340  0.44083  1.0000
  C   C132      1.0  0.39451  0.10535  0.48818  1.0000
  H   H199      1.0  0.09167  0.06817  0.49728  1.0000
  H   H200      1.0  0.16168  0.19040  0.35932  1.0000
  H   H201      1.0  0.39632  0.03218  0.34566  1.0000
  H   H202      1.0  0.03919  0.22258  0.36613  1.0000
  H   H203      1.0  0.08660  0.16039  0.34702  1.0000
  H   H204      1.0  0.40705  0.09163  0.49068  1.0000
  H   H205      1.0  0.35570  0.05142  0.29582  1.0000
  H   H206      1.0  0.03963  0.20840  0.42873  1.0000
  H   H207      1.0  0.06919  0.16922  0.40850  1.0000
  H   H208      1.0  0.17208  0.47851  0.32796  1.0000
  C   C133      1.0  0.37234  0.13775  0.50379  1.0000
  H   H209      1.0  0.21605  0.17086  0.31652  1.0000
  H   H210      1.0  0.20826  0.14729  0.37581  1.0000
  H   H211      1.0  0.19888  0.16060  0.40126  1.0000
  H   H212      1.0  0.07980  0.23352  0.37808  1.0000
  H   H213      1.0  0.20195  0.43520  0.31753  1.0000
  C   C134      1.0  0.18465  0.44259  0.32173  1.0000
  H   H214      1.0  0.34981  0.15453  0.47925  1.0000
  C   C135      1.0  0.19626  0.20445  0.38651  1.0000
  H   H215      1.0  0.16297  0.17274  0.38423  1.0000
  C   C136      1.0  0.18533  0.39352  0.30248  1.0000
  H   H216      1.0  0.43937  0.03199  0.33942  1.0000
  H   H217      1.0  0.14218  0.46373  0.45188  1.0000
  C   C137      1.0  0.20864  0.18844  0.34907  1.0000
  C   C138      1.0  0.20849  0.16409  0.38501  1.0000
  H   H218      1.0  0.39470  0.21114  0.27005  1.0000
  C   C139      1.0  0.03177  0.40100  0.42330  1.0000
  H   H219      1.0  0.33582  0.16996  0.28129  1.0000
  H   H220      1.0  0.22349  0.20027  0.35248  1.0000
  C   C140      1.0  0.12120  0.43444  0.30341  1.0000
  C   C141      1.0  0.35550  0.03888  0.31023  1.0000
  H   H221      1.0  0.10646  0.44647  0.30650  1.0000
  C   C142      1.0  0.16397  0.40842  0.30859  1.0000
  H   H222      1.0  0.15925  0.40475  0.32687  1.0000
  H   H223      1.0  0.11797  0.41899  0.31427  1.0000
  C   C143      1.0  0.14395  0.44648  0.31056  1.0000
  H   H224      1.0  0.14232  0.44924  0.32950  1.0000
  C   C144      1.0  0.11347  0.38111  0.26573  1.0000
  C   C145      1.0  0.01485  0.44969  0.37996  1.0000
  H   H225      1.0  0.33839  0.03013  0.30990  1.0000
  C   C146      1.0  0.34546  0.06165  0.49029  1.0000
  H   H226      1.0  0.04199  0.40288  0.43946  1.0000
  C   C147      1.0  0.37411  0.17115  0.27942  1.0000
  C   C148      1.0  0.04534  0.21831  0.38384  1.0000
  H   H227      1.0  0.19768  0.23265  0.36073  1.0000
  H   H228      1.0  0.04074  0.17798  0.43527  1.0000
  H   H229      1.0  0.40572  0.02284  0.25882  1.0000
  H   H230      1.0  0.05805  0.25371  0.38675  1.0000
  H   H231      1.0  0.04842  0.43085  0.40829  1.0000
  H   H232      1.0  0.37560  0.15201  0.27965  1.0000
  N   N9        1.0  0.30639  0.08365  0.49006  1.0000
  C   C149      1.0  0.35075  0.17742  0.29076  1.0000
  S   S47       1.0  0.34569  0.00837  0.36622  1.0000
  C   C150      1.0  0.10554  0.08103  0.50026  1.0000
  H   H233      1.0  0.03198  0.39301  0.37630  1.0000
  N   N10       1.0  0.05221  0.19312  0.38528  1.0000
  H   H234      1.0  0.03027  0.22228  0.39510  1.0000
  H   H235      1.0  0.39324  0.06279  0.29223  1.0000
  H   H236      1.0  0.14438  0.49332  0.47883  1.0000
  C   C151      1.0  0.18811  0.46910  0.32306  1.0000
  H   H237      1.0  0.02033  0.42916  0.33885  1.0000
  H   H238      1.0  0.04075  0.38781  0.41275  1.0000
  H   H239      1.0  0.16334  0.35082  0.25750  1.0000
  C   C152      1.0  0.13104  0.47283  0.43906  1.0000
  H   H240      1.0  0.19671  0.19814  0.33741  1.0000
  H   H241      1.0  0.08544  0.19625  0.36824  1.0000
  H   H242      1.0  0.00817  0.19805  0.36037  1.0000
  H   H243      1.0  0.26269  0.06084  0.49008  1.0000
  H   H244      1.0  0.09943  0.46348  0.41985  1.0000
  C   C153      1.0  0.29607  0.10678  0.48355  1.0000
  H   H245      1.0  0.42138  0.05177  0.28789  1.0000
  H   H246      1.0  0.43383  0.01541  0.30275  1.0000
  H   H247      1.0  0.11392  0.43978  0.43309  1.0000
  H   H248      1.0  0.20040  0.39730  0.31370  1.0000
  H   H249      1.0  0.08188  0.19649  0.40850  1.0000
  H   H250      1.0  0.11233  0.11695  0.50211  1.0000
  C   C154      1.0  0.29698  0.06570  0.47348  1.0000
  H   H251      1.0  0.30155  0.11165  0.46579  1.0000
  C   C155      1.0  0.13607  0.49272  0.37378  1.0000
  H   H252      1.0  0.10728  0.47279  0.48376  1.0000
  H   H253      1.0  0.42951  0.05821  0.35248  1.0000
  H   H254      1.0  0.37135  0.00972  0.29262  1.0000
  H   H255      1.0  0.02626  0.17658  0.34624  1.0000
  C   C156      1.0  0.09664  0.10617  0.49988  1.0000
  S   S48       1.0  0.18243  0.50468  0.37871  1.0000
  H   H256      1.0  0.32053  0.13021  0.50151  1.0000
  H   H257      1.0  0.06416  0.14005  0.49585  1.0000
  C   C157      1.0  0.03067  0.41148  0.37131  1.0000
  C   C158      1.0  0.33222  0.08455  0.48631  1.0000
  C   C159      1.0  0.01615  0.18065  0.36197  1.0000
  H   H258      1.0  0.34841  0.19636  0.29284  1.0000
  C   C160      1.0  0.40288  0.04651  0.28890  1.0000
  H   H259      1.0  0.38781  0.17722  0.29151  1.0000
  H   H260      1.0  0.17554  0.48410  0.43681  1.0000
  H   H261      1.0  0.24235  0.15204  0.39658  1.0000
  H   H262      1.0  0.21399  0.20906  0.39237  1.0000
  C   C161      1.0  0.40345  0.04200  0.33079  1.0000
  C   C162      1.0  0.03035  0.42469  0.41117  1.0000
  N   N11       1.0  0.19658  0.18298  0.37147  1.0000
  H   H263      1.0  0.03499  0.15996  0.38666  1.0000
  N   N12       1.0  0.16644  0.43416  0.30495  1.0000
  H   H264      1.0  0.43699  0.05840  0.32261  1.0000
  H   H265      1.0  0.05805  0.15222  0.35519  1.0000
  H   H266      1.0  0.08109  0.15323  0.37631  1.0000
  H   H267      1.0  0.01444  0.39451  0.42829  1.0000
  C   C163      1.0  0.39590  0.03834  0.26449  1.0000
  H   H268      1.0  0.30283  0.06929  0.45556  1.0000
  H   H269      1.0  0.34311  0.04962  0.47549  1.0000
  H   H270      1.0  0.01252  0.27157  0.39946  1.0000
  C   C164      1.0  0.10890  0.45821  0.43569  1.0000
  C   C165      1.0  0.01535  0.11343  0.38537  1.0000
  C   C166      1.0  0.37479  0.02040  0.30824  1.0000
  H   H271      1.0  0.36432  0.06532  0.49128  1.0000
  H   H272      1.0  0.34063  0.09791  0.49713  1.0000
  H   H273      1.0  0.48632  0.34441  0.29945  1.0000
  H   H274      1.0  0.03309  0.40137  0.33521  1.0000
  H   H275      1.0  0.30392  0.04821  0.47761  1.0000
  H   H276      1.0  0.04887  0.41782  0.37047  1.0000
  H   H277      1.0  0.11815  0.07872  0.48595  1.0000
  H   H278      1.0  0.37702  0.03528  0.26303  1.0000
  H   H279      1.0  0.48823  0.36735  0.26727  1.0000
  H   H280      1.0  0.15287  0.41338  0.26380  1.0000
  N   N13       1.0  0.01686  0.42518  0.38883  1.0000
  H   H281      1.0  0.36528  0.21464  0.26389  1.0000
  H   H282      1.0  0.27688  0.10612  0.48314  1.0000
  C   C167      1.0  0.01346  0.34905  0.39336  1.0000
  C   C168      1.0  0.00682  0.12179  0.40641  1.0000
  H   H283      1.0  0.26612  0.04711  0.46258  1.0000
  H   H284      1.0  0.09064  0.49830  0.44083  1.0000
  H   H285      1.0  0.26189  0.07745  0.46350  1.0000
  C   C169      1.0  0.27038  0.06292  0.47272  1.0000
  H   H286      1.0  0.15641  0.11449  0.50315  1.0000
  H   H287      1.0  0.10418  0.15392  0.50044  1.0000
  H   H288      1.0  0.01859  0.29803  0.38525  1.0000
  H   H289      1.0  0.11029  0.49635  0.50338  1.0000
  C   C170      1.0  0.17263  0.50238  0.44199  1.0000
  C   C171      1.0  0.50408  0.34416  0.29207  1.0000
  H   H290      1.0  0.10657  0.50531  0.41574  1.0000
  Fe  Fe25      1.0  0.40051  0.14824  0.60897  1.0000
  S   S49       1.0  0.40844  0.17218  0.57946  1.0000
  S   S50       1.0  0.42573  0.12365  0.62701  1.0000
  Fe  Fe26      1.0  0.34956  0.16273  0.61097  1.0000
  S   S51       1.0  0.35419  0.18835  0.58233  1.0000
  S   S52       1.0  0.31413  0.16080  0.62838  1.0000
  Fe  Fe27      1.0  0.37443  0.16015  0.56432  1.0000
  S   S53       1.0  0.36264  0.15565  0.52684  1.0000
  Fe  Fe28      1.0  0.38751  0.19846  0.59968  1.0000
  S   S54       1.0  0.40137  0.23550  0.60156  1.0000
  S   S55       1.0  0.36793  0.13402  0.59227  1.0000
  S   S56       1.0  0.38153  0.17507  0.62994  1.0000
  Fe  Fe29      1.0  0.44920  0.36105  0.68080  1.0000
  S   S57       1.0  0.42287  0.36354  0.65235  1.0000
  S   S58       1.0  0.48527  0.34495  0.67915  1.0000
  Fe  Fe30      1.0  0.41438  0.37859  0.71797  1.0000
  S   S59       1.0  0.38537  0.38190  0.69230  1.0000
  H   H291      1.0  0.29343  0.12551  0.51659  1.0000
  Fe  Fe31      1.0  0.39837  0.34759  0.67796  1.0000
  S   S60       1.0  0.37641  0.31516  0.67401  1.0000
  Fe  Fe32      1.0  0.41229  0.39769  0.66900  1.0000
  S   S61       1.0  0.41182  0.43251  0.65032  1.0000
  S   S62       1.0  0.42530  0.34341  0.70554  1.0000
  S   S63       1.0  0.44069  0.39601  0.69561  1.0000
  Fe  Fe33      1.0  0.16422  0.04766  0.65950  1.0000
  S   S64       1.0  0.14047  0.07709  0.65005  1.0000
  H   H292      1.0  0.37860  0.32525  0.72289  1.0000
  Fe  Fe34      1.0  0.20734  0.07725  0.64763  1.0000
  S   S65       1.0  0.18607  0.10865  0.63879  1.0000
  S   S66       1.0  0.24614  0.07502  0.64028  1.0000
  Fe  Fe35      1.0  0.16505  0.09921  0.67038  1.0000
  S   S67       1.0  0.14988  0.12484  0.69631  1.0000
  Fe  Fe36      1.0  0.16346  0.08351  0.61951  1.0000
  S   S68       1.0  0.15159  0.08479  0.58196  1.0000
  S   S69       1.0  0.18825  0.06983  0.68087  1.0000
  S   S70       1.0  0.18535  0.05221  0.62726  1.0000
  C   C172      1.0  0.15438  0.14247  0.52767  1.0000
  C   C173      1.0  0.15544  0.11916  0.52121  1.0000
  C   C174      1.0  0.15515  0.10177  0.53814  1.0000
  C   C175      1.0  0.15415  0.10746  0.56171  1.0000
  C   C176      1.0  0.15368  0.13079  0.56826  1.0000
  C   C177      1.0  0.15377  0.14822  0.55127  1.0000
  C   C178      1.0  0.08662  0.08599  0.55275  1.0000
  H   H293      1.0  0.15562  0.08376  0.53295  1.0000
  H   H294      1.0  0.15261  0.13539  0.58635  1.0000
  H   H295      1.0  0.15299  0.16624  0.55642  1.0000
  C   C179      1.0  0.14526  0.09318  0.73180  1.0000
  C   C180      1.0  0.13851  0.11457  0.72271  1.0000
  C   C181      1.0  0.12199  0.12794  0.73464  1.0000
  H   H296      1.0  0.15793  0.08271  0.72280  1.0000
  H   H297      1.0  0.11645  0.14435  0.72756  1.0000
  H   H298      1.0  0.09612  0.03060  0.68551  1.0000
  H   H299      1.0  0.36772  0.07738  0.68316  1.0000
  C   C182      1.0  0.38970  0.45384  0.65326  1.0000
  C   C183      1.0  0.36648  0.44786  0.65661  1.0000
  C   C184      1.0  0.34908  0.46509  0.65623  1.0000
  H   H300      1.0  0.38822  0.48147  0.60373  1.0000
  C   C185      1.0  0.49944  0.35623  0.63491  1.0000
  C   C186      1.0  0.39533  0.47732  0.65029  1.0000
  H   H301      1.0  0.36183  0.42987  0.65879  1.0000
  H   H302      1.0  0.33114  0.46018  0.65829  1.0000
  H   H303      1.0  0.48911  0.47723  0.66828  1.0000
  H   H304      1.0  0.41322  0.48220  0.64780  1.0000
  H   H305      1.0  0.10600  0.11623  0.54256  1.0000
  H   H306      1.0  0.35284  0.09280  0.62343  1.0000
  H   H307      1.0  0.32521  0.08170  0.65476  1.0000
  C   C187      1.0  0.36887  0.33194  0.73808  1.0000
  C   C188      1.0  0.07883  0.03639  0.69177  1.0000
  C   C189      1.0  0.39249  0.25748  0.62116  1.0000
  C   C190      1.0  0.38059  0.25250  0.64155  1.0000
  C   C191      1.0  0.37559  0.27035  0.65751  1.0000
  C   C192      1.0  0.38266  0.29324  0.65338  1.0000
  C   C193      1.0  0.39418  0.29827  0.63283  1.0000
  C   C194      1.0  0.39896  0.28051  0.61676  1.0000
  H   H308      1.0  0.37544  0.23488  0.64510  1.0000
  H   H309      1.0  0.36635  0.26634  0.67320  1.0000
  H   H310      1.0  0.39910  0.31593  0.62916  1.0000
  H   H311      1.0  0.40782  0.28460  0.60087  1.0000
  C   C195      1.0  0.29513  0.13687  0.63038  1.0000
  C   C196      1.0  0.27352  0.14002  0.64108  1.0000
  C   C197      1.0  0.25814  0.12135  0.64384  1.0000
  C   C198      1.0  0.26445  0.09920  0.63628  1.0000
  C   C199      1.0  0.28606  0.09604  0.62550  1.0000
  C   C200      1.0  0.30121  0.11485  0.62227  1.0000
  H   H312      1.0  0.26867  0.15701  0.64742  1.0000
  H   H313      1.0  0.24161  0.12400  0.65224  1.0000
  H   H314      1.0  0.29101  0.07897  0.61950  1.0000
  H   H315      1.0  0.31761  0.11230  0.61367  1.0000
  C   C201      1.0  0.48395  0.16148  0.64020  1.0000
  C   C202      1.0  0.46174  0.15498  0.63243  1.0000
  C   C203      1.0  0.45335  0.13277  0.63692  1.0000
  C   C204      1.0  0.46737  0.11721  0.64935  1.0000
  C   C205      1.0  0.48966  0.12366  0.65701  1.0000
  H   H316      1.0  0.45114  0.16714  0.62290  1.0000
  H   H317      1.0  0.46094  0.10005  0.65305  1.0000
  C   C206      1.0  0.05684  0.06338  0.71596  1.0000
  C   C207      1.0  0.49812  0.40736  0.66578  1.0000
  H   H318      1.0  0.35271  0.45647  0.57315  1.0000
  C   C208      1.0  0.36335  0.11567  0.65185  1.0000
  H   H319      1.0  0.45792  0.30023  0.58889  1.0000
  H   H320      1.0  0.11373  0.06609  0.69753  1.0000
  C   C209      1.0  0.36140  0.46128  0.58952  1.0000
  H   H321      1.0  0.46093  0.43215  0.66540  1.0000
  H   H322      1.0  0.43294  0.27001  0.64805  1.0000
  H   H323      1.0  0.40406  0.09840  0.66835  1.0000
  H   H324      1.0  0.04064  0.10554  0.54678  1.0000
  H   H325      1.0  0.49278  0.29495  0.65826  1.0000
  C   C210      1.0  0.49074  0.42024  0.62642  1.0000
  H   H326      1.0  0.04573  0.04940  0.72306  1.0000
  C   C211      1.0  0.11301  0.02946  0.72957  1.0000
  H   H327      1.0  0.38313  0.09249  0.62916  1.0000
  H   H328      1.0  0.26685  0.15154  0.54935  1.0000
  C   C212      1.0  0.22951  0.12293  0.52932  1.0000
  N   N14       1.0  0.35779  0.11344  0.67719  1.0000
  H   H329      1.0  0.27615  0.15524  0.57905  1.0000
  N   N15       1.0  0.08073  0.05420  0.71073  1.0000
  H   H330      1.0  0.32462  0.10265  0.53048  1.0000
  C   C213      1.0  0.33229  0.10892  0.68072  1.0000
  C   C214      1.0  0.34820  0.15711  0.68248  1.0000
  H   H331      1.0  0.38062  0.48769  0.54108  1.0000
  H   H332      1.0  0.04785  0.06900  0.69991  1.0000
  C   C215      1.0  0.49287  0.10877  0.59192  1.0000
  H   H333      1.0  0.46294  0.46950  0.68265  1.0000
  H   H334      1.0  0.40713  0.08213  0.69429  1.0000
  C   C216      1.0  0.47504  0.44322  0.65849  1.0000
  H   H335      1.0  0.07134  0.09681  0.68586  1.0000
  H   H336      1.0  0.35156  0.48641  0.54960  1.0000
  H   H337      1.0  0.20683  0.08938  0.55493  1.0000
  H   H338      1.0  0.03737  0.08871  0.73604  1.0000
  C   C217      1.0  0.20422  0.16056  0.59434  1.0000
  C   C218      1.0  0.46005  0.30406  0.62668  1.0000
  C   C219      1.0  0.08795  0.08790  0.68224  1.0000
  H   H339      1.0  0.07785  0.03312  0.74169  1.0000
  H   H340      1.0  0.22531  0.15547  0.54658  1.0000
  H   H341      1.0  0.04530  0.01845  0.69373  1.0000
  C   C220      1.0  0.09657  0.07323  0.70274  1.0000
  H   H342      1.0  0.40522  0.11286  0.69610  1.0000
  H   H343      1.0  0.19842  0.11607  0.58632  1.0000
  C   C221      1.0  0.46918  0.23722  0.62379  1.0000
  H   H344      1.0  0.32163  0.12169  0.67096  1.0000
  C   C222      1.0  0.13529  0.08511  0.75240  1.0000
  H   H345      1.0  0.19467  0.16430  0.57817  1.0000
  H   H346      1.0  0.19400  0.14874  0.60534  1.0000
  H   H347      1.0  0.20554  0.17714  0.60404  1.0000
  H   H348      1.0  0.46050  0.39794  0.63500  1.0000
  C   C223      1.0  0.32304  0.08500  0.67343  1.0000
  H   H349      1.0  0.39662  0.11758  0.52356  1.0000
  H   H350      1.0  0.30403  0.08468  0.67655  1.0000
  H   H351      1.0  0.35559  0.17303  0.69034  1.0000
  C   C224      1.0  0.25590  0.12352  0.57298  1.0000
  H   H352      1.0  0.23871  0.16615  0.58284  1.0000
  H   H353      1.0  0.34772  0.15992  0.66366  1.0000
  H   H354      1.0  0.07087  0.04415  0.67610  1.0000
  H   H355      1.0  0.12718  0.03956  0.72161  1.0000
  C   C225      1.0  0.36349  0.13616  0.68897  1.0000
  C   C226      1.0  0.39854  0.09754  0.68664  1.0000
  H   H356      1.0  0.36385  0.07674  0.64711  1.0000
  H   H357      1.0  0.33989  0.35683  0.73832  1.0000
  H   H358      1.0  0.36245  0.13446  0.70810  1.0000
  H   H359      1.0  0.33498  0.29881  0.75255  1.0000
  H   H360      1.0  0.09504  0.05785  0.74512  1.0000
  H   H361      1.0  0.35007  0.12653  0.64308  1.0000
  H   H362      1.0  0.48173  0.36136  0.63160  1.0000
  H   H363      1.0  0.22338  0.10752  0.60226  1.0000
  H   H364      1.0  0.46328  0.32892  0.59888  1.0000
  H   H365      1.0  0.10992  0.01352  0.71934  1.0000
  C   C227      1.0  0.34518  0.34071  0.72926  1.0000
  C   C228      1.0  0.46376  0.26242  0.61684  1.0000
  H   H366      1.0  0.32755  0.07318  0.54030  1.0000
  S   S71       1.0  0.14316  0.01885  0.67631  1.0000
  C   C229      1.0  0.27291  0.14244  0.56504  1.0000
  H   H367      1.0  0.10027  0.08543  0.71707  1.0000
  H   H368      1.0  0.25890  0.10821  0.56185  1.0000
  H   H369      1.0  0.10286  0.08296  0.56266  1.0000
  H   H370      1.0  0.39503  0.47010  0.57606  1.0000
  H   H371      1.0  0.28998  0.13440  0.56111  1.0000
  H   H372      1.0  0.02753  0.12089  0.52284  1.0000
  H   H373      1.0  0.45316  0.42420  0.62008  1.0000
  H   H374      1.0  0.20178  0.13620  0.55063  1.0000
  C   C230      1.0  0.47978  0.46257  0.67636  1.0000
  H   H375      1.0  0.35559  0.29299  0.71457  1.0000
  H   H376      1.0  0.23398  0.08046  0.56877  1.0000
  C   C231      1.0  0.44696  0.29268  0.67393  1.0000
  H   H377      1.0  0.26174  0.11788  0.59037  1.0000
  C   C232      1.0  0.06392  0.01493  0.69715  1.0000
  H   H378      1.0  0.08661  0.07755  0.66614  1.0000
  C   C233      1.0  0.45045  0.27417  0.65493  1.0000
  H   H379      1.0  0.23682  0.14724  0.60686  1.0000
  C   C234      1.0  0.22888  0.15118  0.58977  1.0000
  N   N16       1.0  0.23070  0.13050  0.57378  1.0000
  C   C235      1.0  0.07214  0.13781  0.51327  1.0000
  H   H380      1.0  0.06009  0.07985  0.51448  1.0000
  H   H381      1.0  0.38162  0.14148  0.68518  1.0000
  H   H382      1.0  0.32765  0.11130  0.69925  1.0000
  H   H383      1.0  0.37977  0.12544  0.64946  1.0000
  H   H384      1.0  0.34659  0.34463  0.71054  1.0000
  H   H385      1.0  0.13803  0.17567  0.75200  1.0000
  H   H386      1.0  0.49474  0.26490  0.65569  1.0000
  N   N17       1.0  0.46680  0.28040  0.63557  1.0000
  C   C236      1.0  0.49810  0.14584  0.65237  1.0000
  C   C237      1.0  0.35465  0.48851  0.65278  1.0000
  H   H387      1.0  0.33049  0.07069  0.68376  1.0000
  C   C238      1.0  0.35805  0.28138  0.72957  1.0000
  H   H388      1.0  0.49840  0.10969  0.57367  1.0000
  H   H389      1.0  0.30390  0.09043  0.54935  1.0000
  H   H390      1.0  0.46754  0.22596  0.60826  1.0000
  H   H391      1.0  0.21497  0.12146  0.51678  1.0000
  C   C239      1.0  0.36706  0.49756  0.55068  1.0000
  C   C240      1.0  0.50334  0.41161  0.69145  1.0000
  H   H392      1.0  0.06501  0.09917  0.72738  1.0000
  H   H393      1.0  0.45650  0.23054  0.63647  1.0000
  H   H394      1.0  0.16296  0.18868  0.73959  1.0000
  C   C241      1.0  0.29984  0.07693  0.51435  1.0000
  H   H395      1.0  0.47360  0.10849  0.59182  1.0000
  H   H396      1.0  0.16303  0.15828  0.74415  1.0000
  C   C242      1.0  0.46633  0.41025  0.62168  1.0000
  H   H397      1.0  0.46648  0.40081  0.60494  1.0000
  H   H398      1.0  0.40003  0.29860  0.74344  1.0000
  H   H399      1.0  0.10183  0.15399  0.53162  1.0000
  H   H400      1.0  0.49777  0.12472  0.60147  1.0000
  H   H401      1.0  0.23526  0.10508  0.53300  1.0000
  C   C243      1.0  0.31510  0.08655  0.53424  1.0000
  H   H402      1.0  0.34867  0.46758  0.60246  1.0000
  C   C244      1.0  0.35358  0.29407  0.75264  1.0000
  C   C245      1.0  0.36584  0.09305  0.63756  1.0000
  C   C246      1.0  0.37203  0.09505  0.68909  1.0000
  H   H403      1.0  0.33028  0.15544  0.68915  1.0000
  H   H404      1.0  0.43497  0.28576  0.68717  1.0000
  H   H405      1.0  0.36796  0.09474  0.70789  1.0000
  C   C247      1.0  0.09074  0.04396  0.73251  1.0000
  H   H406      1.0  0.50018  0.11161  0.66673  1.0000
  C   C248      1.0  0.08766  0.11033  0.54167  1.0000
  H   H407      1.0  0.48857  0.42007  0.70029  1.0000
  H   H408      1.0  0.07798  0.12208  0.55354  1.0000
  H   H409      1.0  0.46655  0.31789  0.63842  1.0000
  H   H410      1.0  0.49453  0.08825  0.62195  1.0000
  S   S72       1.0  0.15396  0.16484  0.50685  1.0000
  H   H411      1.0  0.06259  0.07855  0.75068  1.0000
  C   C249      1.0  0.49103  0.28071  0.64538  1.0000
  C   C250      1.0  0.22103  0.13708  0.55045  1.0000
  C   C251      1.0  0.46761  0.31043  0.60200  1.0000
  C   C252      1.0  0.21650  0.08792  0.57142  1.0000
  C   C253      1.0  0.21693  0.11115  0.58447  1.0000
  H   H412      1.0  0.44560  0.26275  0.61027  1.0000
  H   H413      1.0  0.48709  0.23517  0.63041  1.0000
  H   H414      1.0  0.20680  0.07521  0.58200  1.0000
  H   H415      1.0  0.34529  0.26716  0.72760  1.0000
  H   H416      1.0  0.10090  0.10170  0.67890  1.0000
  H   H417      1.0  0.49025  0.17871  0.63662  1.0000
  H   H418      1.0  0.36887  0.44510  0.59680  1.0000
  H   H419      1.0  0.49323  0.43459  0.61386  1.0000
  C   C254      1.0  0.37797  0.49458  0.65032  1.0000
  C   C255      1.0  0.50175  0.08693  0.60428  1.0000
  H   H420      1.0  0.24334  0.13239  0.52002  1.0000
  H   H421      1.0  0.48641  0.30855  0.59910  1.0000
  C   C256      1.0  0.38107  0.47884  0.58615  1.0000
  H   H422      1.0  0.49311  0.07173  0.59609  1.0000
  H   H423      1.0  0.45629  0.25819  0.66393  1.0000
  H   H424      1.0  0.43865  0.30861  0.66714  1.0000
  H   H425      1.0  0.47442  0.26610  0.60143  1.0000
  N   N18       1.0  0.07846  0.11273  0.51736  1.0000
  H   H426      1.0  0.44090  0.30605  0.62659  1.0000
  H   H427      1.0  0.07248  0.08517  0.56568  1.0000
  H   H428      1.0  0.46334  0.29716  0.68284  1.0000
  H   H429      1.0  0.08501  0.07130  0.54065  1.0000
  H   H430      1.0  0.32777  0.49073  0.57788  1.0000
  H   H431      1.0  0.48231  0.39652  0.66530  1.0000
  C   C257      1.0  0.05575  0.08358  0.73350  1.0000
  H   H432      1.0  0.28158  0.08206  0.51793  1.0000
  H   H433      1.0  0.46718  0.45255  0.64359  1.0000
  H   H434      1.0  0.48966  0.45672  0.69161  1.0000
  H   H435      1.0  0.33106  0.32796  0.73036  1.0000
  C   C258      1.0  0.05693  0.09866  0.51282  1.0000
  H   H436      1.0  0.38089  0.45645  0.74717  1.0000
  H   H437      1.0  0.02274  0.09066  0.52631  1.0000
  H   H438      1.0  0.50371  0.05792  0.64353  1.0000
  H   H439      1.0  0.37879  0.34764  0.74304  1.0000
  H   H440      1.0  0.36514  0.38848  0.74864  1.0000
  N   N19       1.0  0.37469  0.50168  0.57527  1.0000
  H   H441      1.0  0.34043  0.05298  0.50651  1.0000
  C   C259      1.0  0.15719  0.17500  0.75169  1.0000
  H   H442      1.0  0.11926  0.02396  0.74683  1.0000
  C   C260      1.0  0.03595  0.10448  0.52827  1.0000
  H   H443      1.0  0.50331  0.40652  0.62130  1.0000
  H   H444      1.0  0.11520  0.07724  0.51636  1.0000
  C   C261      1.0  0.09210  0.15544  0.51518  1.0000
  C   C262      1.0  0.38866  0.12005  0.50684  1.0000
  N   N20       1.0  0.49538  0.42849  0.65079  1.0000
  H   H445      1.0  0.06592  0.00872  0.71506  1.0000
  H   H446      1.0  0.05890  0.14381  0.52588  1.0000
  H   H447      1.0  0.08484  0.17326  0.51445  1.0000
  H   H448      1.0  0.41899  0.50471  0.60286  1.0000
  H   H449      1.0  0.30044  0.05772  0.51613  1.0000
  H   H450      1.0  0.37547  0.27331  0.72881  1.0000
  C   C263      1.0  0.50553  0.34719  0.65642  1.0000
  Fe  Fe37      1.0  0.15135  0.32971  0.91491  1.0000
  S   S73       1.0  0.15661  0.30487  0.94409  1.0000
  S   S74       1.0  0.18117  0.33686  0.89038  1.0000
  Fe  Fe38      1.0  0.10109  0.33932  0.92850  1.0000
  S   S75       1.0  0.10342  0.31616  0.95962  1.0000
  S   S76       1.0  0.06891  0.36119  0.92136  1.0000
  Fe  Fe39      1.0  0.13859  0.33188  0.96578  1.0000
  C   C264      1.0  0.38406  0.46356  0.76476  1.0000
  Fe  Fe40      1.0  0.12124  0.29125  0.93521  1.0000
  S   S77       1.0  0.11050  0.25333  0.93760  1.0000
  S   S78       1.0  0.13487  0.35725  0.93673  1.0000
  S   S79       1.0  0.11728  0.31381  0.90388  1.0000
  Fe  Fe41      1.0  0.33195  0.44985  0.88724  1.0000
  S   S80       1.0  0.35904  0.42274  0.87997  1.0000
  S   S81       1.0  0.33373  0.48809  0.87725  1.0000
  Fe  Fe42      1.0  0.29565  0.41291  0.90150  1.0000
  S   S82       1.0  0.32019  0.38337  0.89481  1.0000
  S   S83       1.0  0.25964  0.40963  0.91728  1.0000
  Fe  Fe43      1.0  0.34643  0.40585  0.91294  1.0000
  S   S84       1.0  0.37204  0.39257  0.93983  1.0000
  Fe  Fe44      1.0  0.33047  0.40284  0.86262  1.0000
  S   S85       1.0  0.33030  0.38846  0.82586  1.0000
  S   S86       1.0  0.32143  0.43454  0.92135  1.0000
  S   S87       1.0  0.30383  0.43072  0.86824  1.0000
  Fe  Fe45      1.0  0.09273  0.10518  0.82060  1.0000
  S   S88       1.0  0.11868  0.10795  0.84943  1.0000
  S   S89       1.0  0.10412  0.08591  0.78801  1.0000
  Fe  Fe46      1.0  0.05315  0.12484  0.85138  1.0000
  S   S90       1.0  0.07649  0.12822  0.88230  1.0000
  H   H451      1.0  0.37569  0.46187  0.85278  1.0000
  Fe  Fe47      1.0  0.10231  0.14263  0.85725  1.0000
  S   S91       1.0  0.12264  0.17623  0.85947  1.0000
  Fe  Fe48      1.0  0.09064  0.09310  0.87160  1.0000
  S   S92       1.0  0.09519  0.06259  0.89601  1.0000
  S   S93       1.0  0.07848  0.14089  0.82658  1.0000
  S   S94       1.0  0.06518  0.08871  0.84250  1.0000
  H   H452      1.0  0.33413  0.34011  0.80076  1.0000
  C   C265      1.0  0.15227  0.02677  0.87431  1.0000
  H   H453      1.0  0.15466  0.40976  0.86114  1.0000
  C   C266      1.0  0.04639  0.18407  0.88627  1.0000
  H   H454      1.0  0.30906  0.44395  0.81907  1.0000
  H   H455      1.0  0.03917  0.16631  0.88515  1.0000
  C   C267      1.0  0.11275  0.02849  0.80628  1.0000
  H   H456      1.0  0.40240  0.46521  0.80696  1.0000
  H   H457      1.0  0.32712  0.33898  0.77093  1.0000
  H   H458      1.0  0.03284  0.23474  0.93982  1.0000
  H   H459      1.0  0.10488  0.18632  0.80434  1.0000
  H   H460      1.0  0.31541  0.46435  0.79702  1.0000
  H   H461      1.0  0.38057  0.48521  0.89687  1.0000
  H   H462      1.0  0.14463  0.11366  0.80434  1.0000
  C   C268      1.0  0.11712  0.04130  0.89251  1.0000
  C   C269      1.0  0.13558  0.04439  0.87722  1.0000
  C   C270      1.0  0.37466  0.36239  0.00336  1.0000
  H   H463      1.0  0.13705  0.06040  0.86774  1.0000
  C   C271      1.0  0.39127  0.38943  0.77509  1.0000
  C   C272      1.0  0.36845  0.38890  0.76700  1.0000
  C   C273      1.0  0.34990  0.38886  0.78277  1.0000
  C   C274      1.0  0.35401  0.38999  0.80668  1.0000
  C   C275      1.0  0.37680  0.39138  0.81470  1.0000
  C   C276      1.0  0.39534  0.39099  0.79896  1.0000
  H   H464      1.0  0.03858  0.19426  0.94399  1.0000
  H   H465      1.0  0.33228  0.38799  0.77644  1.0000
  H   H466      1.0  0.38016  0.39214  0.83308  1.0000
  H   H467      1.0  0.41295  0.39155  0.80535  1.0000
  C   C277      1.0  0.34032  0.37647  0.97193  1.0000
  C   C278      1.0  0.36362  0.37998  0.96644  1.0000
  C   C279      1.0  0.11849  0.09828  0.76411  1.0000
  H   H468      1.0  0.32705  0.38201  0.95995  1.0000
  H   H469      1.0  0.20397  0.17523  0.83579  1.0000
  C   C280      1.0  0.11414  0.23225  0.91558  1.0000
  C   C281      1.0  0.10786  0.20921  0.92009  1.0000
  C   C282      1.0  0.10995  0.19196  0.90297  1.0000
  C   C283      1.0  0.11864  0.19755  0.88119  1.0000
  C   C284      1.0  0.12516  0.22054  0.87673  1.0000
  C   C285      1.0  0.12277  0.23787  0.89378  1.0000
  H   H470      1.0  0.10164  0.20466  0.93706  1.0000
  H   H471      1.0  0.10545  0.17422  0.90681  1.0000
  H   H472      1.0  0.13212  0.22500  0.86003  1.0000
  H   H473      1.0  0.12778  0.25551  0.89014  1.0000
  C   C286      1.0  0.01148  0.34643  0.86789  1.0000
  C   C287      1.0  0.02717  0.36909  0.89976  1.0000
  C   C288      1.0  0.04661  0.35443  0.90126  1.0000
  C   C289      1.0  0.04828  0.33554  0.88615  1.0000
  C   C290      1.0  0.03087  0.33168  0.86947  1.0000
  C   C291      1.0  0.33428  0.36561  0.99280  1.0000
  C   C292      1.0  0.12357  0.18838  0.80031  1.0000
  H   H474      1.0  0.06309  0.32407  0.88715  1.0000
  C   C293      1.0  0.20297  0.35707  0.89804  1.0000
  C   C294      1.0  0.19910  0.37404  0.91490  1.0000
  C   C295      1.0  0.21639  0.39043  0.92001  1.0000
  C   C296      1.0  0.23794  0.38971  0.90877  1.0000
  C   C297      1.0  0.24189  0.37269  0.89197  1.0000
  C   C298      1.0  0.22437  0.35659  0.88649  1.0000
  H   H475      1.0  0.18271  0.37472  0.92385  1.0000
  H   H476      1.0  0.21316  0.40356  0.93299  1.0000
  H   H477      1.0  0.25840  0.37197  0.88318  1.0000
  H   H478      1.0  0.22747  0.34364  0.87330  1.0000
  N   N21       1.0  0.26096  0.34005  0.96388  1.0000
  C   C299      1.0  0.25814  0.35735  0.98322  1.0000
  H   H479      1.0  0.35520  0.28113  0.76678  1.0000
  C   C300      1.0  0.23862  0.33681  0.95074  1.0000
  C   C301      1.0  0.27909  0.34890  0.94744  1.0000
  H   H480      1.0  0.42884  0.31446  0.76933  1.0000
  H   H481      1.0  0.09841  0.12969  0.76362  1.0000
  N   N22       1.0  0.36475  0.46472  0.80511  1.0000
  C   C302      1.0  0.28644  0.33203  0.92806  1.0000
  H   H482      1.0  0.33769  0.49271  0.77618  1.0000
  H   H483      1.0  0.10587  0.04085  0.81932  1.0000
  H   H484      1.0  0.21834  0.31565  0.97525  1.0000
  H   H485      1.0  0.36870  0.31549  0.79496  1.0000
  H   H486      1.0  0.39391  0.29077  0.77247  1.0000
  H   H487      1.0  0.24005  0.32220  0.93825  1.0000
  H   H488      1.0  0.27293  0.36483  0.93858  1.0000
  H   H489      1.0  0.29499  0.35425  0.95687  1.0000
  H   H490      1.0  0.04333  0.14795  0.91787  1.0000
  H   H491      1.0  0.40800  0.32993  0.78604  1.0000
  H   H492      1.0  0.20183  0.32990  0.95346  1.0000
  C   C303      1.0  0.16780  0.13930  0.78882  1.0000
  H   H493      1.0  0.12585  0.15539  0.78302  1.0000
  H   H494      1.0  0.02571  0.38376  0.91135  1.0000
  H   H495      1.0  0.05163  0.18432  0.84919  1.0000
  H   H496      1.0  0.13808  0.36606  0.88696  1.0000
  H   H497      1.0  0.37052  0.34312  0.78195  1.0000
  H   H498      1.0  0.29513  0.31635  0.93490  1.0000
  H   H499      1.0  0.34842  0.45735  0.77186  1.0000
  H   H500      1.0  0.18648  0.13819  0.78420  1.0000
  N   N23       1.0  0.11385  0.38469  0.86532  1.0000
  C   C304      1.0  0.10619  0.40012  0.88505  1.0000
  C   C305      1.0  0.09776  0.36417  0.86482  1.0000
  C   C306      1.0  0.11239  0.39817  0.84310  1.0000
  C   C307      1.0  0.08154  0.41048  0.88319  1.0000
  C   C308      1.0  0.10266  0.34525  0.84670  1.0000
  C   C309      1.0  0.12788  0.38982  0.82290  1.0000
  H   H501      1.0  0.10725  0.39065  0.90178  1.0000
  H   H502      1.0  0.11787  0.41527  0.88696  1.0000
  H   H503      1.0  0.09772  0.35553  0.88194  1.0000
  H   H504      1.0  0.07958  0.36966  0.86158  1.0000
  H   H505      1.0  0.09416  0.39870  0.83674  1.0000
  H   H506      1.0  0.11732  0.41655  0.84632  1.0000
  H   H507      1.0  0.07898  0.42057  0.86715  1.0000
  H   H508      1.0  0.06789  0.39715  0.88464  1.0000
  H   H509      1.0  0.07875  0.42253  0.89792  1.0000
  H   H510      1.0  0.12018  0.33756  0.84842  1.0000
  H   H511      1.0  0.09955  0.35166  0.82896  1.0000
  H   H512      1.0  0.09021  0.33087  0.84938  1.0000
  H   H513      1.0  0.11846  0.39260  0.80640  1.0000
  H   H514      1.0  0.13281  0.37134  0.82323  1.0000
  H   H515      1.0  0.29535  0.29837  0.99195  1.0000
  H   H516      1.0  0.32682  0.50245  0.80391  1.0000
  H   H517      1.0  0.30623  0.32143  0.97490  1.0000
  H   H518      1.0  0.12683  0.03779  0.79715  1.0000
  H   H519      1.0  0.26791  0.30322  0.96061  1.0000
  C   C310      1.0  0.36217  0.32590  0.78012  1.0000
  H   H520      1.0  0.24651  0.39218  0.99190  1.0000
  H   H521      1.0  0.04243  0.15317  0.94805  1.0000
  C   C311      1.0  0.36503  0.45459  0.78106  1.0000
  H   H522      1.0  0.34082  0.46545  0.83406  1.0000
  C   C312      1.0  0.13462  0.16415  0.79767  1.0000
  C   C313      1.0  0.26796  0.31707  0.97404  1.0000
  H   H523      1.0  0.29919  0.34081  0.91680  1.0000
  S   S95       1.0  0.01664  0.14018  0.84936  1.0000
  C   C314      1.0  0.41167  0.32316  0.76848  1.0000
  H   H524      1.0  0.16657  0.02943  0.86259  1.0000
  H   H525      1.0  0.20159  0.14841  0.82068  1.0000
  H   H526      1.0  0.16912  0.19090  0.81926  1.0000
  H   H527      1.0  0.14501  0.36443  0.85770  1.0000
  H   H528      1.0  0.01694  0.15833  0.93144  1.0000
  C   C315      1.0  0.21684  0.33194  0.96532  1.0000
  H   H529      1.0  0.03248  0.31723  0.85764  1.0000
  N   N24       1.0  0.16054  0.16369  0.79476  1.0000
  H   H530      1.0  0.17505  0.10634  0.80571  1.0000
  H   H531      1.0  0.13128  0.19838  0.81474  1.0000
  H   H532      1.0  0.39374  0.48517  0.84251  1.0000
  C   C316      1.0  0.16816  0.17952  0.77561  1.0000
  H   H533      1.0  0.17393  0.38819  0.87212  1.0000
  H   H534      1.0  0.04919  0.21276  0.86096  1.0000
  C   C317      1.0  0.04430  0.18495  0.92820  1.0000
  H   H535      1.0  0.27164  0.32699  0.91692  1.0000
  C   C318      1.0  0.11189  0.11976  0.75517  1.0000
  H   H536      1.0  0.18720  0.17831  0.77305  1.0000
  H   H537      1.0  0.20790  0.17491  0.80522  1.0000
  H   H538      1.0  0.37920  0.49898  0.79880  1.0000
  H   H539      1.0  0.21231  0.34646  0.97706  1.0000
  H   H540      1.0  0.16352  0.12708  0.82503  1.0000
  H   H541      1.0  0.36697  0.43545  0.78199  1.0000
  H   H542      1.0  0.03498  0.23278  0.89453  1.0000
  C   C319      1.0  0.03608  0.15972  0.93117  1.0000
  C   C320      1.0  0.17157  0.17190  0.81697  1.0000
  H   H543      1.0  0.40606  0.45762  0.84915  1.0000
  C   C321      1.0  0.15632  0.39577  0.87403  1.0000
  C   C322      1.0  0.13809  0.37651  0.87086  1.0000
  C   C323      1.0  0.15050  0.00571  0.88626  1.0000
  C   C324      1.0  0.04866  0.23453  0.92916  1.0000
  C   C325      1.0  0.36303  0.49077  0.80518  1.0000
  C   C326      1.0  0.04231  0.19493  0.86227  1.0000
  H   H544      1.0  0.06544  0.18183  0.88833  1.0000
  H   H545      1.0  0.06348  0.22188  0.89821  1.0000
  S   S96       1.0  0.15909  0.34238  0.99790  1.0000
  H   H546      1.0  0.40151  0.45733  0.76988  1.0000
  C   C327      1.0  0.32235  0.44917  0.80630  1.0000
  H   H547      1.0  0.01347  0.11753  0.89443  1.0000
  H   H548      1.0  0.23483  0.35213  0.93994  1.0000
  C   C328      1.0  0.24913  0.38149  0.97615  1.0000
  C   C329      1.0  0.38737  0.45805  0.81648  1.0000
  H   H549      1.0  0.06359  0.18479  0.92909  1.0000
  C   C330      1.0  0.34528  0.45424  0.81906  1.0000
  H   H550      1.0  0.15543  0.40327  0.89169  1.0000
  C   C331      1.0  0.39058  0.46625  0.84165  1.0000
  H   H551      1.0  0.39879  0.37573  0.97828  1.0000
  C   C332      1.0  0.04578  0.22161  0.90593  1.0000
  H   H552      1.0  0.38967  0.43889  0.81622  1.0000
  H   H553      1.0  0.24651  0.35051  0.99689  1.0000
  H   H554      1.0  0.02375  0.19456  0.85731  1.0000
  C   C333      1.0  0.38072  0.37303  0.98234  1.0000
  H   H555      1.0  0.35067  0.43738  0.82670  1.0000
  C   C334      1.0  0.16228  0.12071  0.80706  1.0000
  H   H556      1.0  0.16483  0.19798  0.78019  1.0000
  N   N25       1.0  0.03638  0.19714  0.90657  1.0000
  H   H557      1.0  0.12467  0.19855  0.78417  1.0000
  C   C335      1.0  0.01036  0.19698  0.90410  1.0000
  C   C336      1.0  0.19777  0.16720  0.81945  1.0000
  C   C337      1.0  0.12295  0.00660  0.81766  1.0000
  H   H558      1.0  0.16296  0.16430  0.83233  1.0000
  H   H559      1.0  0.25506  0.31136  0.98705  1.0000
  C   C338      1.0  0.29174  0.31639  0.98632  1.0000
  H   H560      1.0  0.23225  0.38078  0.96707  1.0000
  H   H561      1.0  0.32724  0.31285  0.78819  1.0000
  H   H562      1.0  0.15890  0.13331  0.77284  1.0000
  H   H563      1.0  0.32431  0.43432  0.79423  1.0000
  H   H564      1.0  0.14375  0.40058  0.82172  1.0000
  H   H565      1.0  0.06312  0.22706  0.93941  1.0000
  H   H566      1.0  0.12947  0.15398  0.81311  1.0000
  H   H567      1.0  0.26186  0.39080  0.96531  1.0000
  H   H568      1.0  0.09923  0.02449  0.79330  1.0000
  C   C339      1.0  0.37892  0.50132  0.88751  1.0000
  H   H569      1.0  0.05347  0.25282  0.92573  1.0000
  H   H570      1.0  0.27498  0.36047  0.99199  1.0000
  C   C340      1.0  0.33611  0.32951  0.78481  1.0000
  C   C341      1.0  0.11555  0.02037  0.90476  1.0000
  H   H571      1.0  0.10135  0.01783  0.91662  1.0000
  H   H572      1.0  0.36169  0.49737  0.82322  1.0000
  C   C342      1.0  0.34223  0.50161  0.79246  1.0000
  H   H573      1.0  0.08145  0.01756  0.83815  1.0000
  H   H574      1.0  0.31629  0.36278  0.99674  1.0000
  N   N26       1.0  0.36892  0.31463  0.75751  1.0000
  H   H575      1.0  0.38386  0.48268  0.76327  1.0000
  H   H576      1.0  0.10431  0.01297  0.85799  1.0000
  C   C343      1.0  0.00962  0.36507  0.88326  1.0000
  H   H577      1.0  0.13556  0.01261  0.83096  1.0000
  C   C344      1.0  0.39338  0.30552  0.76012  1.0000
  S   S97       1.0  0.41523  0.38789  0.75618  1.0000
  H   H578      1.0  0.14034  0.06835  0.75905  1.0000
  H   H579      1.0  0.41355  0.33778  0.75636  1.0000
  H   H580      1.0  0.29196  0.32724  0.00215  1.0000
  Fe  Fe49      1.0  0.09158  0.84611  0.10210  1.0000
  S   S98       1.0  0.09942  0.81190  0.08501  1.0000
  S   S99       1.0  0.05479  0.86046  0.10218  1.0000
  Fe  Fe50      1.0  0.14303  0.85528  0.11322  1.0000
  S   S100      1.0  0.15438  0.82160  0.09756  1.0000
  S   S101      1.0  0.16674  0.88033  0.13237  1.0000
  Fe  Fe51      1.0  0.12948  0.83085  0.06884  1.0000
  S   S102      1.0  0.14235  0.82705  0.03193  1.0000
  Fe  Fe52      1.0  0.12342  0.80570  0.11507  1.0000
  S   S103      1.0  0.12341  0.77660  0.14160  1.0000
  S   S104      1.0  0.11993  0.86546  0.08368  1.0000
  S   S105      1.0  0.11380  0.83905  0.13293  1.0000
  Fe  Fe53      1.0  0.09605  0.58914  0.16354  1.0000
  S   S106      1.0  0.08029  0.59525  0.19854  1.0000
  S   S107      1.0  0.09491  0.55200  0.15002  1.0000
  Fe  Fe54      1.0  0.10575  0.64136  0.15695  1.0000
  S   S108      1.0  0.09168  0.65063  0.19189  1.0000
  S   S109      1.0  0.11667  0.66705  0.12921  1.0000
  Fe  Fe55      1.0  0.11060  0.61877  0.20485  1.0000
  H   H581      1.0  0.11767  0.92421  0.08448  1.0000
  Fe  Fe56      1.0  0.06270  0.62614  0.18234  1.0000
  S   S110      1.0  0.02507  0.63702  0.18768  1.0000
  S   S111      1.0  0.12707  0.61137  0.17019  1.0000
  S   S112      1.0  0.07605  0.61820  0.14702  1.0000
  Fe  Fe57      1.0  0.30374  0.91010  0.12309  1.0000
  S   S113      1.0  0.33193  0.88316  0.12475  1.0000
  S   S114      1.0  0.27181  0.89783  0.10293  1.0000
  Fe  Fe58      1.0  0.33650  0.94766  0.14358  1.0000
  S   S115      1.0  0.36668  0.92312  0.14570  1.0000
  S   S116      1.0  0.33841  0.98346  0.16054  1.0000
  Fe  Fe59      1.0  0.35504  0.91059  0.11053  1.0000
  S   S117      1.0  0.38038  0.90424  0.08114  1.0000
  Fe  Fe60      1.0  0.34084  0.89792  0.15963  1.0000
  S   S118      1.0  0.34680  0.87459  0.19061  1.0000
  S   S119      1.0  0.32680  0.93726  0.10722  1.0000
  S   S120      1.0  0.31078  0.92276  0.15928  1.0000
  H   H582      1.0  0.02989  0.94054  0.13892  1.0000
  H   H583      1.0  0.06977  0.51732  0.08611  1.0000
  H   H584      1.0  0.33795  0.98858  0.21035  1.0000
  H   H585      1.0  0.04673  0.94259  0.11346  1.0000
  H   H586      1.0  0.38637  0.82488  0.17452  1.0000
  C   C345      1.0  0.36845  0.84904  0.02489  1.0000
  C   C346      1.0  0.35540  0.84871  0.04534  1.0000
  C   C347      1.0  0.35875  0.86559  0.06262  1.0000
  C   C348      1.0  0.37576  0.88254  0.05995  1.0000
  C   C349      1.0  0.38933  0.88246  0.03982  1.0000
  C   C350      1.0  0.38549  0.86598  0.02221  1.0000
  H   H587      1.0  0.34228  0.83559  0.04761  1.0000
  H   H588      1.0  0.34813  0.86548  0.07795  1.0000
  H   H589      1.0  0.40258  0.89546  0.03763  1.0000
  C   C351      1.0  0.18120  0.88629  0.02149  1.0000
  C   C352      1.0  0.38686  0.89509  0.20722  1.0000
  C   C353      1.0  0.36830  0.88029  0.21170  1.0000
  C   C354      1.0  0.36700  0.86934  0.23327  1.0000
  H   H590      1.0  0.38817  0.90350  0.19065  1.0000
  C   C355      1.0  0.01122  0.79318  0.12666  1.0000
  H   H591      1.0  0.35279  0.85772  0.23682  1.0000
  H   H592      1.0  0.03510  0.85726  0.18488  1.0000
  C   C356      1.0  0.39277  0.98402  0.20865  1.0000
  H   H593      1.0  0.03300  0.71388  0.16423  1.0000
  H   H594      1.0  0.16714  0.56645  0.22600  1.0000
  H   H595      1.0  0.01717  0.66767  0.11777  1.0000
  H   H596      1.0  0.00732  0.87459  0.10593  1.0000
  H   H597      1.0  0.09957  0.90520  0.18203  1.0000
  C   C357      1.0  0.12194  0.74620  0.13761  1.0000
  C   C358      1.0  0.12484  0.73575  0.11599  1.0000
  C   C359      1.0  0.12351  0.71147  0.11378  1.0000
  C   C360      1.0  0.11906  0.69743  0.13306  1.0000
  C   C361      1.0  0.11620  0.70790  0.15466  1.0000
  C   C362      1.0  0.11783  0.73214  0.15693  1.0000
  H   H598      1.0  0.12815  0.74635  0.10101  1.0000
  H   H599      1.0  0.12582  0.70349  0.09701  1.0000
  H   H600      1.0  0.11285  0.69732  0.16965  1.0000
  H   H601      1.0  0.11565  0.74005  0.17374  1.0000
  C   C363      1.0  0.19613  0.88454  0.12441  1.0000
  C   C364      1.0  0.21103  0.89676  0.13931  1.0000
  C   C365      1.0  0.23443  0.90054  0.13339  1.0000
  C   C366      1.0  0.24306  0.89234  0.11233  1.0000
  C   C367      1.0  0.22818  0.87993  0.09759  1.0000
  C   C368      1.0  0.20489  0.87594  0.10359  1.0000
  H   H602      1.0  0.20444  0.90349  0.15548  1.0000
  H   H603      1.0  0.24565  0.91020  0.14487  1.0000
  H   H604      1.0  0.23485  0.87328  0.08148  1.0000
  H   H605      1.0  0.19371  0.86633  0.09205  1.0000
  C   C369      1.0  0.03600  0.86204  0.12629  1.0000
  C   C370      1.0  0.04360  0.85685  0.14860  1.0000
  C   C371      1.0  0.02892  0.86083  0.16761  1.0000
  C   C372      1.0  0.22100  0.82311  0.12549  1.0000
  C   C373      1.0  0.01331  0.87039  0.12312  1.0000
  H   H606      1.0  0.06096  0.85028  0.15128  1.0000
  C   C374      1.0  0.35144  0.93876  0.23660  1.0000
  C   C375      1.0  0.14150  0.54083  0.14429  1.0000
  C   C376      1.0  0.11892  0.53296  0.14805  1.0000
  H   H607      1.0  0.01323  0.80595  0.11252  1.0000
  H   H608      1.0  0.14472  0.55920  0.14266  1.0000
  H   H609      1.0  0.24214  0.82647  0.17062  1.0000
  H   H610      1.0  0.15106  0.51529  0.18910  1.0000
  C   C377      1.0  0.04800  0.94174  0.13254  1.0000
  C   C378      1.0  0.05855  0.68898  0.10116  1.0000
  C   C379      1.0  0.33596  0.93419  0.21533  1.0000
  N   N27       1.0  0.19738  0.80817  0.16091  1.0000
  C   C380      1.0  0.18482  0.81819  0.18158  1.0000
  C   C381      1.0  0.21875  0.79615  0.17000  1.0000
  C   C382      1.0  0.18146  0.79073  0.14976  1.0000
  C   C383      1.0  0.20282  0.82771  0.14460  1.0000
  C   C384      1.0  0.16037  0.82815  0.17704  1.0000
  C   C385      1.0  0.23664  0.81204  0.18190  1.0000
  C   C386      1.0  0.19139  0.77561  0.13017  1.0000
  H   H611      1.0  0.04973  0.69343  0.17914  1.0000
  H   H612      1.0  0.18284  0.80490  0.19534  1.0000
  H   H613      1.0  0.19492  0.83257  0.18951  1.0000
  H   H614      1.0  0.22822  0.78657  0.15642  1.0000
  H   H615      1.0  0.21381  0.78246  0.18258  1.0000
  H   H616      1.0  0.17440  0.77865  0.16296  1.0000
  H   H617      1.0  0.16624  0.79963  0.14207  1.0000
  H   H618      1.0  0.18679  0.83365  0.13577  1.0000
  H   H619      1.0  0.20874  0.84332  0.15432  1.0000
  H   H620      1.0  0.14763  0.81426  0.17328  1.0000
  H   H621      1.0  0.15418  0.83720  0.19282  1.0000
  H   H622      1.0  0.16024  0.84100  0.16294  1.0000
  H   H623      1.0  0.25241  0.80175  0.18600  1.0000
  C   C387      1.0  0.15228  0.51317  0.20810  1.0000
  H   H624      1.0  0.23010  0.81903  0.19851  1.0000
  H   H625      1.0  0.17747  0.76375  0.12412  1.0000
  H   H626      1.0  0.20583  0.76433  0.13590  1.0000
  H   H627      1.0  0.19632  0.78597  0.11496  1.0000
  H   H628      1.0  0.07363  0.65971  0.08281  1.0000
  H   H629      1.0  0.22730  0.85712  0.01717  1.0000
  H   H630      1.0  0.07637  0.69468  0.10572  1.0000
  C   C388      1.0  0.33462  0.99022  0.22902  1.0000
  H   H631      1.0  0.03462  0.72854  0.10195  1.0000
  H   H632      1.0  0.38344  0.00047  0.21215  1.0000
  H   H633      1.0  0.07018  0.72913  0.14213  1.0000
  H   H634      1.0  0.18440  0.86734  0.02178  1.0000
  C   C389      1.0  0.17672  0.89396  0.04666  1.0000
  H   H635      1.0  0.08846  0.94223  0.16715  1.0000
  C   C390      1.0  0.19400  0.92459  0.01005  1.0000
  H   H636      1.0  0.05956  0.75380  0.12694  1.0000
  N   N28       1.0  0.36712  0.95969  0.23591  1.0000
  H   H637      1.0  0.19429  0.93103  0.02819  1.0000
  H   H638      1.0  0.08357  0.90790  0.10180  1.0000
  H   H639      1.0  0.13209  0.95570  0.15235  1.0000
  H   H640      1.0  0.12967  0.55130  0.19091  1.0000
  H   H641      1.0  0.06870  0.68910  0.14464  1.0000
  H   H642      1.0  0.22657  0.90795  0.03421  1.0000
  H   H643      1.0  0.07606  0.73281  0.11159  1.0000
  C   C391      1.0  0.06047  0.66271  0.09648  1.0000
  C   C392      1.0  0.37791  0.00273  0.14080  1.0000
  H   H644      1.0  0.30576  0.92533  0.04271  1.0000
  H   H645      1.0  0.04787  0.66747  0.14256  1.0000
  H   H646      1.0  0.07368  0.52466  0.21702  1.0000
  H   H647      1.0  0.07463  0.88773  0.17471  1.0000
  H   H648      1.0  0.08345  0.93858  0.10459  1.0000
  C   C393      1.0  0.00957  0.62656  0.14356  1.0000
  H   H649      1.0  0.31800  0.98159  0.23324  1.0000
  H   H650      1.0  0.24710  0.87102  0.03629  1.0000
  H   H651      1.0  0.31747  0.86720  0.02416  1.0000
  N   N29       1.0  0.41108  0.85134  0.13868  1.0000
  C   C394      1.0  0.43637  0.84471  0.13855  1.0000
  C   C395      1.0  0.40418  0.85662  0.16326  1.0000
  C   C396      1.0  0.40663  0.87248  0.12419  1.0000
  C   C397      1.0  0.39725  0.83157  0.12877  1.0000
  C   C398      1.0  0.44759  0.84163  0.11454  1.0000
  C   C399      1.0  0.40162  0.83552  0.17928  1.0000
  C   C400      1.0  0.42097  0.89407  0.13066  1.0000
  C   C401      1.0  0.37068  0.83485  0.12850  1.0000
  H   H652      1.0  0.44694  0.85762  0.14823  1.0000
  H   H653      1.0  0.43912  0.82810  0.14783  1.0000
  H   H654      1.0  0.38768  0.86655  0.16394  1.0000
  H   H655      1.0  0.41701  0.86829  0.17168  1.0000
  H   H656      1.0  0.40939  0.86873  0.10553  1.0000
  H   H657      1.0  0.38810  0.87774  0.12532  1.0000
  H   H658      1.0  0.40206  0.82846  0.11043  1.0000
  H   H659      1.0  0.40147  0.81485  0.13735  1.0000
  H   H660      1.0  0.43973  0.82722  0.10461  1.0000
  H   H661      1.0  0.44702  0.85772  0.10418  1.0000
  H   H662      1.0  0.46618  0.83717  0.11689  1.0000
  H   H663      1.0  0.16450  0.88838  0.01215  1.0000
  H   H664      1.0  0.41742  0.82460  0.17962  1.0000
  H   H665      1.0  0.39861  0.84176  0.19721  1.0000
  H   H666      1.0  0.43981  0.89122  0.12838  1.0000
  H   H667      1.0  0.41736  0.90003  0.14851  1.0000
  H   H668      1.0  0.41600  0.90848  0.11899  1.0000
  H   H669      1.0  0.36501  0.84310  0.11214  1.0000
  H   H670      1.0  0.36408  0.84532  0.14312  1.0000
  H   H671      1.0  0.36211  0.81774  0.13009  1.0000
  C   C402      1.0  0.37708  0.96273  0.21204  1.0000
  H   H672      1.0  0.09468  0.95666  0.14095  1.0000
  H   H673      1.0  0.37884  0.98737  0.13010  1.0000
  H   H674      1.0  0.10283  0.87529  0.17472  1.0000
  H   H675      1.0  0.10996  0.50934  0.19899  1.0000
  H   H676      1.0  0.02565  0.61724  0.14124  1.0000
  H   H677      1.0  0.01553  0.68666  0.09389  1.0000
  H   H678      1.0  0.23496  0.83630  0.12654  1.0000
  H   H679      1.0  0.39886  0.94163  0.24509  1.0000
  H   H680      1.0  0.41829  0.91026  0.22056  1.0000
  H   H681      1.0  0.34646  0.92851  0.20029  1.0000
  C   C403      1.0  0.12386  0.93880  0.15625  1.0000
  C   C404      1.0  0.13630  0.84769  0.01021  1.0000
  C   C405      1.0  0.06145  0.92005  0.14057  1.0000
  C   C406      1.0  0.11089  0.51807  0.21616  1.0000
  C   C407      1.0  0.40390  0.89890  0.22421  1.0000
  H   H682      1.0  0.23755  0.89929  0.00693  1.0000
  H   H683      1.0  0.04399  0.65511  0.09022  1.0000
  H   H684      1.0  0.40884  0.98302  0.21907  1.0000
  H   H685      1.0  0.08762  0.88286  0.13475  1.0000
  H   H686      1.0  0.05347  0.90501  0.13156  1.0000
  H   H687      1.0  0.21778  0.86735  0.04480  1.0000
  H   H688      1.0  0.05711  0.91799  0.15914  1.0000
  H   H689      1.0  0.02698  0.72918  0.13131  1.0000
  H   H690      1.0  0.32401  0.91967  0.21918  1.0000
  H   H691      1.0  0.28944  0.87923  0.02123  1.0000
  N   N30       1.0  0.04139  0.69624  0.11949  1.0000
  H   H692      1.0  0.36345  0.96413  0.19867  1.0000
  H   H693      1.0  0.19292  0.89691  0.05652  1.0000
  H   H694      1.0  0.33311  0.91937  0.05572  1.0000
  N   N31       1.0  0.08739  0.92017  0.13696  1.0000
  H   H695      1.0  0.12512  0.94072  0.10939  1.0000
  C   C408      1.0  0.22371  0.89551  0.01971  1.0000
  H   H696      1.0  0.02894  0.78970  0.13336  1.0000
  H   H697      1.0  0.17727  0.53100  0.13888  1.0000
  H   H698      1.0  0.22942  0.80597  0.12575  1.0000
  C   C409      1.0  0.11502  0.50909  0.15004  1.0000
  H   H699      1.0  0.11142  0.86732  0.02986  1.0000
  H   H700      1.0  0.21279  0.82504  0.10823  1.0000
  N   N32       1.0  0.20008  0.89913  0.00902  1.0000
  H   H701      1.0  0.11489  0.89435  0.14091  1.0000
  C   C410      1.0  0.04025  0.72234  0.11929  1.0000
  H   H702      1.0  0.06666  0.65324  0.11188  1.0000
  H   H703      1.0  0.16600  0.90995  0.04720  1.0000
  C   C411      1.0  0.01808  0.68625  0.11298  1.0000
  C   C412      1.0  0.09765  0.94014  0.15036  1.0000
  C   C413      1.0  0.11713  0.92424  0.10365  1.0000
  H   H704      1.0  0.12642  0.93608  0.17506  1.0000
  C   C414      1.0  0.15990  0.52481  0.14209  1.0000
  H   H705      1.0  0.36178  0.92262  0.23877  1.0000
  C   C415      1.0  0.00634  0.86950  0.16448  1.0000
  H   H706      1.0  0.08927  0.54449  0.19955  1.0000
  C   C416      1.0  0.09301  0.89132  0.17056  1.0000
  H   H707      1.0  0.05531  0.95802  0.13957  1.0000
  C   C417      1.0  0.06295  0.73492  0.12539  1.0000
  H   H708      1.0  0.16671  0.88028  0.05563  1.0000
  C   C418      1.0  0.08995  0.53481  0.21603  1.0000
  C   C419      1.0  0.31983  0.91227  0.04374  1.0000
  N   N33       1.0  0.13462  0.52847  0.21997  1.0000
  C   C420      1.0  0.09630  0.89688  0.14474  1.0000
  C   C421      1.0  0.09168  0.92261  0.11141  1.0000
  H   H709      1.0  0.02195  0.68489  0.16815  1.0000
  H   H710      1.0  0.13394  0.92554  0.14683  1.0000
  H   H711      1.0  0.12784  0.90939  0.10930  1.0000
  C   C422      1.0  0.40233  0.88839  0.24601  1.0000
  C   C423      1.0  0.22897  0.87133  0.02984  1.0000
  H   H712      1.0  0.38719  0.94707  0.20694  1.0000
  H   H713      1.0  0.12407  0.56471  0.21763  1.0000
  H   H714      1.0  0.31324  0.89624  0.05188  1.0000
  H   H715      1.0  0.32522  0.94923  0.21037  1.0000
  C   C424      1.0  0.04971  0.68665  0.14227  1.0000
  S   S121      1.0  0.13669  0.61310  0.23419  1.0000
  H   H716      1.0  0.05441  0.69740  0.08436  1.0000
  C   C425      1.0  0.13585  0.55216  0.20908  1.0000
  C   C426      1.0  0.03756  0.69532  0.16436  1.0000
  H   H717      1.0  0.39819  0.98467  0.19026  1.0000
  C   C427      1.0  0.12078  0.86601  0.01376  1.0000
  H   H718      1.0  0.15850  0.53626  0.24774  1.0000
  H   H719      1.0  0.34664  0.89655  0.02314  1.0000
  C   C428      1.0  0.15996  0.56361  0.20848  1.0000
  C   C429      1.0  0.33132  0.90778  0.02004  1.0000
  H   H720      1.0  0.39581  0.86630  0.00665  1.0000
  H   H721      1.0  0.10031  0.52191  0.08693  1.0000
  H   H722      1.0  0.15824  0.58097  0.20048  1.0000
  H   H723      1.0  0.17238  0.55388  0.19753  1.0000
  H   H724      1.0  0.08985  0.54743  0.23040  1.0000
  H   H725      1.0  0.17024  0.51833  0.21284  1.0000
  H   H726      1.0  0.28545  0.91719  0.01062  1.0000
  C   C430      1.0  0.30554  0.87531  0.01139  1.0000
  C   C431      1.0  0.38383  0.87351  0.25045  1.0000
  C   C432      1.0  0.36006  0.00504  0.15695  1.0000
  C   C433      1.0  0.35449  0.98101  0.24427  1.0000
  C   C434      1.0  0.14071  0.52936  0.24528  1.0000
  H   H727      1.0  0.36662  0.99555  0.24769  1.0000
  H   H728      1.0  0.33839  0.92474  0.01444  1.0000
  H   H729      1.0  0.33982  0.93950  0.25191  1.0000
  C   C435      1.0  0.38724  0.95537  0.25211  1.0000
  H   H730      1.0  0.14101  0.51170  0.25277  1.0000
  H   H731      1.0  0.39825  0.97104  0.25388  1.0000
  C   C436      1.0  0.08665  0.50865  0.08940  1.0000
  Fe  Fe61      1.0  0.42459  0.89573  0.35344  1.0000
  S   S122      1.0  0.45258  0.89678  0.32659  1.0000
  S   S123      1.0  0.41899  0.92637  0.37771  1.0000
  Fe  Fe62      1.0  0.41180  0.84576  0.34148  1.0000
  S   S124      1.0  0.43825  0.84369  0.31310  1.0000
  S   S125      1.0  0.38654  0.81650  0.34939  1.0000
  Fe  Fe63      1.0  0.46224  0.86105  0.33868  1.0000
  H   H732      1.0  0.47481  0.53772  0.39556  1.0000
  Fe  Fe64      1.0  0.42632  0.87954  0.30334  1.0000
  H   H733      1.0  0.11369  0.54497  0.43081  1.0000
  S   S126      1.0  0.43625  0.86110  0.36751  1.0000
  S   S127      1.0  0.39784  0.88053  0.32973  1.0000
  Fe  Fe65      1.0  0.15917  0.57731  0.42137  1.0000
  S   S128      1.0  0.19423  0.56138  0.41563  1.0000
  S   S129      1.0  0.14375  0.57525  0.45764  1.0000
  Fe  Fe66      1.0  0.15315  0.58716  0.36895  1.0000
  S   S130      1.0  0.18786  0.57196  0.36011  1.0000
  S   S131      1.0  0.12763  0.60305  0.34335  1.0000
  Fe  Fe67      1.0  0.17766  0.54355  0.38494  1.0000
  C   C437      1.0  0.46590  0.69850  0.40054  1.0000
  Fe  Fe68      1.0  0.20098  0.59121  0.39163  1.0000
  S   S132      1.0  0.22883  0.61920  0.39495  1.0000
  S   S133      1.0  0.14233  0.55785  0.39198  1.0000
  S   S134      1.0  0.16644  0.60799  0.39912  1.0000
  Fe  Fe69      1.0  0.36533  0.64380  0.40633  1.0000
  S   S135      1.0  0.35876  0.67579  0.42783  1.0000
  S   S136      1.0  0.33918  0.62150  0.38660  1.0000
  Fe  Fe70      1.0  0.41691  0.64199  0.41938  1.0000
  S   S137      1.0  0.41309  0.67284  0.44267  1.0000
  S   S138      1.0  0.45344  0.62682  0.41807  1.0000
  Fe  Fe71      1.0  0.37990  0.65705  0.45487  1.0000
  H   H734      1.0  0.14720  0.51150  0.41632  1.0000
  Fe  Fe72      1.0  0.39285  0.68900  0.41360  1.0000
  S   S139      1.0  0.40947  0.72421  0.40569  1.0000
  S   S140      1.0  0.38515  0.62473  0.43399  1.0000
  S   S141      1.0  0.39780  0.65827  0.38990  1.0000
  C   C438      1.0  0.30847  0.62121  0.38886  1.0000
  C   C439      1.0  0.29594  0.64052  0.39652  1.0000
  C   C440      1.0  0.27159  0.63956  0.39805  1.0000
  C   C441      1.0  0.25945  0.61931  0.39206  1.0000
  C   C442      1.0  0.27193  0.60004  0.38421  1.0000
  C   C443      1.0  0.29630  0.60109  0.38246  1.0000
  H   H735      1.0  0.30503  0.65624  0.40108  1.0000
  H   H736      1.0  0.26209  0.65462  0.40399  1.0000
  H   H737      1.0  0.26285  0.58439  0.37944  1.0000
  H   H738      1.0  0.30581  0.58614  0.37628  1.0000
  C   C444      1.0  0.15308  0.61984  0.47325  1.0000
  C   C445      1.0  0.14366  0.59816  0.47818  1.0000
  H   H739      1.0  0.50261  0.57637  0.34692  1.0000
  H   H740      1.0  0.16062  0.62299  0.45648  1.0000
  H   H741      1.0  0.28892  0.66627  0.47384  1.0000
  H   H742      1.0  0.47281  0.62336  0.33541  1.0000
  H   H743      1.0  0.37254  0.90410  0.37897  1.0000
  C   C446      1.0  0.36278  0.85924  0.38372  1.0000
  H   H744      1.0  0.48618  0.74461  0.33834  1.0000
  H   H745      1.0  0.14781  0.52978  0.44080  1.0000
  H   H746      1.0  0.46166  0.71716  0.40226  1.0000
  C   C447      1.0  0.33303  0.59081  0.44908  1.0000
  C   C448      1.0  0.39338  0.79072  0.36466  1.0000
  C   C449      1.0  0.37689  0.77285  0.36574  1.0000
  C   C450      1.0  0.38146  0.75229  0.37807  1.0000
  C   C451      1.0  0.40251  0.74953  0.38971  1.0000
  C   C452      1.0  0.41898  0.76744  0.38867  1.0000
  C   C453      1.0  0.41454  0.78785  0.37613  1.0000
  H   H747      1.0  0.36047  0.77491  0.35695  1.0000
  H   H748      1.0  0.36863  0.73870  0.37871  1.0000
  H   H749      1.0  0.43527  0.76553  0.39772  1.0000
  H   H750      1.0  0.42735  0.80146  0.37552  1.0000
  C   C454      1.0  0.39953  0.94974  0.37302  1.0000
  C   C455      1.0  0.38191  0.94857  0.35644  1.0000
  C   C456      1.0  0.36561  0.96670  0.35461  1.0000
  C   C457      1.0  0.36699  0.98636  0.36897  1.0000
  C   C458      1.0  0.38495  0.98779  0.38512  1.0000
  C   C459      1.0  0.40098  0.96946  0.38727  1.0000
  H   H751      1.0  0.38055  0.93350  0.34540  1.0000
  C   C460      1.0  0.50323  0.62858  0.35639  1.0000
  H   H752      1.0  0.35371  0.91794  0.42726  1.0000
  H   H753      1.0  0.41450  0.97048  0.40020  1.0000
  C   C461      1.0  0.42403  0.68976  0.33592  1.0000
  H   H754      1.0  0.10033  0.53786  0.45810  1.0000
  C   C462      1.0  0.47194  0.62936  0.39395  1.0000
  C   C463      1.0  0.46371  0.62642  0.37142  1.0000
  C   C464      1.0  0.47929  0.62611  0.35274  1.0000
  H   H755      1.0  0.41097  0.99752  0.34134  1.0000
  H   H756      1.0  0.29079  0.66745  0.44324  1.0000
  H   H757      1.0  0.44540  0.62369  0.36847  1.0000
  H   H758      1.0  0.38213  0.92363  0.41539  1.0000
  C   C465      1.0  0.15055  0.59790  0.27684  1.0000
  C   C466      1.0  0.14889  0.59518  0.30094  1.0000
  C   C467      1.0  0.12957  0.60378  0.31277  1.0000
  C   C468      1.0  0.11159  0.61424  0.30009  1.0000
  C   C469      1.0  0.30696  0.62823  0.49838  1.0000
  C   C470      1.0  0.12448  0.54359  0.26090  1.0000
  H   H759      1.0  0.16271  0.58679  0.31038  1.0000
  H   H760      1.0  0.09654  0.62089  0.30906  1.0000
  C   C471      1.0  0.14823  0.51133  0.43545  1.0000
  H   H761      1.0  0.45027  0.68792  0.40391  1.0000
  H   H762      1.0  0.37084  0.96134  0.28626  1.0000
  H   H763      1.0  0.49332  0.73570  0.36740  1.0000
  C   C472      1.0  0.38943  0.87602  0.41170  1.0000
  H   H764      1.0  0.47663  0.81657  0.41142  1.0000
  H   H765      1.0  0.37680  0.86205  0.37089  1.0000
  H   H766      1.0  0.46863  0.70093  0.31888  1.0000
  H   H767      1.0  0.38726  0.84366  0.43205  1.0000
  C   C473      1.0  0.47926  0.74163  0.35596  1.0000
  H   H768      1.0  0.34888  0.85162  0.42566  1.0000
  C   C474      1.0  0.13388  0.59442  0.50008  1.0000
  H   H769      1.0  0.49572  0.56604  0.41852  1.0000
  C   C475      1.0  0.47525  0.69145  0.33426  1.0000
  H   H770      1.0  0.40141  0.84035  0.40424  1.0000
  H   H771      1.0  0.36534  0.84132  0.39028  1.0000
  H   H772      1.0  0.47802  0.55468  0.36952  1.0000
  H   H773      1.0  0.15967  0.65440  0.48590  1.0000
  S   S142      1.0  0.42336  0.89522  0.26724  1.0000
  C   C476      1.0  0.11303  0.61652  0.27590  1.0000
  C   C477      1.0  0.28888  0.65539  0.45802  1.0000
  H   H774      1.0  0.37175  0.93115  0.27734  1.0000
  H   H775      1.0  0.09921  0.62491  0.26642  1.0000
  C   C478      1.0  0.45828  0.72525  0.35518  1.0000
  C   C479      1.0  0.47732  0.55539  0.38854  1.0000
  H   H776      1.0  0.47153  0.67278  0.33090  1.0000
  H   H777      1.0  0.43252  0.98262  0.32567  1.0000
  H   H778      1.0  0.16583  0.59175  0.26791  1.0000
  C   C480      1.0  0.36360  0.92073  0.41118  1.0000
  C   C481      1.0  0.32315  0.87846  0.42062  1.0000
  H   H779      1.0  0.38247  0.86524  0.26711  1.0000
  N   N34       1.0  0.18871  0.65536  0.33173  1.0000
  C   C482      1.0  0.16288  0.65991  0.33222  1.0000
  C   C483      1.0  0.19680  0.66080  0.30760  1.0000
  C   C484      1.0  0.19996  0.67179  0.34865  1.0000
  C   C485      1.0  0.19308  0.63053  0.33862  1.0000
  C   C486      1.0  0.15113  0.65871  0.35605  1.0000
  C   C487      1.0  0.18574  0.64615  0.28818  1.0000
  C   C488      1.0  0.22659  0.67110  0.35024  1.0000
  C   C489      1.0  0.21614  0.61928  0.33061  1.0000
  H   H780      1.0  0.15873  0.67727  0.32493  1.0000
  H   H781      1.0  0.15348  0.64720  0.32118  1.0000
  H   H782      1.0  0.21575  0.65896  0.30566  1.0000
  H   H783      1.0  0.19331  0.67933  0.30350  1.0000
  H   H784      1.0  0.19480  0.68999  0.34476  1.0000
  H   H785      1.0  0.19398  0.66828  0.36655  1.0000
  H   H786      1.0  0.19217  0.62872  0.35772  1.0000
  H   H787      1.0  0.17904  0.61924  0.33184  1.0000
  H   H788      1.0  0.13201  0.65874  0.35364  1.0000
  C   C490      1.0  0.13273  0.60872  0.26421  1.0000
  H   H789      1.0  0.15537  0.67396  0.36695  1.0000
  H   H790      1.0  0.50026  0.87846  0.38045  1.0000
  H   H791      1.0  0.18724  0.62737  0.29155  1.0000
  H   H792      1.0  0.16726  0.65073  0.28534  1.0000
  H   H793      1.0  0.23284  0.65440  0.35730  1.0000
  H   H794      1.0  0.23232  0.68457  0.36274  1.0000
  H   H795      1.0  0.23521  0.67505  0.33369  1.0000
  H   H796      1.0  0.22341  0.60878  0.34494  1.0000
  H   H797      1.0  0.22999  0.63135  0.32559  1.0000
  H   H798      1.0  0.21296  0.60679  0.31634  1.0000
  H   H799      1.0  0.40823  0.67924  0.33885  1.0000
  H   H800      1.0  0.31719  0.88293  0.40310  1.0000
  H   H801      1.0  0.42970  0.69381  0.37203  1.0000
  H   H802      1.0  0.39176  0.88767  0.42686  1.0000
  H   H803      1.0  0.40153  0.88266  0.39832  1.0000
  C   C491      1.0  0.39867  0.85207  0.41924  1.0000
  C   C492      1.0  0.34878  0.87067  0.42271  1.0000
  H   H804      1.0  0.19481  0.64961  0.27167  1.0000
  S   S143      1.0  0.36706  0.65814  0.49216  1.0000
  H   H805      1.0  0.13184  0.54427  0.27863  1.0000
  C   C493      1.0  0.30938  0.63819  0.45784  1.0000
  C   C494      1.0  0.33982  0.85841  0.37022  1.0000
  H   H806      1.0  0.32544  0.85203  0.38107  1.0000
  H   H807      1.0  0.41592  0.85435  0.42747  1.0000
  C   C495      1.0  0.44004  0.68735  0.35719  1.0000
  H   H808      1.0  0.33538  0.87506  0.36188  1.0000
  H   H809      1.0  0.34314  0.90286  0.38609  1.0000
  H   H810      1.0  0.35535  0.87846  0.43909  1.0000
  H   H811      1.0  0.21425  0.63870  0.49178  1.0000
  C   C496      1.0  0.27824  0.59899  0.44561  1.0000
  H   H812      1.0  0.46156  0.56555  0.39312  1.0000
  H   H813      1.0  0.31965  0.89335  0.43233  1.0000
  H   H814      1.0  0.34469  0.61426  0.47541  1.0000
  C   C497      1.0  0.10106  0.53359  0.43945  1.0000
  N   N35       1.0  0.46308  0.69959  0.35593  1.0000
  C   C498      1.0  0.28594  0.60376  0.47077  1.0000
  H   H815      1.0  0.32173  0.64026  0.50112  1.0000
  H   H816      1.0  0.33390  0.60271  0.43420  1.0000
  C   C499      1.0  0.41511  0.99069  0.32398  1.0000
  H   H817      1.0  0.47843  0.69414  0.41444  1.0000
  H   H818      1.0  0.13252  0.51103  0.37215  1.0000
  H   H819      1.0  0.35173  0.96543  0.34210  1.0000
  H   H820      1.0  0.41803  0.70784  0.33350  1.0000
  H   H821      1.0  0.41182  0.00017  0.28869  1.0000
  H   H822      1.0  0.13015  0.52030  0.47566  1.0000
  H   H823      1.0  0.10719  0.53545  0.26224  1.0000
  H   H824      1.0  0.44887  0.72983  0.33907  1.0000
  C   C500      1.0  0.36059  0.90075  0.39366  1.0000
  H   H825      1.0  0.34174  0.84559  0.35596  1.0000
  H   H826      1.0  0.27331  0.58051  0.44370  1.0000
  H   H827      1.0  0.31988  0.57719  0.44604  1.0000
  H   H828      1.0  0.31178  0.86425  0.42669  1.0000
  N   N36       1.0  0.30751  0.61809  0.47428  1.0000
  S   S144      1.0  0.49868  0.84562  0.34165  1.0000
  H   H829      1.0  0.29143  0.60233  0.43235  1.0000
  H   H830      1.0  0.49440  0.70024  0.37715  1.0000
  H   H831      1.0  0.31179  0.63248  0.43983  1.0000
  H   H832      1.0  0.43213  0.68311  0.31987  1.0000
  H   H833      1.0  0.44595  0.73064  0.36893  1.0000
  C   C501      1.0  0.47684  0.69263  0.37697  1.0000
  H   H834      1.0  0.27193  0.64670  0.45603  1.0000
  C   C502      1.0  0.49857  0.56726  0.39953  1.0000
  N   N37       1.0  0.36471  0.87674  0.40302  1.0000
  H   H835      1.0  0.32536  0.64837  0.46158  1.0000
  H   H836      1.0  0.44261  0.66848  0.36022  1.0000
  H   H837      1.0  0.47365  0.75856  0.36330  1.0000
  H   H838      1.0  0.40234  0.97702  0.31964  1.0000
  H   H839      1.0  0.35720  0.93708  0.40331  1.0000
  H   H840      1.0  0.39731  0.94526  0.28683  1.0000
  H   H841      1.0  0.15555  0.64257  0.36526  1.0000
  C   C503      1.0  0.38099  0.94796  0.27694  1.0000
  H   H842      1.0  0.38621  0.00280  0.39630  1.0000
  H   H843      1.0  0.49915  0.81813  0.39058  1.0000
  H   H844      1.0  0.32944  0.58952  0.48536  1.0000
  C   C504      1.0  0.32910  0.60344  0.47221  1.0000
  C   C505      1.0  0.49582  0.63249  0.39755  1.0000
  H   H845      1.0  0.27088  0.61232  0.47930  1.0000
  H   H846      1.0  0.47996  0.67365  0.37665  1.0000
  H   H847      1.0  0.28792  0.58668  0.47942  1.0000
  C   C506      1.0  0.50193  0.69315  0.33381  1.0000
  H   H848      1.0  0.29115  0.63897  0.50095  1.0000
  H   H849      1.0  0.35008  0.58186  0.44975  1.0000
  C   C507      1.0  0.15249  0.63763  0.48996  1.0000
  H   H850      1.0  0.08386  0.53803  0.43204  1.0000
  H   H851      1.0  0.26236  0.60904  0.44137  1.0000
  H   H852      1.0  0.38660  0.61107  0.49185  1.0000
  C   C508      1.0  0.10618  0.50776  0.43483  1.0000
  H   H853      1.0  0.49711  0.58595  0.39539  1.0000
  H   H854      1.0  0.50117  0.74127  0.41484  1.0000
  H   H855      1.0  0.49687  0.78651  0.43366  1.0000
  C   C509      1.0  0.49560  0.81439  0.40897  1.0000
  H   H856      1.0  0.49135  0.77784  0.40507  1.0000
  H   H857      1.0  0.18572  0.51271  0.43255  1.0000
  H   H858      1.0  0.50229  0.63489  0.41493  1.0000
  H   H859      1.0  0.34653  0.97781  0.26142  1.0000
  H   H860      1.0  0.50416  0.82755  0.42005  1.0000
  H   H861      1.0  0.12264  0.56173  0.25510  1.0000
  C   C510      1.0  0.50257  0.78946  0.41558  1.0000
  H   H862      1.0  0.12650  0.57772  0.50406  1.0000
  Fe  Fe73      1.0  0.08478  0.87984  0.72721  1.0000
  S   S145      1.0  0.11748  0.86395  0.71359  1.0000
  H   H863      1.0  0.05144  0.74289  0.61413  1.0000
  Fe  Fe74      1.0  0.06003  0.87450  0.68010  1.0000
  S   S146      1.0  0.09199  0.85955  0.66341  1.0000
  S   S147      1.0  0.02919  0.88008  0.65613  1.0000
  Fe  Fe75      1.0  0.09451  0.83811  0.69550  1.0000
  S   S148      1.0  0.09834  0.79882  0.69718  1.0000
  Fe  Fe76      1.0  0.11159  0.88716  0.68296  1.0000
  S   S149      1.0  0.14180  0.90863  0.66945  1.0000
  S   S150      1.0  0.06182  0.85224  0.71170  1.0000
  S   S151      1.0  0.07952  0.90374  0.69705  1.0000
  Fe  Fe77      1.0  0.12353  0.69137  0.61012  1.0000
  S   S152      1.0  0.11604  0.66288  0.63567  1.0000
  S   S153      1.0  0.12372  0.73080  0.61379  1.0000
  Fe  Fe78      1.0  0.13052  0.65704  0.56967  1.0000
  S   S154      1.0  0.12286  0.62649  0.59199  1.0000
  S   S155      1.0  0.14314  0.65685  0.53234  1.0000
  Fe  Fe79      1.0  0.09390  0.64790  0.60730  1.0000
  S   S156      1.0  0.05835  0.63087  0.61008  1.0000
  Fe  Fe80      1.0  0.14573  0.64365  0.61845  1.0000
  S   S157      1.0  0.17071  0.61858  0.63625  1.0000
  S   S158      1.0  0.09978  0.67727  0.58262  1.0000
  S   S159      1.0  0.15495  0.67322  0.59535  1.0000
  Fe  Fe81      1.0  0.31097  0.59416  0.63358  1.0000
  S   S160      1.0  0.34476  0.61179  0.62523  1.0000
  S   S161      1.0  0.28123  0.62028  0.62957  1.0000
  Fe  Fe82      1.0  0.33624  0.54763  0.64177  1.0000
  S   S162      1.0  0.37098  0.56254  0.63363  1.0000
  C   C511      1.0  0.03583  0.79992  0.67802  1.0000
  Fe  Fe83      1.0  0.35940  0.59252  0.65572  1.0000
  S   S163      1.0  0.38441  0.61055  0.68036  1.0000
  Fe  Fe84      1.0  0.35306  0.58042  0.60397  1.0000
  S   S164      1.0  0.36827  0.57781  0.56763  1.0000
  S   S165      1.0  0.32528  0.57688  0.66557  1.0000
  S   S166      1.0  0.31869  0.56354  0.61063  1.0000
  C   C512      1.0  0.38313  0.60932  0.71094  1.0000
  C   C513      1.0  0.36529  0.59774  0.72234  1.0000
  C   C514      1.0  0.39943  0.62176  0.72407  1.0000
  H   H864      1.0  0.35286  0.58781  0.71249  1.0000
  H   H865      1.0  0.41329  0.63079  0.71541  1.0000
  C   C515      1.0  0.07904  0.57851  0.64374  1.0000
  C   C516      1.0  0.35937  0.63999  0.53526  1.0000
  C   C517      1.0  0.35921  0.62248  0.55216  1.0000
  C   C518      1.0  0.36880  0.60074  0.54729  1.0000
  C   C519      1.0  0.37867  0.59679  0.52544  1.0000
  C   C520      1.0  0.01175  0.70525  0.66676  1.0000
  H   H866      1.0  0.04576  0.59138  0.65827  1.0000
  H   H867      1.0  0.35160  0.62579  0.56890  1.0000
  H   H868      1.0  0.38623  0.58008  0.52153  1.0000
  H   H869      1.0  0.04319  0.57096  0.63555  1.0000
  H   H870      1.0  0.28790  0.68209  0.66766  1.0000
  H   H871      1.0  0.26440  0.67598  0.68614  1.0000
  H   H872      1.0  0.06235  0.58157  0.69570  1.0000
  H   H873      1.0  0.15263  0.94004  0.71456  1.0000
  C   C521      1.0  0.33916  0.66344  0.66675  1.0000
  C   C522      1.0  0.03714  0.63269  0.63214  1.0000
  C   C523      1.0  0.01623  0.62057  0.62924  1.0000
  H   H874      1.0  0.31196  0.63837  0.66502  1.0000
  N   N38       1.0  0.31557  0.64824  0.70128  1.0000
  C   C524      1.0  0.04093  0.64483  0.65274  1.0000
  C   C525      1.0  0.14257  0.63396  0.51180  1.0000
  C   C526      1.0  0.22186  0.63892  0.50943  1.0000
  H   H875      1.0  0.05680  0.65445  0.65513  1.0000
  C   C527      1.0  0.20145  0.61930  0.63444  1.0000
  C   C528      1.0  0.21436  0.59954  0.64063  1.0000
  C   C529      1.0  0.23880  0.59941  0.63931  1.0000
  C   C530      1.0  0.25058  0.61923  0.63212  1.0000
  C   C531      1.0  0.23766  0.63907  0.62626  1.0000
  C   C532      1.0  0.21327  0.63908  0.62722  1.0000
  H   H876      1.0  0.20542  0.58418  0.64635  1.0000
  H   H877      1.0  0.24848  0.58403  0.64392  1.0000
  H   H878      1.0  0.24661  0.65454  0.62081  1.0000
  H   H879      1.0  0.20361  0.65449  0.62266  1.0000
  C   C533      1.0  0.30534  0.62625  0.71079  1.0000
  C   C534      1.0  0.30719  0.61081  0.51854  1.0000
  C   C535      1.0  0.10539  0.78019  0.67378  1.0000
  C   C536      1.0  0.11257  0.78878  0.65244  1.0000
  C   C537      1.0  0.11801  0.77336  0.63430  1.0000
  C   C538      1.0  0.11634  0.74924  0.63725  1.0000
  C   C539      1.0  0.10889  0.74067  0.65851  1.0000
  C   C540      1.0  0.10351  0.75609  0.67668  1.0000
  H   H880      1.0  0.11422  0.80725  0.64999  1.0000
  H   H881      1.0  0.12381  0.78015  0.61793  1.0000
  H   H882      1.0  0.10755  0.72218  0.66102  1.0000
  H   H883      1.0  0.09799  0.74930  0.69315  1.0000
  C   C541      1.0  0.14120  0.93939  0.66916  1.0000
  C   C542      1.0  0.16039  0.95172  0.66077  1.0000
  C   C543      1.0  0.16109  0.97615  0.66203  1.0000
  C   C544      1.0  0.14269  0.98840  0.67202  1.0000
  C   C545      1.0  0.12352  0.97603  0.68027  1.0000
  C   C546      1.0  0.12263  0.95176  0.67860  1.0000
  H   H884      1.0  0.17487  0.94233  0.65344  1.0000
  H   H885      1.0  0.17602  0.98543  0.65570  1.0000
  H   H886      1.0  0.10921  0.98524  0.68799  1.0000
  H   H887      1.0  0.10774  0.94262  0.68503  1.0000
  H   H888      1.0  0.10888  0.61348  0.70113  1.0000
  C   C547      1.0  0.33566  0.65505  0.71665  1.0000
  C   C548      1.0  0.19666  0.92837  0.71369  1.0000
  H   H889      1.0  0.35019  0.64253  0.71484  1.0000
  H   H890      1.0  0.34299  0.67202  0.71135  1.0000
  H   H891      1.0  0.12100  0.62963  0.67733  1.0000
  H   H892      1.0  0.31894  0.61259  0.71203  1.0000
  H   H893      1.0  0.11513  0.95431  0.73084  1.0000
  H   H894      1.0  0.19180  0.88097  0.73922  1.0000
  H   H895      1.0  0.09613  0.64028  0.69211  1.0000
  C   C549      1.0  0.08836  0.61171  0.66880  1.0000
  C   C550      1.0  0.05361  0.57544  0.65107  1.0000
  H   H896      1.0  0.27790  0.65274  0.67128  1.0000
  H   H897      1.0  0.14748  0.57048  0.63480  1.0000
  C   C551      1.0  0.09751  0.57117  0.68191  1.0000
  H   H898      1.0  0.36018  0.51202  0.60818  1.0000
  H   H899      1.0  0.05169  0.56087  0.66331  1.0000
  C   C552      1.0  0.04976  0.77472  0.63444  1.0000
  H   H900      1.0  0.35802  0.53332  0.58652  1.0000
  H   H901      1.0  0.12005  0.56368  0.62260  1.0000
  H   H902      1.0  0.32258  0.52141  0.57396  1.0000
  H   H903      1.0  0.01423  0.80346  0.60824  1.0000
  C   C553      1.0  0.01655  0.80228  0.62730  1.0000
  H   H904      1.0  0.08576  0.58227  0.71635  1.0000
  H   H905      1.0  0.13247  0.59518  0.66339  1.0000
  H   H906      1.0  0.07091  0.61220  0.67660  1.0000
  H   H907      1.0  0.08680  0.62289  0.65325  1.0000
  H   H908      1.0  0.32861  0.63998  0.75084  1.0000
  H   H909      1.0  0.26905  0.62677  0.69903  1.0000
  C   C554      1.0  0.05185  0.83817  0.61324  1.0000
  C   C555      1.0  0.29797  0.66766  0.70137  1.0000
  H   H910      1.0  0.11899  0.60338  0.63714  1.0000
  N   N39       1.0  0.09562  0.58758  0.66177  1.0000
  H   H911      1.0  0.42195  0.53443  0.59518  1.0000
  H   H912      1.0  0.38259  0.51256  0.64825  1.0000
  H   H913      1.0  0.39721  0.52575  0.61126  1.0000
  C   C556      1.0  0.32542  0.64341  0.67764  1.0000
  H   H914      1.0  0.33725  0.62816  0.67826  1.0000
  H   H915      1.0  0.35177  0.65670  0.53916  1.0000
  N   N40       1.0  0.21196  0.62620  0.55106  1.0000
  C   C557      1.0  0.22850  0.60595  0.55188  1.0000
  S   S167      1.0  0.33191  0.50934  0.65071  1.0000
  C   C558      1.0  0.19110  0.62218  0.56613  1.0000
  C   C559      1.0  0.22429  0.64748  0.55971  1.0000
  C   C560      1.0  0.23742  0.59908  0.57603  1.0000
  H   H916      1.0  0.04006  0.78132  0.67994  1.0000
  C   C561      1.0  0.17824  0.59917  0.56206  1.0000
  C   C562      1.0  0.21012  0.67027  0.55936  1.0000
  H   H917      1.0  0.22065  0.59029  0.54382  1.0000
  H   H918      1.0  0.24421  0.60954  0.54145  1.0000
  H   H919      1.0  0.18905  0.94321  0.70419  1.0000
  H   H920      1.0  0.20262  0.91692  0.74825  1.0000
  H   H921      1.0  0.19573  0.62315  0.58473  1.0000
  H   H922      1.0  0.17808  0.63623  0.56375  1.0000
  H   H923      1.0  0.22974  0.64515  0.57797  1.0000
  H   H924      1.0  0.24094  0.65021  0.55047  1.0000
  H   H925      1.0  0.24935  0.61231  0.58319  1.0000
  H   H926      1.0  0.22327  0.59575  0.58845  1.0000
  H   H927      1.0  0.24763  0.58281  0.57461  1.0000
  H   H928      1.0  0.19156  0.91193  0.70517  1.0000
  H   H929      1.0  0.06612  0.76656  0.60119  1.0000
  N   N41       1.0  0.04185  0.79964  0.63363  1.0000
  H   H930      1.0  0.17214  0.59739  0.54401  1.0000
  H   H931      1.0  0.16267  0.59880  0.57325  1.0000
  H   H932      1.0  0.18895  0.58398  0.56689  1.0000
  H   H933      1.0  0.20371  0.67446  0.57696  1.0000
  H   H934      1.0  0.19496  0.67000  0.54767  1.0000
  H   H935      1.0  0.34175  0.65981  0.64809  1.0000
  H   H936      1.0  0.03324  0.84240  0.61095  1.0000
  H   H937      1.0  0.05876  0.84803  0.62812  1.0000
  H   H938      1.0  0.00817  0.84877  0.68961  1.0000
  H   H939      1.0  0.11712  0.92364  0.72809  1.0000
  H   H940      1.0  0.15768  0.89933  0.71813  1.0000
  H   H941      1.0  0.28034  0.59882  0.70535  1.0000
  H   H942      1.0  0.14068  0.89591  0.74324  1.0000
  H   H943      1.0  0.07413  0.55556  0.70691  1.0000
  C   C563      1.0  0.05632  0.81191  0.61577  1.0000
  C   C564      1.0  0.12898  0.56753  0.63915  1.0000
  H   H944      1.0  0.02762  0.65305  0.68662  1.0000
  C   C565      1.0  0.28146  0.66923  0.68029  1.0000
  C   C566      1.0  0.37893  0.61434  0.50858  1.0000
  H   H945      1.0  0.12832  0.55234  0.65073  1.0000
  H   H946      1.0  0.29879  0.62894  0.72862  1.0000
  C   C567      1.0  0.28475  0.61576  0.69751  1.0000
  H   H947      1.0  0.16669  0.86330  0.73744  1.0000
  H   H948      1.0  0.35670  0.66478  0.67457  1.0000
  C   C568      1.0  0.15047  0.94116  0.73353  1.0000
  H   H949      1.0  0.22126  0.68474  0.55353  1.0000
  H   H950      1.0  0.01411  0.72430  0.66611  1.0000
  H   H951      1.0  0.37791  0.52864  0.53153  1.0000
  H   H952      1.0  0.04296  0.80851  0.69365  1.0000
  H   H953      1.0  0.06598  0.81138  0.65974  1.0000
  H   H954      1.0  0.06753  0.77354  0.64182  1.0000
  H   H955      1.0  0.04122  0.82933  0.65679  1.0000
  H   H956      1.0  0.23797  0.62849  0.50885  1.0000
  C   C569      1.0  0.10471  0.62418  0.68586  1.0000
  H   H957      1.0  0.07517  0.80946  0.61939  1.0000
  H   H958      1.0  0.29335  0.59765  0.51701  1.0000
  H   H959      1.0  0.39252  0.53378  0.56744  1.0000
  C   C570      1.0  0.11916  0.58965  0.65059  1.0000
  H   H960      1.0  0.35048  0.53198  0.54601  1.0000
  H   H961      1.0  0.11443  0.57365  0.69088  1.0000
  H   H962      1.0  0.30697  0.68468  0.70215  1.0000
  H   H963      1.0  0.05329  0.80451  0.59827  1.0000
  C   C571      1.0  0.19044  0.92902  0.73962  1.0000
  C   C572      1.0  0.39763  0.62312  0.74832  1.0000
  N   N42       1.0  0.16561  0.92362  0.74560  1.0000
  C   C573      1.0  0.40915  0.52029  0.59738  1.0000
  H   H964      1.0  0.33003  0.68027  0.66825  1.0000
  H   H965      1.0  0.28871  0.61218  0.67918  1.0000
  C   C574      1.0  0.02432  0.64407  0.67053  1.0000
  C   C575      1.0  0.20393  0.62907  0.52643  1.0000
  C   C576      1.0  0.13333  0.61221  0.51683  1.0000
  C   C577      1.0  0.12416  0.93876  0.73766  1.0000
  C   C578      1.0  0.15852  0.89992  0.73733  1.0000
  H   H966      1.0  0.00955  0.81895  0.63410  1.0000
  C   C579      1.0  0.07875  0.57320  0.70092  1.0000
  H   H967      1.0  0.18848  0.64042  0.52538  1.0000
  C   C580      1.0  0.36911  0.63602  0.51335  1.0000
  H   H968      1.0  0.03476  0.76539  0.60044  1.0000
  H   H969      1.0  0.31501  0.66808  0.74620  1.0000
  H   H970      1.0  0.08447  0.56111  0.63749  1.0000
  H   H971      1.0  0.19797  0.61227  0.51908  1.0000
  H   H972      1.0  0.12565  0.60916  0.53355  1.0000
  H   H973      1.0  0.22596  0.65725  0.51346  1.0000
  H   H974      1.0  0.06114  0.84460  0.59779  1.0000
  H   H975      1.0  0.28710  0.66684  0.71720  1.0000
  H   H976      1.0  0.07919  0.58993  0.62828  1.0000
  H   H977      1.0  0.09761  0.55290  0.67567  1.0000
  H   H978      1.0  0.30428  0.62039  0.53496  1.0000
  C   C581      1.0  0.04694  0.81094  0.65661  1.0000
  C   C582      1.0  0.05034  0.76185  0.61107  1.0000
  H   H979      1.0  0.03896  0.76426  0.64623  1.0000
  H   H980      1.0  0.21574  0.92990  0.71182  1.0000
  C   C583      1.0  0.33050  0.65725  0.74269  1.0000
  H   H981      1.0  0.32429  0.60222  0.52044  1.0000
  C   C584      1.0  0.17366  0.87947  0.74521  1.0000
  C   C585      1.0  0.35672  0.51436  0.58947  1.0000
  H   H982      1.0  0.15561  0.95913  0.73838  1.0000
  H   H983      1.0  0.19508  0.94659  0.74616  1.0000
  H   H984      1.0  0.34554  0.66553  0.75141  1.0000
  H   H985      1.0  0.02446  0.69858  0.67956  1.0000
  C   C586      1.0  0.36176  0.51961  0.53659  1.0000
  H   H986      1.0  0.32147  0.50894  0.60163  1.0000
  H   H987      1.0  0.01312  0.61115  0.61336  1.0000
  C   C587      1.0  0.36312  0.59962  0.74650  1.0000
  H   H988      1.0  0.01637  0.69747  0.64994  1.0000
  C   C588      1.0  0.39642  0.51621  0.57428  1.0000
  H   H989      1.0  0.01691  0.80303  0.67846  1.0000
  H   H990      1.0  0.40926  0.50847  0.56212  1.0000
  H   H991      1.0  0.35271  0.51473  0.52036  1.0000
  H   H992      1.0  0.06965  0.00025  0.68607  1.0000
  C   C589      1.0  0.33099  0.50815  0.58501  1.0000
  Fe  Fe85      1.0  0.16268  0.89862  0.87441  1.0000
  S   S168      1.0  0.19416  0.92129  0.87588  1.0000
  S   S169      1.0  0.15588  0.87649  0.84268  1.0000
  Fe  Fe86      1.0  0.15007  0.90907  0.92468  1.0000
  S   S170      1.0  0.18000  0.93337  0.92942  1.0000
  S   S171      1.0  0.12517  0.90308  0.95436  1.0000
  Fe  Fe87      1.0  0.17035  0.94662  0.89409  1.0000
  S   S172      1.0  0.17133  0.98370  0.88086  1.0000
  Fe  Fe88      1.0  0.20097  0.90603  0.91094  1.0000
  S   S173      1.0  0.23177  0.88909  0.92903  1.0000
  S   S174      1.0  0.13856  0.92446  0.89070  1.0000
  S   S175      1.0  0.17121  0.88119  0.90803  1.0000
  Fe  Fe89      1.0  0.41401  0.84239  0.93183  1.0000
  S   S176      1.0  0.40357  0.80902  0.94891  1.0000
  S   S177      1.0  0.45279  0.84919  0.92962  1.0000
  Fe  Fe90      1.0  0.36320  0.85614  0.92249  1.0000
  S   S178      1.0  0.34979  0.82369  0.93833  1.0000
  S   S179      1.0  0.33910  0.88222  0.90546  1.0000
  Fe  Fe91      1.0  0.37603  0.83086  0.96631  1.0000
  C   C590      1.0  0.33121  0.89150  0.98120  1.0000
  Fe  Fe92      1.0  0.37850  0.80524  0.91935  1.0000
  S   S180      1.0  0.37389  0.77721  0.89187  1.0000
  S   S181      1.0  0.38810  0.86445  0.95131  1.0000
  S   S182      1.0  0.39039  0.83767  0.90162  1.0000
  Fe  Fe93      1.0  0.41602  0.59401  0.85987  1.0000
  S   S183      1.0  0.43177  0.60126  0.82526  1.0000
  S   S184      1.0  0.41850  0.55839  0.87645  1.0000
  Fe  Fe94      1.0  0.40210  0.64522  0.86733  1.0000
  S   S185      1.0  0.41591  0.65592  0.83277  1.0000
  S   S186      1.0  0.38753  0.66775  0.89631  1.0000
  Fe  Fe95      1.0  0.39991  0.62291  0.81882  1.0000
  S   S187      1.0  0.37405  0.61638  0.78957  1.0000
  Fe  Fe96      1.0  0.44658  0.63333  0.84218  1.0000
  S   S188      1.0  0.48355  0.64622  0.83737  1.0000
  S   S189      1.0  0.38356  0.61404  0.85301  1.0000
  S   S190      1.0  0.43340  0.62422  0.87721  1.0000
  H   H993      1.0  0.41000  0.63318  0.75815  1.0000
  C   C591      1.0  0.45620  0.73578  0.88059  1.0000
  C   C592      1.0  0.38018  0.74718  0.89386  1.0000
  C   C593      1.0  0.38048  0.73555  0.91498  1.0000
  C   C594      1.0  0.38317  0.71126  0.91550  1.0000
  C   C595      1.0  0.38616  0.69845  0.89500  1.0000
  C   C596      1.0  0.38674  0.71022  0.87396  1.0000
  C   C597      1.0  0.38348  0.73442  0.87340  1.0000
  H   H994      1.0  0.37780  0.74512  0.93084  1.0000
  H   H995      1.0  0.38264  0.70232  0.93185  1.0000
  H   H996      1.0  0.38890  0.70059  0.85806  1.0000
  H   H997      1.0  0.38318  0.74322  0.85697  1.0000
  C   C598      1.0  0.37479  0.54335  0.86363  1.0000
  C   C599      1.0  0.39552  0.53817  0.87502  1.0000
  C   C600      1.0  0.46793  0.92681  0.90496  1.0000
  H   H998      1.0  0.37301  0.55949  0.85438  1.0000
  H   H999      1.0  0.22487  0.86378  0.97922  1.0000
  C   C601      1.0  0.39755  0.51703  0.88684  1.0000
  H   H1000     1.0  0.28083  0.80121  0.86282  1.0000
  H   H1001     1.0  0.45062  0.72184  0.86853  1.0000
  H   H1002     1.0  0.13048  0.98647  0.91086  1.0000
  C   C602      1.0  0.16160  0.92614  0.77135  1.0000
  C   C603      1.0  0.26093  0.88616  0.92020  1.0000
  C   C604      1.0  0.27475  0.86939  0.93111  1.0000
  C   C605      1.0  0.29862  0.86779  0.92654  1.0000
  C   C606      1.0  0.30894  0.88303  0.91098  1.0000
  C   C607      1.0  0.29500  0.89939  0.89956  1.0000
  C   C608      1.0  0.27106  0.90095  0.90410  1.0000
  H   H1003     1.0  0.26696  0.85775  0.94341  1.0000
  H   H1004     1.0  0.30904  0.85500  0.93533  1.0000
  H   H1005     1.0  0.30283  0.91121  0.88743  1.0000
  H   H1006     1.0  0.26061  0.91403  0.89567  1.0000
  H   H1007     1.0  0.49428  0.91540  0.85548  1.0000
  C   C609      1.0  0.11828  0.97068  0.84058  1.0000
  C   C610      1.0  0.28219  0.90931  0.97472  1.0000
  N   N43       1.0  0.10573  0.99025  0.82838  1.0000
  H   H1008     1.0  0.46438  0.80045  0.90690  1.0000
  C   C611      1.0  0.47001  0.86006  0.86238  1.0000
  C   C612      1.0  0.45701  0.85620  0.88253  1.0000
  C   C613      1.0  0.46828  0.85215  0.90351  1.0000
  C   C614      1.0  0.49262  0.85125  0.90401  1.0000
  H   H1009     1.0  0.35470  0.84627  0.86769  1.0000
  H   H1010     1.0  0.43829  0.85696  0.88194  1.0000
  C   C615      1.0  0.49126  0.58638  0.80814  1.0000
  H   H1011     1.0  0.45830  0.91682  0.91820  1.0000
  C   C616      1.0  0.10357  0.89139  0.78468  1.0000
  C   C617      1.0  0.10371  0.90522  0.80472  1.0000
  C   C618      1.0  0.12004  0.90133  0.82240  1.0000
  C   C619      1.0  0.13607  0.88322  0.82035  1.0000
  C   C620      1.0  0.13583  0.86934  0.80039  1.0000
  C   C621      1.0  0.11975  0.87345  0.78258  1.0000
  H   H1012     1.0  0.09091  0.91880  0.80666  1.0000
  H   H1013     1.0  0.11980  0.91182  0.83789  1.0000
  H   H1014     1.0  0.14799  0.85513  0.79879  1.0000
  H   H1015     1.0  0.32793  0.77239  0.86588  1.0000
  C   C622      1.0  0.19985  0.89205  0.98391  1.0000
  C   C623      1.0  0.12971  0.88150  0.97555  1.0000
  C   C624      1.0  0.14512  0.86310  0.97196  1.0000
  H   H1016     1.0  0.10920  0.95451  0.79295  1.0000
  H   H1017     1.0  0.15473  0.86191  0.95602  1.0000
  N   N44       1.0  0.09591  0.85360  0.90431  1.0000
  C   C625      1.0  0.10702  0.85644  0.88088  1.0000
  C   C626      1.0  0.11513  0.84899  0.92136  1.0000
  C   C627      1.0  0.08438  0.87630  0.91037  1.0000
  C   C628      1.0  0.07849  0.83416  0.90301  1.0000
  C   C629      1.0  0.09064  0.86331  0.86092  1.0000
  C   C630      1.0  0.13050  0.82770  0.91614  1.0000
  C   C631      1.0  0.07180  0.87757  0.93375  1.0000
  C   C632      1.0  0.07246  0.82178  0.92589  1.0000
  H   H1018     1.0  0.12109  0.86963  0.88160  1.0000
  H   H1019     1.0  0.11557  0.84009  0.87519  1.0000
  H   H1020     1.0  0.10869  0.84698  0.93920  1.0000
  H   H1021     1.0  0.12679  0.86422  0.92241  1.0000
  H   H1022     1.0  0.09732  0.89061  0.91014  1.0000
  H   H1023     1.0  0.07099  0.88096  0.89738  1.0000
  H   H1024     1.0  0.06195  0.84045  0.89531  1.0000
  H   H1025     1.0  0.08497  0.82030  0.89120  1.0000
  H   H1026     1.0  0.09969  0.86037  0.84426  1.0000
  C   C633      1.0  0.11731  0.88267  0.99637  1.0000
  H   H1027     1.0  0.08620  0.88201  0.86163  1.0000
  H   H1028     1.0  0.14295  0.83143  0.90206  1.0000
  H   H1029     1.0  0.14099  0.82352  0.93169  1.0000
  H   H1030     1.0  0.12024  0.81216  0.91162  1.0000
  H   H1031     1.0  0.05607  0.86661  0.93378  1.0000
  H   H1032     1.0  0.06588  0.89567  0.93666  1.0000
  H   H1033     1.0  0.08316  0.87329  0.94856  1.0000
  H   H1034     1.0  0.05402  0.81633  0.92526  1.0000
  H   H1035     1.0  0.07442  0.83229  0.94172  1.0000
  H   H1036     1.0  0.08254  0.80546  0.92763  1.0000
  N   N45       1.0  0.36159  0.59071  0.92207  1.0000
  C   C634      1.0  0.36723  0.56553  0.92651  1.0000
  C   C635      1.0  0.38410  0.60247  0.91612  1.0000
  C   C636      1.0  0.34561  0.59177  0.90146  1.0000
  C   C637      1.0  0.35013  0.60076  0.94329  1.0000
  C   C638      1.0  0.34644  0.54905  0.92943  1.0000
  C   C639      1.0  0.40329  0.60095  0.93461  1.0000
  C   C640      1.0  0.33727  0.61597  0.89398  1.0000
  C   C641      1.0  0.35159  0.62737  0.94666  1.0000
  H   H1037     1.0  0.37803  0.55831  0.91237  1.0000
  H   H1038     1.0  0.37790  0.56359  0.94240  1.0000
  H   H1039     1.0  0.38175  0.62099  0.91208  1.0000
  H   H1040     1.0  0.39141  0.59492  0.89999  1.0000
  H   H1041     1.0  0.35394  0.58338  0.88623  1.0000
  H   H1042     1.0  0.32941  0.58196  0.90464  1.0000
  H   H1043     1.0  0.33150  0.59584  0.94376  1.0000
  H   H1044     1.0  0.35800  0.59314  0.95913  1.0000
  H   H1045     1.0  0.33347  0.55582  0.94182  1.0000
  H   H1046     1.0  0.11961  0.93710  0.75610  1.0000
  H   H1047     1.0  0.35280  0.53217  0.93612  1.0000
  H   H1048     1.0  0.39691  0.60532  0.95210  1.0000
  H   H1049     1.0  0.41139  0.58348  0.93469  1.0000
  H   H1050     1.0  0.41721  0.61344  0.93028  1.0000
  H   H1051     1.0  0.32518  0.62357  0.90681  1.0000
  H   H1052     1.0  0.32741  0.61426  0.87757  1.0000
  C   C642      1.0  0.49186  0.91536  0.90137  1.0000
  H   H1053     1.0  0.33519  0.63365  0.95453  1.0000
  H   H1054     1.0  0.35406  0.63761  0.93080  1.0000
  H   H1055     1.0  0.36540  0.63188  0.95925  1.0000
  H   H1056     1.0  0.42534  0.77767  0.87818  1.0000
  H   H1057     1.0  0.35299  0.84246  0.83662  1.0000
  H   H1058     1.0  0.07465  0.85279  0.86035  1.0000
  H   H1059     1.0  0.34403  0.80611  0.84680  1.0000
  C   C643      1.0  0.35612  0.52775  0.86447  1.0000
  H   H1060     1.0  0.48385  0.62517  0.88322  1.0000
  C   C644      1.0  0.49854  0.93242  0.86367  1.0000
  H   H1061     1.0  0.45197  0.76202  0.85441  1.0000
  H   H1062     1.0  0.25392  0.83063  0.87312  1.0000
  H   H1063     1.0  0.33808  0.54515  0.91258  1.0000
  H   H1064     1.0  0.46116  0.86371  0.84631  1.0000
  H   H1065     1.0  0.44068  0.74076  0.89075  1.0000
  H   H1066     1.0  0.14772  0.94698  0.84010  1.0000
  H   H1067     1.0  0.31852  0.83411  0.89617  1.0000
  H   H1068     1.0  0.28167  0.82188  0.84089  1.0000
  C   C645      1.0  0.31026  0.79813  0.90023  1.0000
  H   H1069     1.0  0.31105  0.84933  0.83681  1.0000
  C   C646      1.0  0.27249  0.83546  0.87441  1.0000
  H   H1070     1.0  0.45467  0.77190  0.91142  1.0000
  C   C647      1.0  0.14808  0.84609  0.98906  1.0000
  H   H1071     1.0  0.48456  0.59831  0.84274  1.0000
  C   C648      1.0  0.08862  0.98102  0.81095  1.0000
  H   H1072     1.0  0.06740  0.00163  0.87419  1.0000
  H   H1073     1.0  0.17295  0.87714  0.76412  1.0000
  H   H1074     1.0  0.32115  0.88335  0.96705  1.0000
  C   C649      1.0  0.47355  0.53185  0.86133  1.0000
  H   H1075     1.0  0.06145  0.98169  0.85133  1.0000
  H   H1076     1.0  0.42236  0.79632  0.90239  1.0000
  H   H1077     1.0  0.47508  0.53473  0.88022  1.0000
  H   H1078     1.0  0.21252  0.90227  0.97381  1.0000
  C   C650      1.0  0.09878  0.97002  0.78897  1.0000
  H   H1079     1.0  0.10695  0.95521  0.84220  1.0000
  H   H1080     1.0  0.49711  0.58081  0.87962  1.0000
  H   H1081     1.0  0.35266  0.90591  0.95412  1.0000
  H   H1082     1.0  0.08430  0.96401  0.77779  1.0000
  H   H1083     1.0  0.34004  0.53205  0.85584  1.0000
  H   H1084     1.0  0.35161  0.62811  0.89048  1.0000
  H   H1085     1.0  0.26967  0.92374  0.97218  1.0000
  C   C651      1.0  0.49951  0.79027  0.84560  1.0000
  H   H1086     1.0  0.17566  0.92023  0.80576  1.0000
  H   H1087     1.0  0.11962  0.86247  0.76741  1.0000
  H   H1088     1.0  0.46922  0.94489  0.91130  1.0000
  N   N46       1.0  0.50033  0.56458  0.84608  1.0000
  H   H1089     1.0  0.29241  0.90811  0.95859  1.0000
  C   C652      1.0  0.31900  0.84540  0.85391  1.0000
  C   C653      1.0  0.46585  0.75619  0.86645  1.0000
  H   H1090     1.0  0.19552  0.93422  0.78680  1.0000
  N   N47       1.0  0.31292  0.82116  0.86158  1.0000
  H   H1091     1.0  0.50023  0.96426  0.89535  1.0000
  H   H1092     1.0  0.46411  0.56744  0.85595  1.0000
  C   C654      1.0  0.32487  0.80437  0.84547  1.0000
  H   H1093     1.0  0.15990  0.83181  0.98610  1.0000
  H   H1094     1.0  0.49142  0.78334  0.82960  1.0000
  C   C655      1.0  0.49792  0.58752  0.83393  1.0000
  C   C656      1.0  0.47615  0.55468  0.84778  1.0000
  H   H1095     1.0  0.07740  0.96757  0.81884  1.0000
  C   C657      1.0  0.18206  0.92057  0.78767  1.0000
  C   C658      1.0  0.37920  0.61239  0.75963  1.0000
  H   H1096     1.0  0.35817  0.91852  0.98166  1.0000
  H   H1097     1.0  0.15656  0.94423  0.77584  1.0000
  H   H1098     1.0  0.18260  0.89587  0.97606  1.0000
  H   H1099     1.0  0.47398  0.57864  0.80524  1.0000
  H   H1100     1.0  0.48192  0.94205  0.86498  1.0000
  H   H1101     1.0  0.30187  0.77368  0.84803  1.0000
  C   C659      1.0  0.28699  0.81890  0.85915  1.0000
  H   H1102     1.0  0.14675  0.91534  0.77698  1.0000
  S   S191      1.0  0.08307  0.89720  0.76269  1.0000
  C   C660      1.0  0.48090  0.79558  0.86403  1.0000
  H   H1103     1.0  0.27737  0.83440  0.89287  1.0000
  H   H1104     1.0  0.32422  0.78756  0.90826  1.0000
  C   C661      1.0  0.32129  0.81794  0.88604  1.0000
  H   H1105     1.0  0.33236  0.92630  0.96527  1.0000
  H   H1106     1.0  0.19674  0.85398  0.98926  1.0000
  C   C662      1.0  0.49435  0.85973  0.86296  1.0000
  C   C663      1.0  0.35806  0.50668  0.87640  1.0000
  H   H1107     1.0  0.20069  0.86287  0.96027  1.0000
  C   C664      1.0  0.34504  0.85096  0.85189  1.0000
  H   H1108     1.0  0.48858  0.89816  0.89346  1.0000
  H   H1109     1.0  0.31624  0.84725  0.98783  1.0000
  H   H1110     1.0  0.29997  0.80540  0.91476  1.0000
  C   C665      1.0  0.34416  0.91201  0.97025  1.0000
  H   H1111     1.0  0.32023  0.80831  0.82722  1.0000
  H   H1112     1.0  0.31186  0.85854  0.86609  1.0000
  C   C666      1.0  0.32039  0.77840  0.84933  1.0000
  H   H1113     1.0  0.27373  0.85369  0.86860  1.0000
  H   H1114     1.0  0.32953  0.76841  0.83565  1.0000
  H   H1115     1.0  0.29931  0.78589  0.89052  1.0000
  H   H1116     1.0  0.34716  0.86993  0.84959  1.0000
  H   H1117     1.0  0.34038  0.81521  0.88631  1.0000
  H   H1118     1.0  0.49141  0.75686  0.90811  1.0000
  H   H1119     1.0  0.14065  0.95754  0.81209  1.0000
  C   C667      1.0  0.45774  0.78490  0.89764  1.0000
  H   H1120     1.0  0.15525  0.97582  0.83272  1.0000
  H   H1121     1.0  0.28941  0.86086  0.97953  1.0000
  N   N48       1.0  0.47525  0.77619  0.88035  1.0000
  H   H1122     1.0  0.07654  0.99496  0.80527  1.0000
  C   C668      1.0  0.14165  0.96245  0.83043  1.0000
  C   C669      1.0  0.43392  0.79189  0.88777  1.0000
  H   H1123     1.0  0.45722  0.92604  0.88905  1.0000
  H   H1124     1.0  0.46882  0.55115  0.83038  1.0000
  H   H1125     1.0  0.08475  0.97622  0.87174  1.0000
  H   H1126     1.0  0.27175  0.89353  0.97719  1.0000
  C   C670      1.0  0.49643  0.76817  0.89344  1.0000
  H   H1127     1.0  0.10519  0.89673  0.99922  1.0000
  H   H1128     1.0  0.34679  0.51951  0.78720  1.0000
  C   C671      1.0  0.20587  0.86664  0.97837  1.0000
  C   C672      1.0  0.50503  0.64393  0.85926  1.0000
  H   H1129     1.0  0.34882  0.59125  0.75510  1.0000
  C   C673      1.0  0.07563  0.98966  0.86152  1.0000
  H   H1130     1.0  0.50390  0.94594  0.82926  1.0000
  C   C674      1.0  0.29747  0.91471  0.99583  1.0000
  H   H1131     1.0  0.47955  0.74886  0.85502  1.0000
  H   H1132     1.0  0.43496  0.80757  0.87686  1.0000
  H   H1133     1.0  0.48577  0.51821  0.85558  1.0000
  H   H1134     1.0  0.46950  0.72816  0.89213  1.0000
  H   H1135     1.0  0.46524  0.80097  0.85419  1.0000
  C   C675      1.0  0.09225  0.00379  0.84624  1.0000
  N   N49       1.0  0.31603  0.89721  0.00165  1.0000
  H   H1136     1.0  0.10893  0.98250  0.77866  1.0000
  H   H1137     1.0  0.30526  0.93204  0.99281  1.0000
  C   C676      1.0  0.21000  0.94101  0.99646  1.0000
  H   H1138     1.0  0.19016  0.90356  0.78426  1.0000
  H   H1139     1.0  0.13357  0.99780  0.80429  1.0000
  H   H1140     1.0  0.48583  0.81158  0.87348  1.0000
  C   C677      1.0  0.13201  0.00255  0.90149  1.0000
  H   H1141     1.0  0.12268  0.97570  0.85866  1.0000
  H   H1142     1.0  0.49867  0.91187  0.91900  1.0000
  H   H1143     1.0  0.34452  0.87836  0.98616  1.0000
  H   H1144     1.0  0.45578  0.52503  0.85845  1.0000
  H   H1145     1.0  0.50146  0.84801  0.92016  1.0000
  C   C678      1.0  0.30007  0.85542  0.99435  1.0000
  H   H1146     1.0  0.20669  0.93992  0.97760  1.0000
  H   H1147     1.0  0.20612  0.95918  0.00157  1.0000
  H   H1148     1.0  0.41346  0.51294  0.89585  1.0000
  H   H1149     1.0  0.49029  0.60435  0.80137  1.0000
  C   C679      1.0  0.50078  0.63230  0.87995  1.0000
  H   H1150     1.0  0.22859  0.93785  0.00006  1.0000
  H   H1151     1.0  0.50431  0.57704  0.79765  1.0000
  S   S192      1.0  0.36248  0.82830  0.00308  1.0000
  C   C680      1.0  0.50562  0.85483  0.88379  1.0000
  H   H1152     1.0  0.50191  0.79915  0.91543  1.0000
  H   H1153     1.0  0.17596  0.92757  0.00368  1.0000
  H   H1154     1.0  0.29042  0.84167  0.00357  1.0000
  Fe  Fe97      1.0  0.55615  0.36577  0.17962  1.0000
  S   S193      1.0  0.58192  0.36542  0.15055  1.0000
  S   S194      1.0  0.51869  0.35289  0.17998  1.0000
  Fe  Fe98      1.0  0.59277  0.38259  0.21531  1.0000
  S   S195      1.0  0.62120  0.38309  0.18882  1.0000
  C   C681      1.0  0.90149  0.13098  0.24106  1.0000
  Fe  Fe99      1.0  0.59486  0.39942  0.16541  1.0000
  S   S196      1.0  0.60121  0.43093  0.14265  1.0000
  Fe  Fe100     1.0  0.60621  0.34907  0.17617  1.0000
  S   S197      1.0  0.63059  0.31895  0.16820  1.0000
  S   S198      1.0  0.56703  0.40092  0.19244  1.0000
  S   S199      1.0  0.57985  0.34738  0.20461  1.0000
  Fe  Fe101     1.0  0.85880  0.06055  0.14633  1.0000
  S   S200      1.0  0.87447  0.09481  0.15664  1.0000
  S   S201      1.0  0.88496  0.03159  0.15352  1.0000
  Fe  Fe102     1.0  0.81159  0.08393  0.13675  1.0000
  S   S202      1.0  0.82422  0.11897  0.14752  1.0000
  S   S203      1.0  0.77521  0.07902  0.12222  1.0000
  Fe  Fe103     1.0  0.85546  0.10981  0.12609  1.0000
  S   S204      1.0  0.87164  0.13655  0.10215  1.0000
  Fe  Fe104     1.0  0.84201  0.10055  0.17691  1.0000
  S   S205      1.0  0.83925  0.10940  0.21524  1.0000
  S   S206      1.0  0.84235  0.07529  0.11410  1.0000
  S   S207      1.0  0.82682  0.06587  0.16774  1.0000
  Fe  Fe105     1.0  0.64120  0.16244  0.06012  1.0000
  S   S208      1.0  0.64807  0.13382  0.08555  1.0000
  S   S209      1.0  0.65113  0.16257  0.02189  1.0000
  Fe  Fe106     1.0  0.62573  0.19693  0.09846  1.0000
  S   S210      1.0  0.63215  0.17072  0.12632  1.0000
  S   S211      1.0  0.60689  0.23142  0.10473  1.0000
  Fe  Fe107     1.0  0.66494  0.16148  0.10713  1.0000
  S   S212      1.0  0.69989  0.16006  0.12554  1.0000
  Fe  Fe108     1.0  0.61452  0.14540  0.10252  1.0000
  S   S213      1.0  0.58811  0.11987  0.11713  1.0000
  S   S214      1.0  0.65975  0.18976  0.08099  1.0000
  S   S215      1.0  0.60645  0.17190  0.07538  1.0000
  C   C682      1.0  0.56002  0.12808  0.12656  1.0000
  C   C683      1.0  0.54766  0.11348  0.14150  1.0000
  H   H1155     1.0  0.75940  0.13975  0.06261  1.0000
  C   C684      1.0  0.52781  0.15531  0.12794  1.0000
  C   C685      1.0  0.54976  0.14881  0.11946  1.0000
  H   H1156     1.0  0.55544  0.09734  0.14700  1.0000
  H   H1157     1.0  0.52026  0.17162  0.12266  1.0000
  H   H1158     1.0  0.55892  0.16002  0.10769  1.0000
  C   C686      1.0  0.75364  0.10086  0.12456  1.0000
  C   C687      1.0  0.73306  0.09887  0.11164  1.0000
  C   C688      1.0  0.71627  0.11670  0.11189  1.0000
  C   C689      1.0  0.71987  0.13665  0.12520  1.0000
  C   C690      1.0  0.74031  0.13849  0.13830  1.0000
  C   C691      1.0  0.75705  0.12069  0.13807  1.0000
  H   H1159     1.0  0.73023  0.08358  0.10118  1.0000
  H   H1160     1.0  0.70060  0.11503  0.10177  1.0000
  H   H1161     1.0  0.74318  0.15376  0.14878  1.0000
  H   H1162     1.0  0.77258  0.12234  0.14837  1.0000
  C   C692      1.0  0.88355  0.12514  0.22555  1.0000
  C   C693      1.0  0.86220  0.11752  0.23394  1.0000
  H   H1163     1.0  0.59885  0.18405  0.19998  1.0000
  H   H1164     1.0  0.88618  0.12670  0.20714  1.0000
  H   H1165     1.0  0.53914  0.18138  0.17452  1.0000
  C   C694      1.0  0.85579  0.14389  0.02457  1.0000
  C   C695      1.0  0.87098  0.15914  0.03563  1.0000
  C   C696      1.0  0.87590  0.15649  0.05933  1.0000
  C   C697      1.0  0.86579  0.13854  0.07216  1.0000
  C   C698      1.0  0.85102  0.12298  0.06095  1.0000
  C   C699      1.0  0.84595  0.12576  0.03732  1.0000
  C   C700      1.0  0.77295  0.13697  0.07585  1.0000
  H   H1166     1.0  0.88736  0.16860  0.06786  1.0000
  H   H1167     1.0  0.84332  0.10896  0.07055  1.0000
  H   H1168     1.0  0.83433  0.11376  0.02885  1.0000
  C   C701      1.0  0.62358  0.29459  0.15075  1.0000
  C   C702      1.0  0.60257  0.29309  0.13880  1.0000
  C   C703      1.0  0.59796  0.27377  0.12458  1.0000
  C   C704      1.0  0.61420  0.25569  0.12219  1.0000
  C   C705      1.0  0.63521  0.25718  0.13416  1.0000
  C   C706      1.0  0.63986  0.27655  0.14833  1.0000
  H   H1169     1.0  0.58992  0.30686  0.14039  1.0000
  H   H1170     1.0  0.58167  0.27281  0.11536  1.0000
  H   H1171     1.0  0.64787  0.24342  0.13249  1.0000
  H   H1172     1.0  0.65622  0.27758  0.15742  1.0000
  C   C707      1.0  0.65901  0.48559  0.14873  1.0000
  C   C708      1.0  0.64103  0.48807  0.13270  1.0000
  C   C709      1.0  0.62373  0.47098  0.13084  1.0000
  C   C710      1.0  0.62400  0.45136  0.14515  1.0000
  C   C711      1.0  0.64203  0.44880  0.16114  1.0000
  C   C712      1.0  0.65953  0.46575  0.16277  1.0000
  C   C713      1.0  0.59795  0.22372  0.17004  1.0000
  H   H1173     1.0  0.60993  0.47308  0.11836  1.0000
  H   H1174     1.0  0.64242  0.43387  0.17234  1.0000
  H   H1175     1.0  0.67337  0.46367  0.17522  1.0000
  C   C714      1.0  0.52557  0.11989  0.14985  1.0000
  H   H1176     1.0  0.91789  0.08966  0.21554  1.0000
  H   H1177     1.0  0.56872  0.48783  0.19462  1.0000
  H   H1178     1.0  0.50881  0.10341  0.06966  1.0000
  H   H1179     1.0  0.91046  0.02271  0.21041  1.0000
  H   H1180     1.0  0.81543  0.15631  0.05796  1.0000
  C   C715      1.0  0.86217  0.04599  0.22514  1.0000
  H   H1181     1.0  0.64050  0.50312  0.12165  1.0000
  H   H1182     1.0  0.77565  0.10188  0.06253  1.0000
  H   H1183     1.0  0.59944  0.14554  0.18513  1.0000
  C   C716      1.0  0.78751  0.11614  0.06759  1.0000
  H   H1184     1.0  0.53482  0.09372  0.08212  1.0000
  C   C717      1.0  0.64023  0.11804  0.00689  1.0000
  H   H1185     1.0  0.61154  0.22061  0.15672  1.0000
  H   H1186     1.0  0.73465  0.16434  0.08229  1.0000
  H   H1187     1.0  0.76548  0.17421  0.10878  1.0000
  H   H1188     1.0  0.56495  0.23286  0.13534  1.0000
  H   H1189     1.0  0.56428  0.18110  0.14729  1.0000
  H   H1190     1.0  0.51650  0.10878  0.16176  1.0000
  H   H1191     1.0  0.52237  0.32134  0.25210  1.0000
  C   C718      1.0  0.57363  0.19764  0.14793  1.0000
  H   H1192     1.0  0.58815  0.23925  0.16425  1.0000
  H   H1193     1.0  0.57046  0.15493  0.17969  1.0000
  C   C719      1.0  0.61069  0.23112  0.19232  1.0000
  C   C720      1.0  0.78736  0.17108  0.03814  1.0000
  H   H1194     1.0  0.55498  0.22561  0.18432  1.0000
  N   N50       1.0  0.78615  0.15879  0.08142  1.0000
  H   H1195     1.0  0.85836  0.05211  0.24287  1.0000
  C   C721      1.0  0.71334  0.14789  0.01328  1.0000
  H   H1196     1.0  0.84665  0.05044  0.21466  1.0000
  H   H1197     1.0  0.52009  0.36936  0.13214  1.0000
  H   H1198     1.0  0.59158  0.15396  0.15673  1.0000
  C   C722      1.0  0.54351  0.19050  0.19076  1.0000
  C   C723      1.0  0.58877  0.15811  0.17524  1.0000
  C   C724      1.0  0.55690  0.21563  0.13738  1.0000
  H   H1199     1.0  0.61493  0.18384  0.17394  1.0000
  C   C725      1.0  0.81689  0.17358  0.11059  1.0000
  H   H1200     1.0  0.54782  0.17754  0.20422  1.0000
  H   H1201     1.0  0.82901  0.18079  0.09767  1.0000
  H   H1202     1.0  0.91991  0.07158  0.00778  1.0000
  H   H1203     1.0  0.51223  0.29917  0.09424  1.0000
  H   H1204     1.0  0.76312  0.13137  0.09124  1.0000
  H   H1205     1.0  0.61230  0.49048  0.20580  1.0000
  H   H1206     1.0  0.53052  0.37539  0.22139  1.0000
  N   N51       1.0  0.90597  0.05606  0.22723  1.0000
  C   C726      1.0  0.92324  0.07111  0.21473  1.0000
  H   H1207     1.0  0.91713  0.16037  0.01060  1.0000
  C   C727      1.0  0.88327  0.05807  0.21445  1.0000
  H   H1208     1.0  0.79857  0.10906  0.08159  1.0000
  C   C728      1.0  0.92751  0.06507  0.18910  1.0000
  H   H1209     1.0  0.55207  0.20973  0.11974  1.0000
  H   H1210     1.0  0.90117  0.10842  0.03960  1.0000
  H   H1211     1.0  0.70245  0.13341  0.01952  1.0000
  H   H1212     1.0  0.59852  0.23692  0.20595  1.0000
  C   C729      1.0  0.92683  0.14389  0.00820  1.0000
  H   H1213     1.0  0.58835  0.19526  0.13576  1.0000
  H   H1214     1.0  0.87851  0.07659  0.21204  1.0000
  H   H1215     1.0  0.88473  0.05081  0.19681  1.0000
  H   H1216     1.0  0.94241  0.07530  0.18270  1.0000
  H   H1217     1.0  0.93171  0.04652  0.18636  1.0000
  H   H1218     1.0  0.80800  0.18452  0.06548  1.0000
  H   H1219     1.0  0.88846  0.01882  0.25274  1.0000
  H   H1220     1.0  0.57898  0.48137  0.16559  1.0000
  H   H1221     1.0  0.77391  0.15807  0.03444  1.0000
  H   H1222     1.0  0.82786  0.16717  0.12501  1.0000
  H   H1223     1.0  0.79348  0.14501  0.11539  1.0000
  H   H1224     1.0  0.80005  0.16903  0.02384  1.0000
  H   H1225     1.0  0.86396  0.02691  0.22430  1.0000
  N   N52       1.0  0.65253  0.36906  0.11502  1.0000
  C   C730      1.0  0.63986  0.34668  0.11015  1.0000
  C   C731      1.0  0.63455  0.38801  0.11666  1.0000
  C   C732      1.0  0.66437  0.36645  0.13811  1.0000
  C   C733      1.0  0.66992  0.37312  0.09604  1.0000
  C   C734      1.0  0.65493  0.32455  0.10897  1.0000
  C   C735      1.0  0.61871  0.39084  0.09537  1.0000
  C   C736      1.0  0.67730  0.38773  0.14761  1.0000
  C   C737      1.0  0.67761  0.39845  0.09193  1.0000
  H   H1226     1.0  0.62613  0.34369  0.12332  1.0000
  H   H1227     1.0  0.63068  0.34741  0.09327  1.0000
  H   H1228     1.0  0.64225  0.40520  0.12008  1.0000
  H   H1229     1.0  0.62316  0.38507  0.13180  1.0000
  H   H1230     1.0  0.65156  0.36128  0.15148  1.0000
  H   H1231     1.0  0.67751  0.35235  0.13763  1.0000
  H   H1232     1.0  0.68582  0.36254  0.09902  1.0000
  H   H1233     1.0  0.66265  0.36708  0.07923  1.0000
  H   H1234     1.0  0.66190  0.31966  0.12612  1.0000
  H   H1235     1.0  0.64389  0.30983  0.10331  1.0000
  H   H1236     1.0  0.66923  0.32601  0.09634  1.0000
  H   H1237     1.0  0.60503  0.37737  0.09506  1.0000
  H   H1238     1.0  0.60962  0.40781  0.09644  1.0000
  H   H1239     1.0  0.66608  0.40323  0.14925  1.0000
  H   H1240     1.0  0.69294  0.39154  0.13725  1.0000
  H   H1241     1.0  0.68351  0.38372  0.16532  1.0000
  H   H1242     1.0  0.69591  0.39841  0.08602  1.0000
  H   H1243     1.0  0.67691  0.40998  0.10716  1.0000
  H   H1244     1.0  0.66754  0.40628  0.07757  1.0000
  H   H1245     1.0  0.71966  0.15706  0.02895  1.0000
  H   H1246     1.0  0.77978  0.18874  0.03717  1.0000
  H   H1247     1.0  0.87844  0.17334  0.02610  1.0000
  H   H1248     1.0  0.63550  0.11432  0.02454  1.0000
  N   N53       1.0  0.52253  0.35912  0.25403  1.0000
  C   C738      1.0  0.51796  0.33663  0.24149  1.0000
  H   H1249     1.0  0.54063  0.21716  0.14740  1.0000
  H   H1250     1.0  0.81600  0.14014  0.09507  1.0000
  H   H1251     1.0  0.58701  0.46336  0.18901  1.0000
  C   C739      1.0  0.80285  0.15309  0.10070  1.0000
  C   C740      1.0  0.80008  0.16748  0.06127  1.0000
  C   C741      1.0  0.74594  0.17929  0.07809  1.0000
  C   C742      1.0  0.52464  0.40314  0.24538  1.0000
  H   H1252     1.0  0.89472  0.08310  0.25031  1.0000
  C   C743      1.0  0.90636  0.01554  0.24685  1.0000
  C   C744      1.0  0.76968  0.17723  0.09023  1.0000
  C   C745      1.0  0.91933  0.09056  0.01116  1.0000
  H   H1253     1.0  0.93422  0.09436  0.02283  1.0000
  H   H1254     1.0  0.74737  0.18111  0.05919  1.0000
  H   H1255     1.0  0.51493  0.27239  0.11047  1.0000
  H   H1256     1.0  0.62849  0.39045  0.07895  1.0000
  H   H1257     1.0  0.91251  0.06990  0.17818  1.0000
  H   H1258     1.0  0.79812  0.12044  0.05232  1.0000
  H   H1259     1.0  0.54270  0.40498  0.25159  1.0000
  H   H1260     1.0  0.80568  0.18743  0.11780  1.0000
  H   H1261     1.0  0.73679  0.19490  0.08474  1.0000
  N   N54       1.0  0.58241  0.20283  0.17191  1.0000
  H   H1262     1.0  0.56994  0.21104  0.20614  1.0000
  H   H1263     1.0  0.91791  0.13697  0.23443  1.0000
  H   H1264     1.0  0.77788  0.19463  0.08958  1.0000
  C   C746      1.0  0.59694  0.18292  0.18088  1.0000
  H   H1265     1.0  0.62227  0.21733  0.19901  1.0000
  H   H1266     1.0  0.62189  0.24620  0.18830  1.0000
  C   C747      1.0  0.56303  0.20855  0.18838  1.0000
  C   C748      1.0  0.58361  0.48168  0.18421  1.0000
  C   C749      1.0  0.91475  0.03138  0.22711  1.0000
  C   C750      1.0  0.60573  0.49600  0.18860  1.0000
  C   C751      1.0  0.51566  0.14099  0.14326  1.0000
  H   H1267     1.0  0.74380  0.12646  0.01002  1.0000
  H   H1268     1.0  0.93401  0.03129  0.22843  1.0000
  H   H1269     1.0  0.63888  0.37436  0.25288  1.0000
  C   C752      1.0  0.89742  0.09564  0.02570  1.0000
  H   H1270     1.0  0.61886  0.48988  0.17605  1.0000
  H   H1271     1.0  0.51221  0.06406  0.09605  1.0000
  H   H1272     1.0  0.88214  0.10134  0.01579  1.0000
  C   C753      1.0  0.90309  0.06586  0.25122  1.0000
  H   H1273     1.0  0.51114  0.08382  0.11880  1.0000
  H   H1274     1.0  0.89223  0.07961  0.03485  1.0000
  C   C754      1.0  0.51931  0.37839  0.23672  1.0000
  H   H1275     1.0  0.92847  0.13563  0.02535  1.0000
  H   H1276     1.0  0.94056  0.07026  0.22314  1.0000
  H   H1277     1.0  0.52949  0.33509  0.22613  1.0000
  S   S216      1.0  0.59326  0.39697  0.25220  1.0000
  H   H1278     1.0  0.52719  0.19944  0.19573  1.0000
  H   H1279     1.0  0.52266  0.41530  0.23068  1.0000
  H   H1280     1.0  0.51877  0.11623  0.09638  1.0000
  H   H1281     1.0  0.55899  0.36425  0.24761  1.0000
  C   C755      1.0  0.51708  0.09987  0.08647  1.0000
  H   H1282     1.0  0.52183  0.29967  0.12333  1.0000
  C   C756      1.0  0.50969  0.29085  0.11126  1.0000
  Fe  Fe109     1.0  0.70500  0.40341  0.40766  1.0000
  S   S217      1.0  0.67499  0.37930  0.40185  1.0000
  S   S218      1.0  0.73481  0.38727  0.42822  1.0000
  Fe  Fe110     1.0  0.67666  0.44539  0.38935  1.0000
  S   S219      1.0  0.64477  0.42402  0.38336  1.0000
  S   S220      1.0  0.67924  0.48282  0.37705  1.0000
  Fe  Fe111     1.0  0.65356  0.40757  0.41774  1.0000
  S   S221      1.0  0.62806  0.40244  0.44714  1.0000
  Fe  Fe112     1.0  0.66924  0.39777  0.36804  1.0000
  S   S222      1.0  0.66636  0.37938  0.33312  1.0000
  S   S223      1.0  0.68357  0.43119  0.42483  1.0000
  S   S224      1.0  0.70112  0.41974  0.37267  1.0000
  Fe  Fe113     1.0  0.91641  0.34027  0.43038  1.0000
  S   S225      1.0  0.90673  0.30622  0.44650  1.0000
  S   S226      1.0  0.95453  0.35011  0.43135  1.0000
  Fe  Fe114     1.0  0.86570  0.35180  0.41848  1.0000
  S   S227      1.0  0.85289  0.31843  0.43289  1.0000
  S   S228      1.0  0.84136  0.37763  0.40150  1.0000
  Fe  Fe115     1.0  0.87713  0.32634  0.46246  1.0000
  H   H1283     1.0  0.00388  0.34813  0.42932  1.0000
  Fe  Fe116     1.0  0.88361  0.30174  0.41554  1.0000
  S   S229      1.0  0.88225  0.27280  0.38870  1.0000
  S   S230      1.0  0.88849  0.36065  0.44873  1.0000
  S   S231      1.0  0.89481  0.33494  0.39874  1.0000
  Fe  Fe117     1.0  0.91533  0.13968  0.37248  1.0000
  S   S232      1.0  0.94437  0.14612  0.34759  1.0000
  S   S233      1.0  0.90356  0.16501  0.40047  1.0000
  Fe  Fe118     1.0  0.90931  0.08894  0.35699  1.0000
  S   S234      1.0  0.93848  0.09184  0.33156  1.0000
  S   S235      1.0  0.88516  0.05758  0.35479  1.0000
  Fe  Fe119     1.0  0.95783  0.11153  0.35921  1.0000
  H   H1284     1.0  0.61427  0.45830  0.26400  1.0000
  Fe  Fe120     1.0  0.92279  0.12600  0.32189  1.0000
  S   S236      1.0  0.92191  0.13522  0.28374  1.0000
  S   S237      1.0  0.92989  0.10572  0.38564  1.0000
  S   S238      1.0  0.89256  0.12249  0.34587  1.0000
  C   C757      1.0  0.89842  0.12887  0.26504  1.0000
  H   H1285     1.0  0.82800  0.09305  0.38032  1.0000
  H   H1286     1.0  0.84626  0.04074  0.41392  1.0000
  H   H1287     1.0  0.95146  0.30304  0.40432  1.0000
  H   H1288     1.0  0.87443  0.11967  0.29182  1.0000
  C   C758      1.0  0.61318  0.45454  0.33037  1.0000
  H   H1289     1.0  0.97858  0.30382  0.37400  1.0000
  C   C759      1.0  0.88849  0.24297  0.39250  1.0000
  C   C760      1.0  0.89115  0.23313  0.41435  1.0000
  C   C761      1.0  0.89581  0.20924  0.41647  1.0000
  C   C762      1.0  0.89823  0.19505  0.39681  1.0000
  C   C763      1.0  0.89586  0.20497  0.37496  1.0000
  C   C764      1.0  0.89083  0.22877  0.37285  1.0000
  H   H1290     1.0  0.88934  0.24382  0.42962  1.0000
  H   H1291     1.0  0.89756  0.20171  0.43345  1.0000
  H   H1292     1.0  0.89757  0.19424  0.35969  1.0000
  H   H1293     1.0  0.88876  0.23620  0.35586  1.0000
  H   H1294     1.0  0.81645  0.34731  0.48939  1.0000
  C   C765      1.0  0.88080  0.03296  0.37246  1.0000
  C   C766      1.0  0.89385  0.02886  0.39240  1.0000
  H   H1295     1.0  0.98653  0.42872  0.42599  1.0000
  H   H1296     1.0  0.90736  0.04084  0.39736  1.0000
  C   C767      1.0  0.76380  0.38358  0.41896  1.0000
  C   C768      1.0  0.77783  0.36725  0.43031  1.0000
  C   C769      1.0  0.80153  0.36511  0.42502  1.0000
  C   C770      1.0  0.81148  0.37938  0.40835  1.0000
  C   C771      1.0  0.79736  0.39535  0.39661  1.0000
  C   C772      1.0  0.77359  0.39741  0.40182  1.0000
  H   H1297     1.0  0.77032  0.35634  0.44342  1.0000
  H   H1298     1.0  0.81213  0.35263  0.43408  1.0000
  H   H1299     1.0  0.80487  0.40638  0.38359  1.0000
  H   H1300     1.0  0.76299  0.41011  0.39302  1.0000
  C   C773      1.0  0.63364  0.38176  0.46898  1.0000
  C   C774      1.0  0.65096  0.36495  0.46645  1.0000
  H   H1301     1.0  0.77402  0.42527  0.46944  1.0000
  H   H1302     1.0  0.66112  0.36432  0.45080  1.0000
  H   H1303     1.0  0.68684  0.41689  0.47383  1.0000
  C   C775      1.0  0.64547  0.38375  0.31100  1.0000
  C   C776      1.0  0.65054  0.37640  0.28838  1.0000
  C   C777      1.0  0.63462  0.37990  0.27022  1.0000
  C   C778      1.0  0.61341  0.39081  0.27453  1.0000
  C   C779      1.0  0.60816  0.39783  0.29721  1.0000
  C   C780      1.0  0.62404  0.39422  0.31537  1.0000
  H   H1304     1.0  0.66698  0.36806  0.28486  1.0000
  H   H1305     1.0  0.63918  0.47801  0.34305  1.0000
  H   H1306     1.0  0.59170  0.40608  0.30077  1.0000
  H   H1307     1.0  0.61966  0.39930  0.33280  1.0000
  H   H1308     1.0  0.62438  0.23700  0.46958  1.0000
  C   C781      1.0  0.73302  0.36668  0.49557  1.0000
  C   C782      1.0  0.54738  0.35998  0.26225  1.0000
  C   C783      1.0  0.87705  0.12130  0.27343  1.0000
  C   C784      1.0  0.83108  0.10438  0.45025  1.0000
  C   C785      1.0  0.98155  0.35080  0.36636  1.0000
  C   C786      1.0  0.96561  0.35029  0.38475  1.0000
  C   C787      1.0  0.97360  0.34946  0.40754  1.0000
  C   C788      1.0  0.99756  0.34886  0.41173  1.0000
  H   H1309     1.0  0.97528  0.35172  0.34877  1.0000
  H   H1310     1.0  0.94719  0.35094  0.38132  1.0000
  H   H1311     1.0  0.91306  0.01205  0.34021  1.0000
  H   H1312     1.0  0.91854  0.01630  0.26168  1.0000
  N   N55       1.0  0.96352  0.27208  0.38674  1.0000
  C   C789      1.0  0.94612  0.27062  0.36725  1.0000
  C   C790      1.0  0.97127  0.24767  0.39194  1.0000
  H   H1313     1.0  0.85763  0.09666  0.37328  1.0000
  C   C791      1.0  0.95210  0.28397  0.40704  1.0000
  C   C792      1.0  0.93720  0.29391  0.35762  1.0000
  C   C793      1.0  0.95198  0.23087  0.39933  1.0000
  H   H1314     1.0  0.82253  0.38128  0.46540  1.0000
  H   H1315     1.0  0.95330  0.26055  0.35243  1.0000
  H   H1316     1.0  0.93038  0.26113  0.37277  1.0000
  H   H1317     1.0  0.95170  0.26799  0.44140  1.0000
  H   H1318     1.0  0.94117  0.22557  0.38438  1.0000
  H   H1319     1.0  0.93701  0.05348  0.26432  1.0000
  H   H1320     1.0  0.98328  0.41622  0.37464  1.0000
  H   H1321     1.0  0.93364  0.27850  0.40833  1.0000
  H   H1322     1.0  0.92253  0.29046  0.34566  1.0000
  H   H1323     1.0  0.93046  0.30549  0.37135  1.0000
  H   H1324     1.0  0.95066  0.30298  0.34746  1.0000
  H   H1325     1.0  0.84249  0.11008  0.26457  1.0000
  H   H1326     1.0  0.95984  0.21476  0.40628  1.0000
  H   H1327     1.0  0.94077  0.23828  0.41300  1.0000
  C   C794      1.0  0.62057  0.38229  0.48945  1.0000
  H   H1328     1.0  0.79506  0.40717  0.45615  1.0000
  H   H1329     1.0  0.89111  0.05553  0.26189  1.0000
  H   H1330     1.0  0.85314  0.02020  0.35089  1.0000
  C   C795      1.0  0.80109  0.35707  0.49573  1.0000
  H   H1331     1.0  0.92101  0.07177  0.28379  1.0000
  C   C796      1.0  0.65662  0.50358  0.37901  1.0000
  H   H1332     1.0  0.79025  0.36198  0.48085  1.0000
  H   H1333     1.0  0.83448  0.12771  0.35723  1.0000
  H   H1334     1.0  0.85279  0.14042  0.37848  1.0000
  N   N56       1.0  0.85013  0.10128  0.40967  1.0000
  H   H1335     1.0  0.88169  0.11845  0.39912  1.0000
  C   C797      1.0  0.84356  0.10358  0.38452  1.0000
  C   C798      1.0  0.65502  0.34876  0.48412  1.0000
  C   C799      1.0  0.63694  0.49995  0.39255  1.0000
  H   H1336     1.0  0.61473  0.48122  0.28407  1.0000
  H   H1337     1.0  0.83495  0.05644  0.39012  1.0000
  H   H1338     1.0  0.86411  0.07350  0.43113  1.0000
  H   H1339     1.0  0.86366  0.13563  0.41709  1.0000
  H   H1340     1.0  0.77451  0.39549  0.47676  1.0000
  H   H1341     1.0  0.81333  0.09892  0.41769  1.0000
  H   H1342     1.0  0.84077  0.08871  0.45537  1.0000
  H   H1343     1.0  0.00125  0.45084  0.36633  1.0000
  C   C800      1.0  0.88617  0.11186  0.43487  1.0000
  H   H1344     1.0  0.61962  0.44003  0.34103  1.0000
  H   H1345     1.0  0.87290  0.07258  0.40223  1.0000
  H   H1346     1.0  0.83884  0.11983  0.45868  1.0000
  C   C801      1.0  0.82928  0.10779  0.42393  1.0000
  H   H1347     1.0  0.81343  0.10180  0.45737  1.0000
  H   H1348     1.0  0.87681  0.10937  0.45125  1.0000
  H   H1349     1.0  0.93515  0.08450  0.25978  1.0000
  C   C802      1.0  0.83920  0.05788  0.40875  1.0000
  S   S239      1.0  0.99684  0.10574  0.36213  1.0000
  N   N57       1.0  0.81356  0.31481  0.36331  1.0000
  C   C803      1.0  0.80534  0.31115  0.38775  1.0000
  C   C804      1.0  0.80807  0.33956  0.35700  1.0000
  C   C805      1.0  0.83947  0.31070  0.36290  1.0000
  C   C806      1.0  0.80123  0.29767  0.34799  1.0000
  C   C807      1.0  0.81123  0.28741  0.39858  1.0000
  C   C808      1.0  0.78228  0.34663  0.35785  1.0000
  C   C809      1.0  0.85353  0.32304  0.34401  1.0000
  C   C810      1.0  0.80556  0.29942  0.32182  1.0000
  H   H1350     1.0  0.81267  0.32472  0.39935  1.0000
  H   H1351     1.0  0.78620  0.31292  0.38902  1.0000
  H   H1352     1.0  0.81432  0.34407  0.33955  1.0000
  H   H1353     1.0  0.81761  0.35153  0.36862  1.0000
  H   H1354     1.0  0.84756  0.31642  0.37945  1.0000
  H   H1355     1.0  0.84345  0.29186  0.36143  1.0000
  H   H1356     1.0  0.80641  0.27969  0.35256  1.0000
  H   H1357     1.0  0.78218  0.29775  0.35103  1.0000
  H   H1358     1.0  0.83005  0.28352  0.39847  1.0000
  H   H1359     1.0  0.80581  0.28763  0.41697  1.0000
  H   H1360     1.0  0.80166  0.27309  0.39012  1.0000
  H   H1361     1.0  0.77557  0.34719  0.37577  1.0000
  H   H1362     1.0  0.78048  0.36455  0.35112  1.0000
  H   H1363     1.0  0.77128  0.33535  0.34691  1.0000
  H   H1364     1.0  0.85446  0.34196  0.34742  1.0000
  H   H1365     1.0  0.84675  0.31989  0.32645  1.0000
  H   H1366     1.0  0.87163  0.31642  0.34447  1.0000
  H   H1367     1.0  0.82155  0.28989  0.31685  1.0000
  H   H1368     1.0  0.80640  0.31736  0.31538  1.0000
  H   H1369     1.0  0.79064  0.29166  0.31246  1.0000
  H   H1370     1.0  0.56095  0.32443  0.25918  1.0000
  H   H1371     1.0  0.98458  0.24704  0.40566  1.0000
  H   H1372     1.0  0.69320  0.43875  0.49550  1.0000
  C   C811      1.0  0.62616  0.47008  0.27354  1.0000
  H   H1373     1.0  0.81108  0.43279  0.48775  1.0000
  H   H1374     1.0  0.66782  0.39244  0.50357  1.0000
  H   H1375     1.0  0.54255  0.50158  0.38263  1.0000
  H   H1376     1.0  0.72464  0.34991  0.49960  1.0000
  H   H1377     1.0  0.51234  0.40892  0.25889  1.0000
  H   H1378     1.0  0.63533  0.48411  0.40233  1.0000
  H   H1379     1.0  0.66840  0.33579  0.48191  1.0000
  C   C812      1.0  0.83376  0.38984  0.47837  1.0000
  H   H1380     1.0  0.61836  0.26361  0.48416  1.0000
  C   C813      1.0  0.68164  0.42423  0.49075  1.0000
  C   C814      1.0  0.78574  0.41031  0.47258  1.0000
  C   C815      1.0  0.92554  0.06885  0.26537  1.0000
  C   C816      1.0  0.63123  0.24939  0.48262  1.0000
  C   C817      1.0  0.71498  0.38638  0.49391  1.0000
  H   H1381     1.0  0.82507  0.12645  0.42162  1.0000
  H   H1382     1.0  0.97990  0.23989  0.37654  1.0000
  C   C818      1.0  0.83804  0.12837  0.37609  1.0000
  H   H1383     1.0  0.65335  0.43068  0.32574  1.0000
  N   N58       1.0  0.81998  0.39812  0.49894  1.0000
  H   H1384     1.0  0.54752  0.33053  0.28685  1.0000
  H   H1385     1.0  0.89833  0.12653  0.43749  1.0000
  H   H1386     1.0  0.99047  0.27830  0.36158  1.0000
  H   H1387     1.0  0.96287  0.29648  0.44092  1.0000
  H   H1388     1.0  0.89607  0.36001  0.50368  1.0000
  H   H1389     1.0  0.82326  0.06077  0.41898  1.0000
  H   H1390     1.0  0.82234  0.13561  0.38441  1.0000
  H   H1391     1.0  0.83626  0.42320  0.45973  1.0000
  H   H1392     1.0  0.68076  0.48064  0.29261  1.0000
  C   C819      1.0  0.85771  0.07655  0.41338  1.0000
  H   H1393     1.0  0.63539  0.48088  0.26071  1.0000
  N   N59       1.0  0.65177  0.46494  0.31040  1.0000
  C   C820      1.0  0.66465  0.44585  0.32281  1.0000
  H   H1394     1.0  0.62321  0.48820  0.31939  1.0000
  S   S240      1.0  0.86172  0.32313  0.49834  1.0000
  C   C821      1.0  0.64346  0.45534  0.28759  1.0000
  C   C822      1.0  0.68648  0.43631  0.31062  1.0000
  H   H1395     1.0  0.70191  0.37996  0.48118  1.0000
  C   C823      1.0  0.98388  0.28582  0.37807  1.0000
  H   H1396     1.0  0.00034  0.29891  0.40980  1.0000
  H   H1397     1.0  0.67009  0.45164  0.34033  1.0000
  H   H1398     1.0  0.66399  0.43157  0.48821  1.0000
  C   C824      1.0  0.66857  0.48464  0.30695  1.0000
  H   H1399     1.0  0.72362  0.40133  0.48543  1.0000
  H   H1400     1.0  0.98080  0.27337  0.43146  1.0000
  H   H1401     1.0  0.74135  0.36447  0.47841  1.0000
  H   H1402     1.0  0.00407  0.40294  0.34507  1.0000
  H   H1403     1.0  0.63585  0.43778  0.28968  1.0000
  H   H1404     1.0  0.68228  0.42784  0.29393  1.0000
  H   H1405     1.0  0.69993  0.44974  0.30829  1.0000
  H   H1406     1.0  0.69432  0.42263  0.32157  1.0000
  H   H1407     1.0  0.98833  0.12368  0.40882  1.0000
  C   C825      1.0  0.86340  0.01712  0.36623  1.0000
  H   H1408     1.0  0.85452  0.40074  0.44917  1.0000
  H   H1409     1.0  0.89705  0.09641  0.43106  1.0000
  C   C826      1.0  0.87004  0.11759  0.41439  1.0000
  C   C827      1.0  0.63222  0.47260  0.32594  1.0000
  H   H1410     1.0  0.65837  0.45214  0.27586  1.0000
  H   H1411     1.0  0.86237  0.41490  0.47538  1.0000
  H   H1412     1.0  0.60548  0.44783  0.31414  1.0000
  H   H1413     1.0  0.64749  0.22229  0.50261  1.0000
  C   C828      1.0  0.96281  0.27982  0.43121  1.0000
  H   H1414     1.0  0.67958  0.48700  0.32266  1.0000
  C   C829      1.0  0.84736  0.40854  0.46521  1.0000
  C   C830      1.0  0.97731  0.42279  0.41036  1.0000
  H   H1415     1.0  0.96572  0.43680  0.40407  1.0000
  C   C831      1.0  0.55792  0.33780  0.27269  1.0000
  C   C832      1.0  0.80235  0.41633  0.49250  1.0000
  H   H1416     1.0  0.94353  0.01675  0.34164  1.0000
  H   H1417     1.0  0.96634  0.40817  0.41630  1.0000
  C   C833      1.0  0.85898  0.11586  0.25794  1.0000
  H   H1418     1.0  0.51095  0.37920  0.28339  1.0000
  H   H1419     1.0  0.54987  0.37407  0.27520  1.0000
  H   H1420     1.0  0.84647  0.37629  0.48378  1.0000
  H   H1421     1.0  0.60713  0.39522  0.49154  1.0000
  H   H1422     1.0  0.99418  0.46515  0.40846  1.0000
  H   H1423     1.0  0.51665  0.34713  0.30632  1.0000
  C   C834      1.0  0.88927  0.00925  0.40606  1.0000
  H   H1424     1.0  0.57524  0.34207  0.27998  1.0000
  H   H1425     1.0  0.59900  0.46285  0.34039  1.0000
  C   C835      1.0  0.99334  0.41408  0.39088  1.0000
  H   H1426     1.0  0.00176  0.16789  0.36266  1.0000
  H   H1427     1.0  0.64770  0.25620  0.47563  1.0000
  H   H1428     1.0  0.99485  0.39497  0.39254  1.0000
  H   H1429     1.0  0.89932  0.00629  0.42156  1.0000
  H   H1430     1.0  0.00564  0.48526  0.38829  1.0000
  C   C836      1.0  0.00478  0.28835  0.39441  1.0000
  C   C837      1.0  0.50599  0.36330  0.27369  1.0000
  H   H1431     1.0  0.50634  0.32644  0.28522  1.0000
  C   C838      1.0  0.00554  0.35024  0.37060  1.0000
  Fe  Fe121     1.0  0.58817  0.11200  0.71146  1.0000
  S   S241      1.0  0.61898  0.10905  0.68803  1.0000
  H   H1432     1.0  0.66492  0.27369  0.50536  1.0000
  Fe  Fe122     1.0  0.55734  0.13406  0.67330  1.0000
  S   S242      1.0  0.58614  0.13161  0.64735  1.0000
  S   S243      1.0  0.52585  0.15515  0.66176  1.0000
  Fe  Fe123     1.0  0.59331  0.09610  0.66184  1.0000
  S   S244      1.0  0.59583  0.06345  0.63977  1.0000
  Fe  Fe124     1.0  0.60882  0.14488  0.67579  1.0000
  S   S245      1.0  0.63304  0.17559  0.67176  1.0000
  S   S246      1.0  0.56262  0.09762  0.68558  1.0000
  S   S247      1.0  0.57992  0.14880  0.70148  1.0000
  Fe  Fe125     1.0  0.59623  0.34100  0.59911  1.0000
  S   S248      1.0  0.60028  0.31286  0.57264  1.0000
  S   S249      1.0  0.56061  0.35816  0.60049  1.0000
  Fe  Fe126     1.0  0.64703  0.33734  0.61334  1.0000
  S   S250      1.0  0.65429  0.30829  0.58853  1.0000
  S   S251      1.0  0.67479  0.35281  0.63677  1.0000
  Fe  Fe127     1.0  0.63383  0.32956  0.56308  1.0000
  S   S252      1.0  0.64893  0.32941  0.52676  1.0000
  Fe  Fe128     1.0  0.62019  0.29362  0.59993  1.0000
  S   S253      1.0  0.61010  0.25549  0.59976  1.0000
  S   S254      1.0  0.62855  0.35958  0.58728  1.0000
  S   S255      1.0  0.61416  0.32092  0.62716  1.0000
  Fe  Fe129     1.0  0.80249  0.40104  0.61791  1.0000
  S   S256      1.0  0.83146  0.37529  0.62263  1.0000
  S   S257      1.0  0.77111  0.38873  0.59703  1.0000
  Fe  Fe130     1.0  0.83256  0.44103  0.63759  1.0000
  S   S258      1.0  0.86358  0.41800  0.64270  1.0000
  S   S259      1.0  0.83065  0.47778  0.65195  1.0000
  Fe  Fe131     1.0  0.85410  0.40291  0.60776  1.0000
  S   S260      1.0  0.87956  0.39717  0.57834  1.0000
  Fe  Fe132     1.0  0.83802  0.39258  0.65706  1.0000
  S   S261      1.0  0.83996  0.37290  0.69113  1.0000
  S   S262      1.0  0.82506  0.42816  0.60163  1.0000
  S   S263      1.0  0.80713  0.41618  0.65344  1.0000
  C   C839      1.0  0.86765  0.34326  0.52076  1.0000
  C   C840      1.0  0.85403  0.34293  0.54083  1.0000
  C   C841      1.0  0.85742  0.35936  0.55856  1.0000
  C   C842      1.0  0.87505  0.37581  0.55673  1.0000
  C   C843      1.0  0.88914  0.37570  0.53696  1.0000
  H   H1433     1.0  0.78606  0.35647  0.63389  1.0000
  H   H1434     1.0  0.84050  0.33014  0.54252  1.0000
  H   H1435     1.0  0.84654  0.35915  0.57371  1.0000
  H   H1436     1.0  0.90290  0.38827  0.53546  1.0000
  H   H1437     1.0  0.54396  0.25248  0.72658  1.0000
  C   C844      1.0  0.88193  0.38945  0.70783  1.0000
  C   C845      1.0  0.86142  0.37766  0.71268  1.0000
  C   C846      1.0  0.85797  0.36906  0.73510  1.0000
  H   H1438     1.0  0.88501  0.39566  0.69053  1.0000
  H   H1439     1.0  0.56759  0.23513  0.73785  1.0000
  C   C847      1.0  0.65135  0.00733  0.65265  1.0000
  C   C848      1.0  0.59329  0.23641  0.69818  1.0000
  H   H1440     1.0  0.57195  0.01271  0.72041  1.0000
  H   H1441     1.0  0.56682  0.05078  0.70523  1.0000
  H   H1442     1.0  0.66714  0.03244  0.67527  1.0000
  C   C849      1.0  0.70135  0.36300  0.62536  1.0000
  C   C850      1.0  0.71476  0.37870  0.63827  1.0000
  C   C851      1.0  0.73614  0.38678  0.62981  1.0000
  C   C852      1.0  0.74448  0.37891  0.60853  1.0000
  C   C853      1.0  0.73107  0.36324  0.59563  1.0000
  C   C854      1.0  0.70966  0.35524  0.60403  1.0000
  H   H1443     1.0  0.70840  0.38492  0.65472  1.0000
  H   H1444     1.0  0.74598  0.39942  0.63951  1.0000
  H   H1445     1.0  0.73740  0.35698  0.57920  1.0000
  H   H1446     1.0  0.69974  0.34279  0.59419  1.0000
  C   C855      1.0  0.56019  0.25660  0.68087  1.0000
  N   N60       1.0  0.52763  0.08329  0.60504  1.0000
  C   C856      1.0  0.53954  0.35239  0.62181  1.0000
  C   C857      1.0  0.54542  0.34244  0.64300  1.0000
  C   C858      1.0  0.52846  0.33991  0.66024  1.0000
  H   H1447     1.0  0.53330  0.33279  0.67681  1.0000
  H   H1448     1.0  0.85887  0.45286  0.74075  1.0000
  H   H1449     1.0  0.56317  0.33736  0.64632  1.0000
  H   H1450     1.0  0.57254  0.25951  0.64465  1.0000
  H   H1451     1.0  0.55349  0.20195  0.63814  1.0000
  C   C859      1.0  0.53213  0.06120  0.61827  1.0000
  C   C860      1.0  0.54520  0.12484  0.60285  1.0000
  H   H1452     1.0  0.61492  0.36710  0.52309  1.0000
  H   H1453     1.0  0.72192  0.42618  0.51770  1.0000
  H   H1454     1.0  0.91118  0.46220  0.73184  1.0000
  C   C861      1.0  0.61744  0.04210  0.64490  1.0000
  C   C862      1.0  0.63594  0.04624  0.65994  1.0000
  C   C863      1.0  0.61596  0.02046  0.63376  1.0000
  H   H1455     1.0  0.63744  0.06285  0.66847  1.0000
  N   N61       1.0  0.56954  0.23319  0.68777  1.0000
  C   C864      1.0  0.62759  0.19735  0.65096  1.0000
  C   C865      1.0  0.61291  0.19339  0.63214  1.0000
  C   C866      1.0  0.60818  0.21130  0.61640  1.0000
  C   C867      1.0  0.61784  0.23342  0.61943  1.0000
  C   C868      1.0  0.63277  0.23735  0.63807  1.0000
  C   C869      1.0  0.63779  0.21929  0.65363  1.0000
  H   H1456     1.0  0.60509  0.17657  0.62977  1.0000
  H   H1457     1.0  0.59660  0.20810  0.60204  1.0000
  H   H1458     1.0  0.64043  0.25426  0.64049  1.0000
  H   H1459     1.0  0.64937  0.22242  0.66800  1.0000
  H   H1460     1.0  0.79325  0.38221  0.70708  1.0000
  H   H1461     1.0  0.66593  0.38458  0.54898  1.0000
  H   H1462     1.0  0.84111  0.42333  0.55015  1.0000
  H   H1463     1.0  0.52701  0.27570  0.63532  1.0000
  C   C870      1.0  0.57338  0.26903  0.66130  1.0000
  H   H1464     1.0  0.53524  0.22171  0.69752  1.0000
  H   H1465     1.0  0.58776  0.03683  0.68724  1.0000
  H   H1466     1.0  0.58521  0.22399  0.65530  1.0000
  H   H1467     1.0  0.60871  0.22600  0.55234  1.0000
  H   H1468     1.0  0.72013  0.33645  0.67371  1.0000
  N   N62       1.0  0.77108  0.33990  0.67839  1.0000
  C   C871      1.0  0.76442  0.33272  0.65414  1.0000
  C   C872      1.0  0.75223  0.33126  0.69412  1.0000
  C   C873      1.0  0.79383  0.32824  0.68408  1.0000
  C   C874      1.0  0.77356  0.36590  0.67888  1.0000
  H   H1469     1.0  0.59410  0.25201  0.52258  1.0000
  C   C875      1.0  0.72802  0.34207  0.69029  1.0000
  C   C876      1.0  0.55309  0.22233  0.70474  1.0000
  C   C877      1.0  0.77499  0.37812  0.70262  1.0000
  H   H1470     1.0  0.76061  0.31382  0.65331  1.0000
  H   H1471     1.0  0.74825  0.34156  0.64849  1.0000
  H   H1472     1.0  0.75649  0.33392  0.71257  1.0000
  H   H1473     1.0  0.75044  0.31212  0.69236  1.0000
  H   H1474     1.0  0.79380  0.30992  0.67791  1.0000
  H   H1475     1.0  0.80837  0.33677  0.67482  1.0000
  H   H1476     1.0  0.78940  0.37116  0.66938  1.0000
  H   H1477     1.0  0.75931  0.37436  0.66913  1.0000
  H   H1478     1.0  0.59635  0.19820  0.70486  1.0000
  H   H1479     1.0  0.57766  0.19988  0.67213  1.0000
  H   H1480     1.0  0.59655  0.05832  0.70841  1.0000
  C   C878      1.0  0.62638  0.21864  0.55202  1.0000
  H   H1481     1.0  0.71619  0.33610  0.70412  1.0000
  H   H1482     1.0  0.72834  0.36124  0.69114  1.0000
  C   C879      1.0  0.86151  0.49326  0.71862  1.0000
  H   H1483     1.0  0.89667  0.48908  0.68792  1.0000
  H   H1484     1.0  0.54314  0.23030  0.64483  1.0000
  H   H1485     1.0  0.60178  0.01710  0.62201  1.0000
  H   H1486     1.0  0.84224  0.35978  0.73902  1.0000
  S   S264      1.0  0.58812  0.09434  0.74664  1.0000
  H   H1487     1.0  0.83920  0.42758  0.71402  1.0000
  H   H1488     1.0  0.62729  0.20405  0.53953  1.0000
  C   C880      1.0  0.68356  0.37786  0.55269  1.0000
  H   H1489     1.0  0.87958  0.43697  0.72506  1.0000
  H   H1490     1.0  0.52749  0.07592  0.65339  1.0000
  C   C881      1.0  0.52276  0.06037  0.64320  1.0000
  H   H1491     1.0  0.66994  0.28833  0.54581  1.0000
  H   H1492     1.0  0.64621  0.24816  0.56289  1.0000
  H   H1493     1.0  0.80130  0.34454  0.71799  1.0000
  C   C882      1.0  0.88763  0.47274  0.69244  1.0000
  H   H1494     1.0  0.74064  0.38523  0.54587  1.0000
  H   H1495     1.0  0.59176  0.27228  0.66580  1.0000
  C   C883      1.0  0.63122  0.04539  0.74379  1.0000
  N   N63       1.0  0.60933  0.01158  0.72393  1.0000
  H   H1496     1.0  0.85448  0.43819  0.68968  1.0000
  H   H1497     1.0  0.79317  0.38361  0.52096  1.0000
  H   H1498     1.0  0.53548  0.20575  0.66271  1.0000
  C   C884      1.0  0.74082  0.40310  0.53925  1.0000
  C   C885      1.0  0.84754  0.44326  0.70678  1.0000
  H   H1499     1.0  0.55647  0.09694  0.62448  1.0000
  H   H1500     1.0  0.71309  0.36327  0.53577  1.0000
  C   C886      1.0  0.88526  0.35973  0.51889  1.0000
  C   C887      1.0  0.58670  0.02473  0.72343  1.0000
  C   C888      1.0  0.62666  0.27170  0.52996  1.0000
  H   H1501     1.0  0.59048  0.28185  0.52709  1.0000
  H   H1502     1.0  0.75497  0.40500  0.52650  1.0000
  H   H1503     1.0  0.51173  0.36642  0.60128  1.0000
  H   H1504     1.0  0.79126  0.42081  0.50753  1.0000
  C   C889      1.0  0.89875  0.39268  0.72522  1.0000
  H   H1505     1.0  0.50854  0.27590  0.61132  1.0000
  H   H1506     1.0  0.67239  0.41393  0.52493  1.0000
  C   C890      1.0  0.65280  0.02897  0.66373  1.0000
  H   H1507     1.0  0.53319  0.09448  0.56955  1.0000
  C   C891      1.0  0.78237  0.33775  0.63515  1.0000
  C   C892      1.0  0.53652  0.07944  0.58086  1.0000
  C   C893      1.0  0.87475  0.37241  0.75257  1.0000
  C   C894      1.0  0.53961  0.10303  0.61731  1.0000
  C   C895      1.0  0.62493  0.36635  0.50734  1.0000
  H   H1508     1.0  0.81334  0.42955  0.53813  1.0000
  H   H1509     1.0  0.59643  0.26363  0.55146  1.0000
  C   C896      1.0  0.54948  0.21398  0.65263  1.0000
  H   H1510     1.0  0.56386  0.12516  0.59822  1.0000
  C   C897      1.0  0.51729  0.44268  0.65039  1.0000
  H   H1511     1.0  0.76540  0.39481  0.70178  1.0000
  C   C898      1.0  0.82685  0.41597  0.53951  1.0000
  H   H1512     1.0  0.55399  0.44253  0.64195  1.0000
  H   H1513     1.0  0.77510  0.33244  0.61817  1.0000
  H   H1514     1.0  0.55103  0.05779  0.61978  1.0000
  H   H1515     1.0  0.60588  0.24192  0.68477  1.0000
  H   H1516     1.0  0.54428  0.41534  0.65241  1.0000
  H   H1517     1.0  0.83383  0.45655  0.70453  1.0000
  H   H1518     1.0  0.55773  0.20390  0.70804  1.0000
  H   H1519     1.0  0.81897  0.32049  0.71084  1.0000
  H   H1520     1.0  0.85014  0.49148  0.73398  1.0000
  H   H1521     1.0  0.68095  0.36123  0.56185  1.0000
  H   H1522     1.0  0.79871  0.32790  0.63758  1.0000
  H   H1523     1.0  0.63743  0.06235  0.73725  1.0000
  H   H1524     1.0  0.76721  0.36861  0.71709  1.0000
  C   C899      1.0  0.85208  0.49929  0.64812  1.0000
  H   H1525     1.0  0.53754  0.42447  0.62321  1.0000
  H   H1526     1.0  0.82006  0.40098  0.54929  1.0000
  H   H1527     1.0  0.56529  0.28625  0.65829  1.0000
  C   C900      1.0  0.89896  0.47710  0.73302  1.0000
  C   C901      1.0  0.71753  0.41137  0.52906  1.0000
  C   C902      1.0  0.87020  0.49663  0.63233  1.0000
  H   H1528     1.0  0.56631  0.05561  0.58413  1.0000
  H   H1529     1.0  0.57358  0.08553  0.58940  1.0000
  H   H1530     1.0  0.54166  0.25543  0.67568  1.0000
  H   H1531     1.0  0.56816  0.07538  0.56068  1.0000
  H   H1532     1.0  0.70746  0.41965  0.54327  1.0000
  H   H1533     1.0  0.92133  0.45473  0.69565  1.0000
  H   H1534     1.0  0.52933  0.10882  0.63248  1.0000
  H   H1535     1.0  0.87128  0.48109  0.62188  1.0000
  C   C903      1.0  0.60063  0.26660  0.53303  1.0000
  H   H1536     1.0  0.60310  0.21669  0.72922  1.0000
  H   H1537     1.0  0.69289  0.38963  0.56465  1.0000
  C   C904      1.0  0.83682  0.40897  0.51574  1.0000
  H   H1538     1.0  0.68391  0.26138  0.55364  1.0000
  H   H1539     1.0  0.62954  0.21112  0.56937  1.0000
  C   C905      1.0  0.89527  0.38425  0.74771  1.0000
  H   H1540     1.0  0.58279  0.03296  0.74038  1.0000
  H   H1541     1.0  0.52487  0.04597  0.60887  1.0000
  N   N64       1.0  0.64260  0.25139  0.52571  1.0000
  C   C906      1.0  0.62972  0.02782  0.72362  1.0000
  H   H1542     1.0  0.52695  0.06497  0.57239  1.0000
  H   H1543     1.0  0.66180  0.22697  0.54682  1.0000
  C   C907      1.0  0.51643  0.35898  0.61776  1.0000
  H   H1544     1.0  0.74507  0.41381  0.55468  1.0000
  H   H1545     1.0  0.59300  0.25072  0.71113  1.0000
  C   C908      1.0  0.90451  0.45283  0.68661  1.0000
  H   H1546     1.0  0.51214  0.39600  0.65907  1.0000
  C   C909      1.0  0.80098  0.32731  0.70971  1.0000
  C   C910      1.0  0.58469  0.04364  0.70487  1.0000
  H   H1547     1.0  0.54235  0.14048  0.61374  1.0000
  H   H1548     1.0  0.62269  0.21389  0.70598  1.0000
  H   H1549     1.0  0.89704  0.43561  0.69019  1.0000
  H   H1550     1.0  0.64629  0.01798  0.72389  1.0000
  H   H1551     1.0  0.56043  0.26874  0.69582  1.0000
  H   H1552     1.0  0.51949  0.42157  0.69416  1.0000
  H   H1553     1.0  0.78992  0.31530  0.71967  1.0000
  C   C911      1.0  0.57168  0.21748  0.66708  1.0000
  C   C912      1.0  0.60393  0.21494  0.71016  1.0000
  H   H1554     1.0  0.69617  0.27977  0.53227  1.0000
  C   C913      1.0  0.55097  0.23469  0.72831  1.0000
  H   H1555     1.0  0.62830  0.28502  0.51622  1.0000
  H   H1556     1.0  0.91465  0.40163  0.72120  1.0000
  C   C914      1.0  0.69746  0.37304  0.53047  1.0000
  H   H1557     1.0  0.63063  0.03754  0.70714  1.0000
  H   H1558     1.0  0.67775  0.24671  0.51310  1.0000
  H   H1559     1.0  0.84926  0.49281  0.70375  1.0000
  N   N65       1.0  0.70318  0.39390  0.51601  1.0000
  H   H1560     1.0  0.52177  0.44936  0.66780  1.0000
  H   H1561     1.0  0.68738  0.36042  0.52001  1.0000
  H   H1562     1.0  0.87305  0.47155  0.67997  1.0000
  H   H1563     1.0  0.53466  0.12732  0.58717  1.0000
  C   C915      1.0  0.67954  0.27314  0.53918  1.0000
  C   C916      1.0  0.53925  0.43021  0.64142  1.0000
  N   N66       1.0  0.87876  0.47361  0.71690  1.0000
  C   C917      1.0  0.64520  0.23689  0.54724  1.0000
  C   C918      1.0  0.66621  0.26082  0.51958  1.0000
  C   C919      1.0  0.86687  0.45136  0.72334  1.0000
  H   H1564     1.0  0.63202  0.28120  0.54580  1.0000
  H   H1565     1.0  0.90827  0.45327  0.66780  1.0000
  H   H1566     1.0  0.82041  0.37007  0.52382  1.0000
  C   C920      1.0  0.56263  0.07374  0.57895  1.0000
  H   H1567     1.0  0.90972  0.49220  0.72784  1.0000
  C   C921      1.0  0.68053  0.40549  0.50965  1.0000
  H   H1568     1.0  0.53052  0.04523  0.65216  1.0000
  H   H1569     1.0  0.79095  0.34483  0.50641  1.0000
  H   H1570     1.0  0.50586  0.39457  0.69999  1.0000
  H   H1571     1.0  0.74693  0.37021  0.50816  1.0000
  H   H1572     1.0  0.51495  0.30282  0.62595  1.0000
  C   C922      1.0  0.51120  0.28413  0.62833  1.0000
  H   H1573     1.0  0.85154  0.39700  0.51903  1.0000
  H   H1574     1.0  0.61280  0.00701  0.68695  1.0000
  H   H1575     1.0  0.51468  0.45833  0.63947  1.0000
  C   C923      1.0  0.63479  0.23656  0.50568  1.0000
  H   H1576     1.0  0.62677  0.12681  0.75129  1.0000
  H   H1577     1.0  0.53858  0.22492  0.73921  1.0000
  H   H1578     1.0  0.84467  0.42493  0.50851  1.0000
  H   H1579     1.0  0.61829  0.22755  0.50928  1.0000
  C   C924      1.0  0.80853  0.37785  0.51085  1.0000
  H   H1580     1.0  0.61445  0.04905  0.75218  1.0000
  C   C925      1.0  0.64215  0.34947  0.50469  1.0000
  Fe  Fe133     1.0  0.67430  0.04216  0.87818  1.0000
  S   S265      1.0  0.64374  0.06637  0.87862  1.0000
  C   C926      1.0  0.89151  0.38439  0.91584  1.0000
  Fe  Fe134     1.0  0.70894  0.08129  0.89124  1.0000
  S   S266      1.0  0.68090  0.10825  0.89254  1.0000
  S   S267      1.0  0.74646  0.08429  0.90301  1.0000
  Fe  Fe135     1.0  0.65984  0.08141  0.91109  1.0000
  S   S268      1.0  0.64106  0.08323  0.94561  1.0000
  Fe  Fe136     1.0  0.66740  0.09101  0.85989  1.0000
  S   S269      1.0  0.66097  0.11283  0.82775  1.0000
  S   S270      1.0  0.68874  0.05539  0.91159  1.0000
  S   S271      1.0  0.69711  0.06577  0.85762  1.0000
  Fe  Fe137     1.0  0.85259  0.16883  0.91415  1.0000
  S   S272      1.0  0.84690  0.19279  0.94425  1.0000
  S   S273      1.0  0.82109  0.16420  0.89082  1.0000
  Fe  Fe138     1.0  0.90338  0.15926  0.92798  1.0000
  S   S274      1.0  0.90017  0.18204  0.95942  1.0000
  S   S275      1.0  0.93735  0.13877  0.92614  1.0000
  Fe  Fe139     1.0  0.86536  0.16557  0.96517  1.0000
  H   H1581     1.0  0.70040  0.15116  0.96579  1.0000
  Fe  Fe140     1.0  0.88209  0.20699  0.93539  1.0000
  S   S276      1.0  0.89423  0.24457  0.93675  1.0000
  S   S277      1.0  0.86965  0.14110  0.93518  1.0000
  S   S278      1.0  0.88683  0.18490  0.90372  1.0000
  Fe  Fe141     1.0  0.95547  0.35970  0.84254  1.0000
  S   S279      1.0  0.93055  0.36405  0.87195  1.0000
  S   S280      1.0  0.99041  0.34115  0.84614  1.0000
  Fe  Fe142     1.0  0.91950  0.37741  0.80651  1.0000
  S   S281      1.0  0.89200  0.38254  0.83351  1.0000
  S   S282      1.0  0.91700  0.38936  0.76893  1.0000
  Fe  Fe143     1.0  0.92045  0.39787  0.85511  1.0000
  S   S283      1.0  0.91743  0.43083  0.87657  1.0000
  Fe  Fe144     1.0  0.90422  0.34835  0.84814  1.0000
  S   S284      1.0  0.87844  0.32048  0.85850  1.0000
  S   S285      1.0  0.94761  0.39474  0.82751  1.0000
  S   S286      1.0  0.92950  0.34197  0.81930  1.0000
  N   N67       1.0  0.95200  0.27141  0.85578  1.0000
  H   H1582     1.0  0.72218  0.08092  0.81356  1.0000
  H   H1583     1.0  0.70135  0.14774  0.92716  1.0000
  H   H1584     1.0  0.83226  0.43071  0.92263  1.0000
  C   C927      1.0  0.60905  0.09922  0.76865  1.0000
  C   C928      1.0  0.85544  0.48099  0.87532  1.0000
  C   C929      1.0  0.87447  0.48523  0.88968  1.0000
  C   C930      1.0  0.89337  0.46974  0.88982  1.0000
  C   C931      1.0  0.89358  0.45011  0.87539  1.0000
  C   C932      1.0  0.87484  0.44624  0.86058  1.0000
  C   C933      1.0  0.85573  0.46144  0.86078  1.0000
  C   C934      1.0  0.95904  0.30369  0.88635  1.0000
  H   H1585     1.0  0.90786  0.47291  0.90127  1.0000
  H   H1586     1.0  0.87512  0.43157  0.84896  1.0000
  H   H1587     1.0  0.84117  0.45819  0.84944  1.0000
  C   C935      1.0  0.88951  0.26539  0.91480  1.0000
  C   C936      1.0  0.90093  0.28683  0.91626  1.0000
  C   C937      1.0  0.89795  0.30375  0.89903  1.0000
  C   C938      1.0  0.88325  0.29948  0.88028  1.0000
  C   C939      1.0  0.87155  0.27821  0.87900  1.0000
  C   C940      1.0  0.87486  0.26111  0.89601  1.0000
  H   H1588     1.0  0.91222  0.29032  0.93078  1.0000
  H   H1589     1.0  0.90686  0.32014  0.90039  1.0000
  H   H1590     1.0  0.85998  0.27482  0.86467  1.0000
  H   H1591     1.0  0.86589  0.24473  0.89474  1.0000
  C   C941      1.0  0.95953  0.14029  0.90496  1.0000
  C   C942      1.0  0.95706  0.15332  0.88480  1.0000
  C   C943      1.0  0.97474  0.15313  0.86801  1.0000
  H   H1592     1.0  0.77220  0.11902  0.84560  1.0000
  C   C944      1.0  0.98012  0.12762  0.90838  1.0000
  H   H1593     1.0  0.94130  0.16308  0.88190  1.0000
  H   H1594     1.0  0.98222  0.11748  0.92390  1.0000
  C   C945      1.0  0.76637  0.10751  0.90097  1.0000
  C   C946      1.0  0.75999  0.12930  0.89264  1.0000
  C   C947      1.0  0.77679  0.14677  0.89016  1.0000
  C   C948      1.0  0.79997  0.14281  0.89658  1.0000
  C   C949      1.0  0.80608  0.12138  0.90595  1.0000
  C   C950      1.0  0.78939  0.10378  0.90798  1.0000
  H   H1595     1.0  0.74219  0.13269  0.88800  1.0000
  H   H1596     1.0  0.77188  0.16340  0.88312  1.0000
  H   H1597     1.0  0.82387  0.11808  0.91088  1.0000
  H   H1598     1.0  0.79447  0.08706  0.91467  1.0000
  C   C951      1.0  0.64115  0.10666  0.80505  1.0000
  C   C952      1.0  0.64193  0.12004  0.78483  1.0000
  C   C953      1.0  0.85159  0.35346  0.91414  1.0000
  H   H1599     1.0  0.74211  0.12330  0.76647  1.0000
  C   C954      1.0  0.60843  0.08566  0.78877  1.0000
  C   C955      1.0  0.62448  0.08923  0.80682  1.0000
  H   H1600     1.0  0.65470  0.13361  0.78329  1.0000
  H   H1601     1.0  0.92990  0.30068  0.86411  1.0000
  H   H1602     1.0  0.59529  0.07249  0.79052  1.0000
  H   H1603     1.0  0.62361  0.07888  0.82231  1.0000
  C   C956      1.0  0.64440  0.10535  0.96668  1.0000
  C   C957      1.0  0.63828  0.10078  0.98970  1.0000
  C   C958      1.0  0.65243  0.12740  0.96095  1.0000
  C   C959      1.0  0.71210  0.10950  0.97916  1.0000
  H   H1604     1.0  0.65682  0.13128  0.94325  1.0000
  H   H1605     1.0  0.81906  0.36527  0.88290  1.0000
  H   H1606     1.0  0.88197  0.37053  0.88266  1.0000
  C   C960      1.0  0.90925  0.09206  0.96929  1.0000
  H   H1607     1.0  0.70101  0.11458  0.79963  1.0000
  H   H1608     1.0  0.96635  0.25935  0.89991  1.0000
  H   H1609     1.0  0.91271  0.29364  0.83063  1.0000
  N   N68       1.0  0.72902  0.12902  0.97558  1.0000
  H   H1610     1.0  0.99483  0.37658  0.88224  1.0000
  C   C961      1.0  0.97761  0.26641  0.85396  1.0000
  C   C962      1.0  0.77092  0.13739  0.96235  1.0000
  H   H1611     1.0  0.90545  0.49101  0.76751  1.0000
  H   H1612     1.0  0.66067  0.03943  0.94863  1.0000
  H   H1613     1.0  0.84954  0.40115  0.85858  1.0000
  H   H1614     1.0  0.69532  0.11618  0.98591  1.0000
  H   H1615     1.0  0.69574  0.10502  0.94505  1.0000
  H   H1616     1.0  0.87817  0.07720  0.98530  1.0000
  C   C963      1.0  0.84403  0.41963  0.91217  1.0000
  H   H1617     1.0  0.87507  0.40003  0.88638  1.0000
  H   H1618     1.0  0.91557  0.07404  0.96677  1.0000
  H   H1619     1.0  0.82095  0.33310  0.90411  1.0000
  C   C964      1.0  0.88280  0.08975  0.97166  1.0000
  H   H1620     1.0  0.87186  0.36577  0.76975  1.0000
  H   H1621     1.0  0.69773  0.03041  0.96492  1.0000
  C   C965      1.0  0.65402  0.14474  0.97806  1.0000
  C   C966      1.0  0.87449  0.38306  0.89526  1.0000
  N   N69       1.0  0.73547  0.11588  0.81471  1.0000
  H   H1622     1.0  0.60916  0.00892  0.76120  1.0000
  C   C967      1.0  0.71866  0.14780  0.96071  1.0000
  H   H1623     1.0  0.78553  0.12886  0.95315  1.0000
  H   H1624     1.0  0.89022  0.49219  0.84277  1.0000
  H   H1625     1.0  0.97767  0.20416  0.92108  1.0000
  H   H1626     1.0  0.95524  0.06768  0.98979  1.0000
  C   C968      1.0  0.66009  0.02553  0.96178  1.0000
  C   C969      1.0  0.98408  0.24198  0.84514  1.0000
  H   H1627     1.0  0.95046  0.29495  0.90098  1.0000
  C   C970      1.0  0.71793  0.14692  0.84185  1.0000
  H   H1628     1.0  0.84542  0.35756  0.86902  1.0000
  H   H1629     1.0  0.89780  0.36685  0.92060  1.0000
  H   H1630     1.0  0.76783  0.12062  0.79651  1.0000
  H   H1631     1.0  0.95586  0.32250  0.88882  1.0000
  H   H1632     1.0  0.98601  0.27923  0.84229  1.0000
  H   H1633     1.0  0.95353  0.07491  0.95929  1.0000
  C   C971      1.0  0.92559  0.49038  0.83361  1.0000
  S   S287      1.0  0.84760  0.14717  0.99527  1.0000
  H   H1634     1.0  0.74916  0.11050  0.94940  1.0000
  H   H1635     1.0  0.65967  0.16193  0.97339  1.0000
  H   H1636     1.0  0.98135  0.24047  0.82623  1.0000
  H   H1637     1.0  0.72064  0.08608  0.94984  1.0000
  H   H1638     1.0  0.64513  0.03003  0.97309  1.0000
  H   H1639     1.0  0.99893  0.22595  0.92608  1.0000
  C   C972      1.0  0.83683  0.37158  0.87920  1.0000
  H   H1640     1.0  0.92485  0.47175  0.82874  1.0000
  H   H1641     1.0  0.71493  0.14175  0.79665  1.0000
  C   C973      1.0  0.99641  0.20704  0.92440  1.0000
  H   H1642     1.0  0.86228  0.34065  0.90435  1.0000
  C   C974      1.0  0.82835  0.34161  0.91967  1.0000
  H   H1643     1.0  0.74602  0.15444  0.99752  1.0000
  H   H1644     1.0  0.86191  0.42375  0.91786  1.0000
  H   H1645     1.0  0.72778  0.16451  0.96383  1.0000
  C   C975      1.0  0.71884  0.14393  0.93426  1.0000
  H   H1646     1.0  0.95152  0.27974  0.81924  1.0000
  H   H1647     1.0  0.87571  0.08274  0.95522  1.0000
  C   C976      1.0  0.83788  0.39388  0.91614  1.0000
  H   H1648     1.0  0.95778  0.11203  0.99693  1.0000
  C   C977      1.0  0.94857  0.29629  0.86301  1.0000
  H   H1649     1.0  0.90697  0.39459  0.91082  1.0000
  H   H1650     1.0  0.62570  0.00988  0.87668  1.0000
  C   C978      1.0  0.62607  0.11626  0.76665  1.0000
  H   H1651     1.0  0.84133  0.39069  0.93479  1.0000
  H   H1652     1.0  0.85539  0.50290  0.82361  1.0000
  N   N70       1.0  0.85010  0.37612  0.90123  1.0000
  H   H1653     1.0  0.76522  0.15210  0.95149  1.0000
  C   C979      1.0  0.83324  0.39226  0.86292  1.0000
  C   C980      1.0  0.89292  0.47921  0.75894  1.0000
  H   H1654     1.0  0.72350  0.09796  0.76771  1.0000
  H   H1655     1.0  0.81558  0.35379  0.92729  1.0000
  C   C981      1.0  0.94733  0.10454  0.98258  1.0000
  H   H1656     1.0  0.87443  0.50021  0.90095  1.0000
  H   H1657     1.0  0.83147  0.32760  0.93241  1.0000
  C   C982      1.0  0.75149  0.11950  0.96611  1.0000
  H   H1658     1.0  0.86049  0.35580  0.93104  1.0000
  H   H1659     1.0  0.79252  0.12995  0.82561  1.0000
  H   H1660     1.0  0.84203  0.42517  0.89407  1.0000
  H   H1661     1.0  0.97810  0.30153  0.88707  1.0000
  H   H1662     1.0  0.90490  0.26539  0.84164  1.0000
  H   H1663     1.0  0.97792  0.08345  0.97599  1.0000
  C   C983      1.0  0.77432  0.13170  0.83160  1.0000
  H   H1664     1.0  0.73562  0.11601  0.85230  1.0000
  C   C984      1.0  0.99515  0.14013  0.87126  1.0000
  C   C985      1.0  0.94190  0.26880  0.83182  1.0000
  H   H1665     1.0  0.68085  0.04555  0.98585  1.0000
  H   H1666     1.0  0.74974  0.08152  0.84866  1.0000
  H   H1667     1.0  0.93516  0.23874  0.86266  1.0000
  H   H1668     1.0  0.82039  0.40468  0.87003  1.0000
  H   H1669     1.0  0.95571  0.30803  0.84966  1.0000
  C   C986      1.0  0.75530  0.07866  0.83058  1.0000
  C   C987      1.0  0.95209  0.24798  0.89428  1.0000
  H   H1670     1.0  0.70222  0.15175  0.83186  1.0000
  H   H1671     1.0  0.75503  0.05962  0.82784  1.0000
  C   C988      1.0  0.93944  0.25519  0.87183  1.0000
  H   H1672     1.0  0.70851  0.11106  0.84000  1.0000
  H   H1673     1.0  0.94365  0.25065  0.82555  1.0000
  C   C989      1.0  0.71814  0.12275  0.79634  1.0000
  H   H1674     1.0  0.95848  0.22989  0.89281  1.0000
  H   H1675     1.0  0.93913  0.49849  0.82295  1.0000
  H   H1676     1.0  0.71340  0.14939  0.86032  1.0000
  C   C990      1.0  0.72471  0.11682  0.77118  1.0000
  C   C991      1.0  0.75775  0.12888  0.81071  1.0000
  H   H1677     1.0  0.82593  0.38580  0.84636  1.0000
  H   H1678     1.0  0.75381  0.14680  0.80474  1.0000
  H   H1679     1.0  0.95023  0.11614  0.96755  1.0000
  C   C992      1.0  0.91593  0.27477  0.82917  1.0000
  C   C993      1.0  0.73915  0.09007  0.81270  1.0000
  H   H1680     1.0  0.91007  0.26967  0.81161  1.0000
  C   C994      1.0  0.72456  0.12134  0.83773  1.0000
  H   H1681     1.0  0.77354  0.08410  0.82820  1.0000
  H   H1682     1.0  0.92243  0.26272  0.87688  1.0000
  H   H1683     1.0  0.72339  0.12631  0.92842  1.0000
  H   H1684     1.0  0.97244  0.16285  0.85225  1.0000
  H   H1685     1.0  0.88377  0.39284  0.93120  1.0000
  H   H1686     1.0  0.73226  0.15894  0.83782  1.0000
  C   C995      1.0  0.70559  0.09483  0.95790  1.0000
  H   H1687     1.0  0.74677  0.08546  0.79569  1.0000
  C   C996      1.0  0.73435  0.13924  0.99908  1.0000
  H   H1688     1.0  0.77307  0.14948  0.83890  1.0000
  H   H1689     1.0  0.81875  0.39231  0.91421  1.0000
  H   H1690     1.0  0.89503  0.49562  0.81283  1.0000
  H   H1691     1.0  0.73082  0.15634  0.92591  1.0000
  S   S288      1.0  0.83106  0.49958  0.87479  1.0000
  N   N71       1.0  0.92194  0.10381  0.98888  1.0000
  H   H1692     1.0  0.69366  0.08090  0.96348  1.0000
  C   C997      1.0  0.91371  0.12855  0.99070  1.0000
  C   C998      1.0  0.95884  0.08110  0.97667  1.0000
  C   C999      1.0  0.90140  0.50124  0.83011  1.0000
  H   H1693     1.0  0.93939  0.24780  0.90868  1.0000
  H   H1694     1.0  0.98672  0.26878  0.87060  1.0000
  H   H1695     1.0  0.71203  0.12526  0.75942  1.0000
  H   H1696     1.0  0.63188  0.08384  0.99429  1.0000
  H   H1697     1.0  0.91504  0.13710  0.97358  1.0000
  C   C1000     1.0  0.68229  0.02892  0.97623  1.0000
  H   H1698     1.0  0.93073  0.49086  0.85210  1.0000
  H   H1699     1.0  0.91267  0.10126  0.95274  1.0000
  H   H1700     1.0  0.89376  0.46196  0.76738  1.0000
  H   H1701     1.0  0.68513  0.01519  0.98912  1.0000
  H   H1702     1.0  0.97434  0.22815  0.85403  1.0000
  H   H1703     1.0  0.87559  0.48673  0.76219  1.0000
  H   H1704     1.0  0.75851  0.10584  0.97775  1.0000
  H   H1705     1.0  0.00408  0.17901  0.90122  1.0000
  H   H1706     1.0  0.77814  0.14389  0.97889  1.0000
  H   H1707     1.0  0.94420  0.14867  0.00164  1.0000
  C   C1001     1.0  0.99789  0.12761  0.89170  1.0000
  H   H1708     1.0  0.71882  0.09730  0.99247  1.0000
  H   H1709     1.0  0.00282  0.23885  0.84827  1.0000
  H   H1710     1.0  0.89516  0.12982  0.99515  1.0000
  H   H1711     1.0  0.87393  0.10651  0.97459  1.0000
  H   H1712     1.0  0.00034  0.19831  0.94094  1.0000
  H   H1713     1.0  0.64891  0.01615  0.91625  1.0000
  H   H1714     1.0  0.61954  0.03597  0.94203  1.0000
  C   C1002     1.0  0.64802  0.14017  0.00110  1.0000
  H   H1715     1.0  0.64344  0.03920  0.75727  1.0000
  H   H1716     1.0  0.00480  0.20679  0.88858  1.0000
  C   C1003     1.0  0.61708  0.01813  0.93534  1.0000
  H   H1717     1.0  0.60711  0.01980  0.91901  1.0000
  H   H1718     1.0  0.60619  0.00809  0.94739  1.0000
  C   C1004     1.0  0.64030  0.00584  0.93003  1.0000
  H   H1719     1.0  0.70243  0.16038  0.00363  1.0000
  Fe  Fe145     1.0  0.91597  0.65481  0.10352  1.0000
  S   S289      1.0  0.90753  0.68328  0.07850  1.0000
  S   S290      1.0  0.95207  0.63882  0.10504  1.0000
  Fe  Fe146     1.0  0.86531  0.64952  0.11781  1.0000
  S   S291      1.0  0.85345  0.67832  0.09471  1.0000
  S   S292      1.0  0.84284  0.62362  0.13726  1.0000
  Fe  Fe147     1.0  0.87665  0.66202  0.06799  1.0000
  S   S293      1.0  0.86126  0.65980  0.03176  1.0000
  Fe  Fe148     1.0  0.88520  0.69766  0.10705  1.0000
  S   S294      1.0  0.88617  0.73724  0.10943  1.0000
  S   S295      1.0  0.88693  0.63234  0.09047  1.0000
  S   S296      1.0  0.89534  0.67007  0.13274  1.0000
  Fe  Fe149     1.0  0.94976  0.88010  0.18910  1.0000
  S   S297      1.0  0.92611  0.86759  0.16089  1.0000
  H   H1720     1.0  0.89607  0.95227  0.21583  1.0000
  Fe  Fe150     1.0  0.90881  0.89219  0.22188  1.0000
  S   S298      1.0  0.88285  0.87913  0.19609  1.0000
  H   H1721     1.0  0.59990  0.62037  0.24987  1.0000
  Fe  Fe151     1.0  0.90728  0.84930  0.18941  1.0000
  S   S299      1.0  0.89961  0.81056  0.19117  1.0000
  Fe  Fe152     1.0  0.90404  0.89873  0.17013  1.0000
  S   S300      1.0  0.88399  0.92151  0.14503  1.0000
  S   S301      1.0  0.93167  0.86092  0.21755  1.0000
  S   S302      1.0  0.92929  0.91276  0.19603  1.0000
  Fe  Fe153     1.0  0.70483  0.58844  0.12563  1.0000
  S   S303      1.0  0.67138  0.60653  0.11657  1.0000
  S   S304      1.0  0.73423  0.61397  0.11859  1.0000
  Fe  Fe154     1.0  0.67847  0.54325  0.13657  1.0000
  S   S305      1.0  0.64394  0.55852  0.12739  1.0000
  H   H1722     1.0  0.89540  0.56581  0.15328  1.0000
  Fe  Fe155     1.0  0.66243  0.57435  0.09701  1.0000
  S   S306      1.0  0.64913  0.57298  0.05995  1.0000
  Fe  Fe156     1.0  0.65627  0.58931  0.14783  1.0000
  S   S307      1.0  0.63264  0.60929  0.17228  1.0000
  S   S308      1.0  0.69638  0.55665  0.10462  1.0000
  S   S309      1.0  0.69013  0.57364  0.15854  1.0000
  C   C1005     1.0  0.64775  0.59755  0.04180  1.0000
  C   C1006     1.0  0.64893  0.62004  0.05069  1.0000
  C   C1007     1.0  0.64637  0.63917  0.03591  1.0000
  H   H1723     1.0  0.81714  0.98338  0.18708  1.0000
  H   H1724     1.0  0.76678  0.58108  0.04345  1.0000
  C   C1008     1.0  0.64460  0.59441  0.01793  1.0000
  H   H1725     1.0  0.65136  0.62271  0.06902  1.0000
  H   H1726     1.0  0.64696  0.65652  0.04303  1.0000
  C   C1009     1.0  0.93764  0.58184  0.13429  1.0000
  C   C1010     1.0  0.58852  0.55376  0.15931  1.0000
  C   C1011     1.0  0.61465  0.61560  0.21580  1.0000
  C   C1012     1.0  0.63113  0.60377  0.20229  1.0000
  C   C1013     1.0  0.64605  0.58797  0.21294  1.0000
  H   H1727     1.0  0.60312  0.62797  0.20773  1.0000
  H   H1728     1.0  0.65900  0.57901  0.20282  1.0000
  C   C1014     1.0  0.88460  0.95214  0.14692  1.0000
  C   C1015     1.0  0.86664  0.96521  0.13686  1.0000
  C   C1016     1.0  0.86608  0.98956  0.13906  1.0000
  H   H1729     1.0  0.97508  0.80979  0.10534  1.0000
  C   C1017     1.0  0.90176  0.98794  0.16089  1.0000
  C   C1018     1.0  0.90208  0.96364  0.15908  1.0000
  H   H1730     1.0  0.85301  0.95646  0.12745  1.0000
  H   H1731     1.0  0.73824  0.68338  0.21103  1.0000
  H   H1732     1.0  0.93626  0.54613  0.18167  1.0000
  H   H1733     1.0  0.91604  0.95384  0.16680  1.0000
  H   H1734     1.0  0.88141  0.58086  0.00519  1.0000
  H   H1735     1.0  0.99344  0.71539  0.11536  1.0000
  H   H1736     1.0  0.69834  0.61122  0.03377  1.0000
  H   H1737     1.0  0.91276  0.59058  0.10672  1.0000
  H   H1738     1.0  0.88297  0.61378  0.03300  1.0000
  C   C1019     1.0  0.89054  0.75712  0.13250  1.0000
  C   C1020     1.0  0.88999  0.78099  0.12770  1.0000
  C   C1021     1.0  0.89302  0.79757  0.14537  1.0000
  C   C1022     1.0  0.89655  0.79043  0.16813  1.0000
  C   C1023     1.0  0.89737  0.76657  0.17292  1.0000
  C   C1024     1.0  0.89448  0.74997  0.15521  1.0000
  H   H1739     1.0  0.88682  0.78669  0.11021  1.0000
  H   H1740     1.0  0.89204  0.81584  0.14147  1.0000
  H   H1741     1.0  0.90001  0.76088  0.19050  1.0000
  H   H1742     1.0  0.89490  0.73169  0.15917  1.0000
  C   C1025     1.0  0.81254  0.62117  0.13243  1.0000
  C   C1026     1.0  0.79987  0.63892  0.12194  1.0000
  C   C1027     1.0  0.77584  0.63653  0.11844  1.0000
  C   C1028     1.0  0.76422  0.61622  0.12496  1.0000
  C   C1029     1.0  0.77683  0.59845  0.13552  1.0000
  C   C1030     1.0  0.80086  0.60101  0.13937  1.0000
  H   H1743     1.0  0.80855  0.65462  0.11670  1.0000
  H   H1744     1.0  0.76624  0.65043  0.11035  1.0000
  H   H1745     1.0  0.76813  0.58272  0.14062  1.0000
  H   H1746     1.0  0.81048  0.58721  0.14760  1.0000
  C   C1031     1.0  0.98369  0.64930  0.16734  1.0000
  C   C1032     1.0  0.96731  0.65006  0.14926  1.0000
  C   C1033     1.0  0.97199  0.63892  0.12830  1.0000
  C   C1034     1.0  0.99313  0.62711  0.12560  1.0000
  H   H1747     1.0  0.84524  0.91032  0.17510  1.0000
  H   H1748     1.0  0.95110  0.65924  0.15155  1.0000
  C   C1035     1.0  0.56110  0.60077  0.00933  1.0000
  H   H1749     1.0  0.69775  0.68122  0.14462  1.0000
  H   H1750     1.0  0.96283  0.77401  0.11996  1.0000
  C   C1036     1.0  0.70951  0.60503  0.01939  1.0000
  H   H1751     1.0  0.93961  0.81701  0.15864  1.0000
  H   H1752     1.0  0.88649  0.63419  0.16666  1.0000
  C   C1037     1.0  0.82821  0.91063  0.18385  1.0000
  H   H1753     1.0  0.58716  0.59873  0.03726  1.0000
  H   H1754     1.0  0.60124  0.55635  0.23108  1.0000
  H   H1755     1.0  0.89584  0.60381  0.13856  1.0000
  H   H1756     1.0  0.94031  0.82974  0.09603  1.0000
  H   H1757     1.0  0.90271  0.57312  0.18204  1.0000
  H   H1758     1.0  0.82784  0.89726  0.19749  1.0000
  C   C1038     1.0  0.94255  0.59582  0.17465  1.0000
  H   H1759     1.0  0.75480  0.58758  0.07101  1.0000
  H   H1760     1.0  0.78770  0.58518  0.01290  1.0000
  C   C1039     1.0  0.87919  0.96159  0.21623  1.0000
  H   H1761     1.0  0.91565  0.99667  0.16993  1.0000
  H   H1762     1.0  0.54760  0.60288  0.02292  1.0000
  H   H1763     1.0  0.60341  0.52070  0.15009  1.0000
  H   H1764     1.0  0.88257  0.97896  0.20886  1.0000
  H   H1765     1.0  0.83702  0.58548  0.03298  1.0000
  H   H1766     1.0  0.59281  0.63405  0.02116  1.0000
  H   H1767     1.0  0.76111  0.61092  0.05223  1.0000
  H   H1768     1.0  0.97996  0.65790  0.18354  1.0000
  H   H1769     1.0  0.93194  0.80375  0.11017  1.0000
  H   H1770     1.0  0.64384  0.57704  0.01090  1.0000
  C   C1040     1.0  0.81757  0.92015  0.24255  1.0000
  H   H1771     1.0  0.69331  0.68529  0.19168  1.0000
  H   H1772     1.0  0.90989  0.56123  0.11757  1.0000
  H   H1773     1.0  0.64768  0.50703  0.20889  1.0000
  C   C1041     1.0  0.76735  0.59367  0.05782  1.0000
  H   H1774     1.0  0.70045  0.65281  0.13127  1.0000
  C   C1042     1.0  0.62745  0.59521  0.25023  1.0000
  C   C1043     1.0  0.64411  0.58362  0.23674  1.0000
  C   C1044     1.0  0.62737  0.53199  0.18847  1.0000
  C   C1045     1.0  0.92218  0.57532  0.11354  1.0000
  C   C1046     1.0  0.82750  0.98740  0.20270  1.0000
  H   H1775     1.0  0.78541  0.64255  0.06985  1.0000
  H   H1776     1.0  0.86967  0.93153  0.19627  1.0000
  H   H1777     1.0  0.85025  0.91230  0.22608  1.0000
  H   H1778     1.0  0.91954  0.62287  0.14322  1.0000
  H   H1779     1.0  0.57461  0.56105  0.17035  1.0000
  H   H1780     1.0  0.62735  0.55109  0.18750  1.0000
  H   H1781     1.0  0.85973  0.95800  0.18463  1.0000
  H   H1782     1.0  0.59763  0.58918  0.00948  1.0000
  H   H1783     1.0  0.56438  0.63988  0.03144  1.0000
  C   C1047     1.0  0.80678  0.58549  0.01241  1.0000
  C   C1048     1.0  0.96030  0.77952  0.13824  1.0000
  H   H1784     1.0  0.93064  0.83144  0.12500  1.0000
  H   H1785     1.0  0.57316  0.56206  0.22042  1.0000
  H   H1786     1.0  0.79329  0.66090  0.04641  1.0000
  H   H1787     1.0  0.93556  0.59297  0.19231  1.0000
  N   N72       1.0  0.83792  0.94466  0.21140  1.0000
  C   C1049     1.0  0.82212  0.93504  0.19295  1.0000
  C   C1050     1.0  0.82774  0.96715  0.22009  1.0000
  H   H1788     1.0  0.96711  0.56594  0.17386  1.0000
  C   C1051     1.0  0.97019  0.75962  0.15317  1.0000
  C   C1052     1.0  0.57817  0.66531  0.00824  1.0000
  H   H1789     1.0  0.80792  0.93483  0.25034  1.0000
  C   C1053     1.0  0.86234  0.63641  0.01183  1.0000
  H   H1790     1.0  0.80381  0.93472  0.19894  1.0000
  H   H1791     1.0  0.82204  0.94643  0.17750  1.0000
  C   C1054     1.0  0.58242  0.58962  0.02101  1.0000
  H   H1792     1.0  0.80943  0.96467  0.22547  1.0000
  C   C1055     1.0  0.95855  0.81568  0.16171  1.0000
  H   H1793     1.0  0.83681  0.97327  0.23592  1.0000
  H   H1794     1.0  0.71152  0.68524  0.22614  1.0000
  H   H1795     1.0  0.97701  0.59090  0.18928  1.0000
  H   H1796     1.0  0.94570  0.61481  0.17368  1.0000
  H   H1797     1.0  0.85083  0.93583  0.24541  1.0000
  C   C1056     1.0  0.59257  0.52790  0.16437  1.0000
  H   H1798     1.0  0.57838  0.57146  0.02576  1.0000
  H   H1799     1.0  0.94878  0.59639  0.12866  1.0000
  H   H1800     1.0  0.90820  0.62451  0.18627  1.0000
  H   H1801     1.0  0.97685  0.59124  0.15863  1.0000
  N   N73       1.0  0.69993  0.64951  0.18262  1.0000
  C   C1057     1.0  0.68144  0.65276  0.16437  1.0000
  C   C1058     1.0  0.68906  0.63566  0.20177  1.0000
  C   C1059     1.0  0.71934  0.63575  0.17177  1.0000
  C   C1060     1.0  0.70823  0.67306  0.19032  1.0000
  C   C1061     1.0  0.68913  0.66436  0.14168  1.0000
  C   C1062     1.0  0.66897  0.64771  0.21470  1.0000
  C   C1063     1.0  0.73960  0.62840  0.18746  1.0000
  C   C1064     1.0  0.72141  0.67447  0.21362  1.0000
  H   H1802     1.0  0.67363  0.63581  0.15951  1.0000
  H   H1803     1.0  0.66686  0.66349  0.17102  1.0000
  H   H1804     1.0  0.70169  0.63038  0.21509  1.0000
  H   H1805     1.0  0.68234  0.61892  0.19487  1.0000
  H   H1806     1.0  0.71237  0.61968  0.16372  1.0000
  H   H1807     1.0  0.72758  0.64570  0.15761  1.0000
  H   H1808     1.0  0.71970  0.68072  0.17696  1.0000
  C   C1065     1.0  0.61283  0.61139  0.23969  1.0000
  H   H1809     1.0  0.57522  0.51984  0.16244  1.0000
  H   H1810     1.0  0.59714  0.56750  0.20225  1.0000
  H   H1811     1.0  0.65334  0.64944  0.20369  1.0000
  H   H1812     1.0  0.99689  0.69951  0.14213  1.0000
  H   H1813     1.0  0.67388  0.66488  0.22166  1.0000
  H   H1814     1.0  0.73419  0.61727  0.20198  1.0000
  H   H1815     1.0  0.74968  0.64349  0.19361  1.0000
  H   H1816     1.0  0.75182  0.61779  0.17701  1.0000
  H   H1817     1.0  0.72535  0.65776  0.22190  1.0000
  C   C1066     1.0  0.59044  0.55534  0.21523  1.0000
  N   N74       1.0  0.81108  0.60314  0.05394  1.0000
  C   C1067     1.0  0.83169  0.60771  0.06938  1.0000
  C   C1068     1.0  0.80516  0.62545  0.04179  1.0000
  C   C1069     1.0  0.81808  0.58468  0.03658  1.0000
  C   C1070     1.0  0.79150  0.59487  0.06897  1.0000
  C   C1071     1.0  0.84126  0.58644  0.08246  1.0000
  C   C1072     1.0  0.79938  0.64637  0.05739  1.0000
  H   H1818     1.0  0.72718  0.60326  0.02654  1.0000
  H   H1819     1.0  0.95245  0.81631  0.19852  1.0000
  H   H1820     1.0  0.84618  0.61530  0.05926  1.0000
  H   H1821     1.0  0.82753  0.62072  0.08296  1.0000
  H   H1822     1.0  0.79023  0.62327  0.02991  1.0000
  H   H1823     1.0  0.81979  0.63077  0.03060  1.0000
  H   H1824     1.0  0.56941  0.52696  0.20278  1.0000
  H   H1825     1.0  0.81519  0.56700  0.04360  1.0000
  H   H1826     1.0  0.79515  0.57727  0.07584  1.0000
  H   H1827     1.0  0.78983  0.60612  0.08444  1.0000
  H   H1828     1.0  0.84659  0.57222  0.07070  1.0000
  H   H1829     1.0  0.85687  0.59166  0.09236  1.0000
  H   H1830     1.0  0.82869  0.57997  0.09535  1.0000
  H   H1831     1.0  0.00082  0.79355  0.16212  1.0000
  H   H1832     1.0  0.95118  0.78807  0.18664  1.0000
  H   H1833     1.0  0.81494  0.65286  0.06658  1.0000
  C   C1073     1.0  0.87360  0.61557  0.01692  1.0000
  H   H1834     1.0  0.92966  0.53815  0.15195  1.0000
  H   H1835     1.0  0.80626  0.91062  0.23033  1.0000
  N   N75       1.0  0.92528  0.58823  0.15636  1.0000
  S   S310      1.0  0.98902  0.87529  0.18904  1.0000
  H   H1836     1.0  0.99685  0.61835  0.10948  1.0000
  C   C1074     1.0  0.94074  0.82058  0.11285  1.0000
  N   N76       1.0  0.60325  0.52203  0.18742  1.0000
  H   H1837     1.0  0.98270  0.74905  0.14309  1.0000
  H   H1838     1.0  0.96506  0.83378  0.16325  1.0000
  H   H1839     1.0  0.94975  0.56711  0.13684  1.0000
  H   H1840     1.0  0.90965  0.53243  0.17452  1.0000
  H   H1841     1.0  0.60442  0.56432  0.16083  1.0000
  H   H1842     1.0  0.63752  0.52648  0.17304  1.0000
  H   H1843     1.0  0.67354  0.66774  0.13090  1.0000
  C   C1075     1.0  0.90953  0.60853  0.15127  1.0000
  C   C1076     1.0  0.92258  0.54518  0.16832  1.0000
  H   H1844     1.0  0.59152  0.51921  0.22271  1.0000
  C   C1077     1.0  0.96709  0.58505  0.17387  1.0000
  H   H1845     1.0  0.87434  0.96342  0.23458  1.0000
  H   H1846     1.0  0.93341  0.56907  0.09924  1.0000
  H   H1847     1.0  0.81521  0.90549  0.17065  1.0000
  H   H1848     1.0  0.58251  0.55556  0.14117  1.0000
  C   C1078     1.0  0.88381  0.00103  0.15092  1.0000
  C   C1079     1.0  0.89644  0.61873  0.17226  1.0000
  C   C1080     1.0  0.57526  0.63986  0.01556  1.0000
  H   H1849     1.0  0.98118  0.88077  0.13947  1.0000
  C   C1081     1.0  0.86150  0.94836  0.20105  1.0000
  H   H1850     1.0  0.58903  0.67445  0.02123  1.0000
  N   N77       1.0  0.97037  0.80337  0.14196  1.0000
  H   H1851     1.0  0.94118  0.77990  0.14090  1.0000
  H   H1852     1.0  0.97368  0.83529  0.12256  1.0000
  H   H1853     1.0  0.88344  0.60647  0.17910  1.0000
  H   H1854     1.0  0.65553  0.57113  0.24476  1.0000
  H   H1855     1.0  0.97815  0.76491  0.16968  1.0000
  C   C1082     1.0  0.84037  0.92807  0.23129  1.0000
  C   C1083     1.0  0.00494  0.63763  0.16455  1.0000
  H   H1856     1.0  0.00241  0.82110  0.14972  1.0000
  C   C1084     1.0  0.91043  0.56867  0.16502  1.0000
  C   C1085     1.0  0.64269  0.63605  0.01214  1.0000
  C   C1086     1.0  0.58798  0.52989  0.20711  1.0000
  H   H1857     1.0  0.66384  0.63682  0.22961  1.0000
  C   C1087     1.0  0.96622  0.81763  0.12050  1.0000
  C   C1088     1.0  0.96080  0.80463  0.18572  1.0000
  H   H1858     1.0  0.97898  0.80255  0.19146  1.0000
  H   H1859     1.0  0.98090  0.68760  0.11858  1.0000
  H   H1860     1.0  0.95581  0.74767  0.15760  1.0000
  C   C1089     1.0  0.64179  0.52533  0.20988  1.0000
  H   H1861     1.0  0.65775  0.53601  0.21034  1.0000
  H   H1862     1.0  0.81931  0.00276  0.21097  1.0000
  C   C1090     1.0  0.99636  0.69810  0.12313  1.0000
  H   H1863     1.0  0.85225  0.99946  0.13118  1.0000
  S   S311      1.0  0.68067  0.50711  0.15231  1.0000
  S   S312      1.0  0.89547  0.91325  0.25269  1.0000
  H   H1864     1.0  0.63228  0.52843  0.22620  1.0000
  H   H1865     1.0  0.84515  0.99275  0.19747  1.0000
  C   C1091     1.0  0.99616  0.80317  0.14631  1.0000
  C   C1092     1.0  0.99847  0.87395  0.14210  1.0000
  H   H1866     1.0  0.56130  0.67456  0.00753  1.0000
  H   H1867     1.0  0.70277  0.58782  0.01417  1.0000
  H   H1868     1.0  0.71380  0.63984  0.00643  1.0000
  H   H1869     1.0  0.90703  0.99730  0.24077  1.0000
  H   H1870     1.0  0.00424  0.77676  0.11962  1.0000
  H   H1871     1.0  0.53100  0.63683  0.00442  1.0000
  Fe  Fe157     1.0  0.59704  0.58940  0.35911  1.0000
  S   S313      1.0  0.57627  0.58542  0.32668  1.0000
  S   S314      1.0  0.59961  0.55935  0.38418  1.0000
  Fe  Fe158     1.0  0.60754  0.64040  0.34917  1.0000
  S   S315      1.0  0.58809  0.63982  0.31540  1.0000
  S   S316      1.0  0.63001  0.67048  0.36112  1.0000
  Fe  Fe159     1.0  0.56110  0.62029  0.33583  1.0000
  S   S317      1.0  0.52225  0.62679  0.33248  1.0000
  Fe  Fe160     1.0  0.60493  0.60498  0.30920  1.0000
  S   S318      1.0  0.62495  0.58772  0.27974  1.0000
  S   S319      1.0  0.57971  0.62285  0.36973  1.0000
  S   S320      1.0  0.62645  0.60706  0.34155  1.0000
  Fe  Fe161     1.0  0.79793  0.91405  0.39890  1.0000
  S   S321      1.0  0.81402  0.87883  0.39795  1.0000
  S   S322      1.0  0.75873  0.91890  0.39785  1.0000
  Fe  Fe162     1.0  0.84442  0.93755  0.40920  1.0000
  S   S323      1.0  0.86329  0.90329  0.41010  1.0000
  S   S324      1.0  0.86670  0.96910  0.41769  1.0000
  Fe  Fe163     1.0  0.84291  0.89544  0.37796  1.0000
  S   S325      1.0  0.86207  0.87515  0.35014  1.0000
  Fe  Fe164     1.0  0.83295  0.88979  0.43008  1.0000
  S   S326      1.0  0.83069  0.86274  0.45854  1.0000
  S   S327      1.0  0.82534  0.93023  0.37603  1.0000
  S   S328      1.0  0.81558  0.92452  0.43201  1.0000
  Fe  Fe165     1.0  0.65601  0.82886  0.41266  1.0000
  S   S329      1.0  0.65603  0.80001  0.43864  1.0000
  S   S330      1.0  0.68829  0.83426  0.39094  1.0000
  Fe  Fe166     1.0  0.60675  0.84308  0.42450  1.0000
  S   S331      1.0  0.60388  0.81639  0.45244  1.0000
  S   S332      1.0  0.57648  0.86725  0.41694  1.0000
  Fe  Fe167     1.0  0.64017  0.82660  0.46250  1.0000
  H   H1872     1.0  0.55182  0.79478  0.45888  1.0000
  Fe  Fe168     1.0  0.61996  0.79219  0.42631  1.0000
  S   S333      1.0  0.60049  0.75809  0.42190  1.0000
  S   S334      1.0  0.64179  0.85561  0.43690  1.0000
  S   S335      1.0  0.62117  0.81865  0.39802  1.0000
  C   C1093     1.0  0.54157  0.84092  0.36150  1.0000
  C   C1094     1.0  0.55878  0.84496  0.37827  1.0000
  C   C1095     1.0  0.55508  0.86135  0.39573  1.0000
  C   C1096     1.0  0.53399  0.87358  0.39621  1.0000
  C   C1097     1.0  0.55687  0.77313  0.37977  1.0000
  H   H1873     1.0  0.57481  0.83528  0.37778  1.0000
  H   H1874     1.0  0.53100  0.88638  0.40958  1.0000
  H   H1875     1.0  0.93848  0.93348  0.33281  1.0000
  C   C1098     1.0  0.89279  0.97172  0.32618  1.0000
  H   H1876     1.0  0.67142  0.87913  0.35459  1.0000
  H   H1877     1.0  0.54558  0.82473  0.45212  1.0000
  H   H1878     1.0  0.52255  0.80486  0.45464  1.0000
  C   C1099     1.0  0.92313  0.94104  0.32384  1.0000
  C   C1100     1.0  0.73949  0.89505  0.39634  1.0000
  C   C1101     1.0  0.74664  0.87341  0.38803  1.0000
  C   C1102     1.0  0.73074  0.85501  0.38649  1.0000
  C   C1103     1.0  0.70772  0.85780  0.39385  1.0000
  C   C1104     1.0  0.70062  0.87934  0.40249  1.0000
  C   C1105     1.0  0.71635  0.89795  0.40339  1.0000
  H   H1879     1.0  0.76427  0.87099  0.38225  1.0000
  H   H1880     1.0  0.73634  0.83849  0.37958  1.0000
  H   H1881     1.0  0.68297  0.88178  0.40815  1.0000
  H   H1882     1.0  0.71063  0.91469  0.40964  1.0000
  C   C1106     1.0  0.84990  0.85981  0.48217  1.0000
  C   C1107     1.0  0.86629  0.87676  0.48752  1.0000
  H   H1883     1.0  0.70732  0.82803  0.48446  1.0000
  H   H1884     1.0  0.86778  0.89197  0.47678  1.0000
  H   H1885     1.0  0.51001  0.68040  0.34570  1.0000
  C   C1108     1.0  0.53880  0.56432  0.41244  1.0000
  H   H1886     1.0  0.59828  0.60289  0.41699  1.0000
  H   H1887     1.0  0.69857  0.86677  0.44951  1.0000
  N   N78       1.0  0.91556  0.96309  0.33575  1.0000
  H   H1888     1.0  0.76968  0.88486  0.43801  1.0000
  H   H1889     1.0  0.52970  0.63466  0.38186  1.0000
  C   C1109     1.0  0.93470  0.98078  0.33441  1.0000
  C   C1110     1.0  0.62140  0.53780  0.38130  1.0000
  H   H1890     1.0  0.51969  0.76994  0.37818  1.0000
  C   C1111     1.0  0.64079  0.54113  0.36728  1.0000
  H   H1891     1.0  0.95088  0.97377  0.34233  1.0000
  H   H1892     1.0  0.64237  0.55685  0.35734  1.0000
  C   C1112     1.0  0.62094  0.69511  0.37719  1.0000
  C   C1113     1.0  0.63637  0.71372  0.37996  1.0000
  C   C1114     1.0  0.63028  0.73326  0.39332  1.0000
  C   C1115     1.0  0.60877  0.73425  0.40430  1.0000
  C   C1116     1.0  0.59334  0.71560  0.40159  1.0000
  C   C1117     1.0  0.59932  0.69616  0.38802  1.0000
  H   H1893     1.0  0.65315  0.71305  0.37170  1.0000
  H   H1894     1.0  0.64233  0.74745  0.39529  1.0000
  H   H1895     1.0  0.57671  0.71614  0.41013  1.0000
  H   H1896     1.0  0.58735  0.68191  0.38615  1.0000
  C   C1118     1.0  0.88491  0.90173  0.27893  1.0000
  C   C1119     1.0  0.89016  0.87920  0.28594  1.0000
  C   C1120     1.0  0.88284  0.87129  0.30771  1.0000
  C   C1121     1.0  0.87009  0.88574  0.32261  1.0000
  C   C1122     1.0  0.86444  0.90815  0.31543  1.0000
  C   C1123     1.0  0.87188  0.91611  0.29370  1.0000
  H   H1897     1.0  0.71738  0.90356  0.48280  1.0000
  H   H1898     1.0  0.88719  0.85388  0.31304  1.0000
  H   H1899     1.0  0.85439  0.91933  0.32663  1.0000
  H   H1900     1.0  0.86761  0.93351  0.28834  1.0000
  N   N79       1.0  0.88358  0.82902  0.40747  1.0000
  C   C1124     1.0  0.88028  0.83822  0.43172  1.0000
  C   C1125     1.0  0.86081  0.83213  0.39503  1.0000
  C   C1126     1.0  0.90166  0.84382  0.39596  1.0000
  C   C1127     1.0  0.89128  0.80404  0.40882  1.0000
  C   C1128     1.0  0.90197  0.83853  0.44738  1.0000
  C   C1129     1.0  0.83996  0.81922  0.40543  1.0000
  C   C1130     1.0  0.90849  0.83715  0.37112  1.0000
  C   C1131     1.0  0.88685  0.78862  0.38731  1.0000
  H   H1901     1.0  0.87331  0.85623  0.43137  1.0000
  H   H1902     1.0  0.86719  0.82783  0.44119  1.0000
  H   H1903     1.0  0.86177  0.82712  0.37661  1.0000
  H   H1904     1.0  0.85608  0.85081  0.39451  1.0000
  H   H1905     1.0  0.89590  0.86228  0.39567  1.0000
  H   H1906     1.0  0.91820  0.84351  0.40577  1.0000
  H   H1907     1.0  0.91012  0.80303  0.41287  1.0000
  H   H1908     1.0  0.88236  0.79530  0.42344  1.0000
  H   H1909     1.0  0.89651  0.84201  0.46545  1.0000
  H   H1910     1.0  0.91132  0.82176  0.44749  1.0000
  H   H1911     1.0  0.91391  0.85277  0.44269  1.0000
  H   H1912     1.0  0.82535  0.81966  0.39292  1.0000
  H   H1913     1.0  0.84383  0.80085  0.40922  1.0000
  H   H1914     1.0  0.83365  0.82793  0.42133  1.0000
  H   H1915     1.0  0.89359  0.83672  0.35909  1.0000
  H   H1916     1.0  0.91803  0.82045  0.37064  1.0000
  H   H1917     1.0  0.92048  0.85049  0.36434  1.0000
  H   H1918     1.0  0.90196  0.77693  0.38474  1.0000
  H   H1919     1.0  0.88436  0.79792  0.37089  1.0000
  H   H1920     1.0  0.87185  0.77701  0.39023  1.0000
  C   C1132     1.0  0.67027  0.62503  0.39143  1.0000
  C   C1133     1.0  0.67824  0.60113  0.38233  1.0000
  H   H1921     1.0  0.68635  0.63504  0.39454  1.0000
  H   H1922     1.0  0.66141  0.63403  0.37687  1.0000
  H   H1923     1.0  0.68800  0.59114  0.39545  1.0000
  H   H1924     1.0  0.69014  0.60380  0.36753  1.0000
  C   C1134     1.0  0.51749  0.56429  0.34890  1.0000
  C   C1135     1.0  0.72155  0.83182  0.47211  1.0000
  H   H1925     1.0  0.63557  0.82879  0.33729  1.0000
  H   H1926     1.0  0.62527  0.61992  0.39013  1.0000
  H   H1927     1.0  0.67296  0.91001  0.35932  1.0000
  H   H1928     1.0  0.93459  0.92517  0.29189  1.0000
  N   N80       1.0  0.72713  0.85737  0.47186  1.0000
  C   C1136     1.0  0.54528  0.52051  0.38465  1.0000
  H   H1929     1.0  0.52466  0.72406  0.42528  1.0000
  C   C1137     1.0  0.74457  0.86135  0.45285  1.0000
  C   C1138     1.0  0.65843  0.52424  0.36640  1.0000
  C   C1139     1.0  0.89344  0.98576  0.30346  1.0000
  C   C1140     1.0  0.65825  0.50879  0.30191  1.0000
  H   H1930     1.0  0.55770  0.77185  0.36066  1.0000
  H   H1931     1.0  0.52272  0.59679  0.42550  1.0000
  C   C1141     1.0  0.52027  0.85277  0.36226  1.0000
  C   C1142     1.0  0.53095  0.56943  0.37133  1.0000
  H   H1932     1.0  0.70967  0.80262  0.45147  1.0000
  H   H1933     1.0  0.55159  0.75691  0.42467  1.0000
  H   H1934     1.0  0.75732  0.84680  0.45209  1.0000
  H   H1935     1.0  0.90935  0.92770  0.32472  1.0000
  H   H1936     1.0  0.55687  0.55949  0.40799  1.0000
  H   H1937     1.0  0.92902  0.95229  0.36911  1.0000
  N   N81       1.0  0.52781  0.78330  0.41234  1.0000
  H   H1938     1.0  0.89275  0.93755  0.38571  1.0000
  H   H1939     1.0  0.90019  0.86797  0.27475  1.0000
  H   H1940     1.0  0.62865  0.87011  0.49997  1.0000
  C   C1143     1.0  0.71387  0.82118  0.44883  1.0000
  H   H1941     1.0  0.54460  0.82823  0.34804  1.0000
  C   C1144     1.0  0.70541  0.89697  0.46948  1.0000
  C   C1145     1.0  0.54058  0.80648  0.44853  1.0000
  H   H1942     1.0  0.53053  0.58855  0.37309  1.0000
  H   H1943     1.0  0.57053  0.78554  0.38503  1.0000
  C   C1146     1.0  0.91228  0.95756  0.36101  1.0000
  H   H1944     1.0  0.87699  0.94259  0.35980  1.0000
  C   C1147     1.0  0.64810  0.64943  0.41918  1.0000
  H   H1945     1.0  0.63656  0.59371  0.40166  1.0000
  H   H1946     1.0  0.66367  0.59065  0.37558  1.0000
  H   H1947     1.0  0.73583  0.86147  0.43576  1.0000
  C   C1148     1.0  0.70487  0.87036  0.46728  1.0000
  H   H1948     1.0  0.52615  0.73517  0.39672  1.0000
  H   H1949     1.0  0.68313  0.66543  0.42200  1.0000
  H   H1950     1.0  0.51150  0.54623  0.34738  1.0000
  H   H1951     1.0  0.80143  0.91536  0.49283  1.0000
  H   H1952     1.0  0.67563  0.89835  0.33124  1.0000
  H   H1953     1.0  0.75329  0.85246  0.49817  1.0000
  H   H1954     1.0  0.91407  0.94746  0.28743  1.0000
  H   H1955     1.0  0.67356  0.52716  0.35583  1.0000
  H   H1956     1.0  0.65362  0.85290  0.33129  1.0000
  C   C1149     1.0  0.53271  0.76074  0.42440  1.0000
  H   H1957     1.0  0.54965  0.56583  0.36833  1.0000
  H   H1958     1.0  0.69627  0.60955  0.45418  1.0000
  H   H1959     1.0  0.66768  0.67210  0.39582  1.0000
  H   H1960     1.0  0.88068  0.95701  0.32348  1.0000
  H   H1961     1.0  0.55212  0.52688  0.36798  1.0000
  N   N82       1.0  0.52231  0.55816  0.39308  1.0000
  H   H1962     1.0  0.56104  0.75572  0.38658  1.0000
  H   H1963     1.0  0.54222  0.81809  0.41297  1.0000
  H   H1964     1.0  0.52779  0.76194  0.44295  1.0000
  H   H1965     1.0  0.64327  0.65043  0.43775  1.0000
  C   C1150     1.0  0.87183  0.99342  0.39983  1.0000
  H   H1966     1.0  0.68883  0.63865  0.44743  1.0000
  C   C1151     1.0  0.54348  0.80150  0.42248  1.0000
  H   H1967     1.0  0.61653  0.91080  0.40201  1.0000
  H   H1968     1.0  0.65461  0.61339  0.44798  1.0000
  H   H1969     1.0  0.65931  0.68528  0.42232  1.0000
  C   C1152     1.0  0.68979  0.62094  0.44015  1.0000
  C   C1153     1.0  0.52027  0.73931  0.41446  1.0000
  H   H1970     1.0  0.73677  0.82153  0.47814  1.0000
  C   C1154     1.0  0.66584  0.66886  0.41460  1.0000
  H   H1971     1.0  0.60802  0.62927  0.42975  1.0000
  C   C1155     1.0  0.51655  0.86918  0.37969  1.0000
  H   H1972     1.0  0.66746  0.59351  0.42845  1.0000
  C   C1156     1.0  0.66581  0.61234  0.43241  1.0000
  H   H1973     1.0  0.93972  0.98467  0.31645  1.0000
  S   S336      1.0  0.65766  0.82841  0.49783  1.0000
  H   H1974     1.0  0.55860  0.52264  0.39831  1.0000
  H   H1975     1.0  0.72767  0.82180  0.43556  1.0000
  H   H1976     1.0  0.70276  0.62010  0.42611  1.0000
  C   C1157     1.0  0.61369  0.61169  0.42441  1.0000
  H   H1977     1.0  0.83568  0.82686  0.49218  1.0000
  H   H1978     1.0  0.70959  0.90507  0.45266  1.0000
  N   N83       1.0  0.65482  0.62491  0.41243  1.0000
  H   H1979     1.0  0.63228  0.65513  0.40964  1.0000
  C   C1158     1.0  0.63295  0.61217  0.40593  1.0000
  H   H1980     1.0  0.54634  0.60114  0.40537  1.0000
  H   H1981     1.0  0.64992  0.84249  0.36065  1.0000
  H   H1982     1.0  0.61891  0.60148  0.43973  1.0000
  H   H1983     1.0  0.52996  0.79856  0.37840  1.0000
  C   C1159     1.0  0.53245  0.78150  0.38679  1.0000
  C   C1160     1.0  0.75941  0.88347  0.45416  1.0000
  H   H1984     1.0  0.88400  0.98299  0.33911  1.0000
  C   C1161     1.0  0.73759  0.86331  0.49501  1.0000
  H   H1985     1.0  0.69046  0.86388  0.47826  1.0000
  N   N84       1.0  0.62351  0.88509  0.35751  1.0000
  C   C1162     1.0  0.60020  0.89709  0.35861  1.0000
  C   C1163     1.0  0.63163  0.88200  0.38206  1.0000
  C   C1164     1.0  0.61979  0.86164  0.34656  1.0000
  C   C1165     1.0  0.63987  0.89958  0.34332  1.0000
  C   C1166     1.0  0.58696  0.89950  0.33558  1.0000
  C   C1167     1.0  0.63383  0.90451  0.39636  1.0000
  C   C1168     1.0  0.64119  0.84591  0.34403  1.0000
  C   C1169     1.0  0.66618  0.89620  0.34777  1.0000
  H   H1986     1.0  0.58844  0.88800  0.37079  1.0000
  H   H1987     1.0  0.60195  0.91499  0.36557  1.0000
  H   H1988     1.0  0.64848  0.87289  0.38316  1.0000
  H   H1989     1.0  0.61948  0.87053  0.39150  1.0000
  H   H1990     1.0  0.60654  0.85179  0.35641  1.0000
  H   H1991     1.0  0.61288  0.86336  0.32873  1.0000
  H   H1992     1.0  0.63669  0.89673  0.32456  1.0000
  H   H1993     1.0  0.63641  0.91833  0.34647  1.0000
  H   H1994     1.0  0.59792  0.90665  0.32166  1.0000
  H   H1995     1.0  0.57931  0.88273  0.33007  1.0000
  H   H1996     1.0  0.57213  0.91157  0.33809  1.0000
  H   H1997     1.0  0.64387  0.90099  0.41232  1.0000
  H   H1998     1.0  0.64292  0.91840  0.38693  1.0000
  H   H1999     1.0  0.77222  0.88254  0.46839  1.0000
  H   H2000     1.0  0.50927  0.52597  0.37822  1.0000
  C   C1170     1.0  0.89446  0.93854  0.36667  1.0000
  H   H2001     1.0  0.74398  0.88134  0.49569  1.0000
  H   H2002     1.0  0.60468  0.51437  0.40485  1.0000
  C   C1171     1.0  0.92928  0.94265  0.29806  1.0000
  H   H2003     1.0  0.74900  0.89949  0.45551  1.0000
  H   H2004     1.0  0.94409  0.95426  0.29462  1.0000
  H   H2005     1.0  0.69799  0.82953  0.44206  1.0000
  H   H2006     1.0  0.84547  0.98542  0.37480  1.0000
  H   H2007     1.0  0.91024  0.98605  0.29449  1.0000
  C   C1172     1.0  0.61956  0.51713  0.39391  1.0000
  C   C1173     1.0  0.84825  0.84011  0.49626  1.0000
  H   H2008     1.0  0.90008  0.92111  0.36083  1.0000
  H   H2009     1.0  0.55200  0.59212  0.43411  1.0000
  H   H2010     1.0  0.90639  0.97311  0.37076  1.0000
  H   H2011     1.0  0.56198  0.79645  0.42038  1.0000
  H   H2012     1.0  0.51620  0.52439  0.40776  1.0000
  H   H2013     1.0  0.53453  0.55437  0.42832  1.0000
  H   H2014     1.0  0.88067  0.97842  0.29107  1.0000
  H   H2015     1.0  0.68802  0.90319  0.47496  1.0000
  H   H2016     1.0  0.52918  0.56670  0.33392  1.0000
  H   H2017     1.0  0.64976  0.51630  0.31741  1.0000
  C   C1174     1.0  0.52203  0.53210  0.39115  1.0000
  C   C1175     1.0  0.53971  0.59013  0.41947  1.0000
  H   H2018     1.0  0.80153  0.88570  0.50106  1.0000
  H   H2019     1.0  0.50816  0.68856  0.31623  1.0000
  C   C1176     1.0  0.85900  0.99739  0.37974  1.0000
  H   H2020     1.0  0.50837  0.71070  0.33780  1.0000
  H   H2021     1.0  0.92962  0.00297  0.36519  1.0000
  H   H2022     1.0  0.82182  0.90799  0.25679  1.0000
  C   C1177     1.0  0.51139  0.63222  0.37886  1.0000
  H   H2023     1.0  0.64602  0.50885  0.28726  1.0000
  H   H2024     1.0  0.67255  0.52078  0.29742  1.0000
  H   H2025     1.0  0.88792  0.00394  0.30674  1.0000
  C   C1178     1.0  0.92961  0.00431  0.34610  1.0000
  Fe  Fe169     1.0  0.67658  0.94973  0.64366  1.0000
  S   S337      1.0  0.64805  0.92355  0.64037  1.0000
  S   S338      1.0  0.67266  0.98605  0.65898  1.0000
  Fe  Fe170     1.0  0.71436  0.91394  0.62981  1.0000
  S   S339      1.0  0.68840  0.88525  0.62566  1.0000
  S   S340      1.0  0.75318  0.91195  0.62214  1.0000
  Fe  Fe171     1.0  0.66634  0.91187  0.60777  1.0000
  S   S341      1.0  0.64514  0.90672  0.57489  1.0000
  Fe  Fe172     1.0  0.67245  0.89935  0.65853  1.0000
  S   S342      1.0  0.66216  0.87531  0.68776  1.0000
  S   S343      1.0  0.69317  0.94000  0.60984  1.0000
  S   S344      1.0  0.70007  0.92601  0.66392  1.0000
  Fe  Fe173     1.0  0.85561  0.81942  0.61585  1.0000
  S   S345      1.0  0.86148  0.80287  0.58104  1.0000
  S   S346      1.0  0.81932  0.82368  0.63075  1.0000
  Fe  Fe174     1.0  0.90807  0.82189  0.62645  1.0000
  S   S347      1.0  0.91740  0.80642  0.59220  1.0000
  S   S348      1.0  0.93338  0.82562  0.65644  1.0000
  Fe  Fe175     1.0  0.88947  0.82963  0.57755  1.0000
  S   S349      1.0  0.89558  0.85351  0.54694  1.0000
  Fe  Fe176     1.0  0.88867  0.78104  0.59897  1.0000
  S   S350      1.0  0.89660  0.74257  0.59415  1.0000
  S   S351      1.0  0.88226  0.84729  0.61173  1.0000
  S   S352      1.0  0.88058  0.79546  0.63377  1.0000
  Fe  Fe177     1.0  0.90506  0.59685  0.71615  1.0000
  S   S353      1.0  0.88127  0.60095  0.68558  1.0000
  C   C1179     1.0  0.79796  0.90348  0.50747  1.0000
  Fe  Fe178     1.0  0.94670  0.61642  0.68836  1.0000
  S   S354      1.0  0.92566  0.62067  0.65605  1.0000
  S   S355      1.0  0.98337  0.63104  0.69076  1.0000
  Fe  Fe179     1.0  0.89862  0.63530  0.67972  1.0000
  S   S356      1.0  0.87866  0.66867  0.67352  1.0000
  Fe  Fe180     1.0  0.91045  0.58580  0.66502  1.0000
  S   S357      1.0  0.90565  0.55719  0.63841  1.0000
  S   S358      1.0  0.92005  0.63256  0.71205  1.0000
  S   S359      1.0  0.93387  0.58027  0.69548  1.0000
  C   C1180     1.0  0.88562  0.53456  0.64328  1.0000
  C   C1181     1.0  0.86787  0.53690  0.65951  1.0000
  H   H2026     1.0  0.64996  0.85355  0.73043  1.0000
  H   H2027     1.0  0.86679  0.55233  0.67007  1.0000
  C   C1182     1.0  0.94539  0.70557  0.67210  1.0000
  C   C1183     1.0  0.89169  0.72225  0.61649  1.0000
  C   C1184     1.0  0.90148  0.69996  0.61482  1.0000
  C   C1185     1.0  0.89810  0.68352  0.63241  1.0000
  C   C1186     1.0  0.88439  0.68903  0.65153  1.0000
  C   C1187     1.0  0.87449  0.71122  0.65311  1.0000
  C   C1188     1.0  0.87830  0.72783  0.63582  1.0000
  H   H2028     1.0  0.91185  0.69549  0.59991  1.0000
  H   H2029     1.0  0.90597  0.66658  0.63117  1.0000
  H   H2030     1.0  0.86378  0.71561  0.66780  1.0000
  H   H2031     1.0  0.87045  0.74478  0.63724  1.0000
  C   C1189     1.0  0.57268  0.83842  0.62504  1.0000
  C   C1190     1.0  0.96455  0.68339  0.64159  1.0000
  N   N85       1.0  0.61447  0.85308  0.63337  1.0000
  C   C1191     1.0  0.61044  0.99749  0.74572  1.0000
  C   C1192     1.0  0.98710  0.69889  0.67479  1.0000
  C   C1193     1.0  0.97086  0.72622  0.64605  1.0000
  H   H2032     1.0  0.86094  0.82249  0.52673  1.0000
  C   C1194     1.0  0.77117  0.88719  0.62519  1.0000
  C   C1195     1.0  0.76233  0.86545  0.63087  1.0000
  C   C1196     1.0  0.77729  0.84616  0.63246  1.0000
  C   C1197     1.0  0.80112  0.84831  0.62799  1.0000
  C   C1198     1.0  0.80996  0.87006  0.62234  1.0000
  C   C1199     1.0  0.79508  0.88943  0.62126  1.0000
  H   H2033     1.0  0.74398  0.86349  0.63408  1.0000
  H   H2034     1.0  0.77032  0.82943  0.63704  1.0000
  H   H2035     1.0  0.82833  0.87200  0.61935  1.0000
  H   H2036     1.0  0.80207  0.90632  0.61736  1.0000
  C   C1200     1.0  0.64949  0.88517  0.55339  1.0000
  C   C1201     1.0  0.63639  0.88617  0.53292  1.0000
  C   C1202     1.0  0.88060  0.87420  0.50707  1.0000
  C   C1203     1.0  0.65412  0.85056  0.51886  1.0000
  C   C1204     1.0  0.66716  0.84951  0.53938  1.0000
  C   C1205     1.0  0.66508  0.86685  0.55645  1.0000
  H   H2037     1.0  0.62429  0.90029  0.53039  1.0000
  H   H2038     1.0  0.94898  0.71968  0.61525  1.0000
  H   H2039     1.0  0.67896  0.83518  0.54208  1.0000
  H   H2040     1.0  0.67540  0.86595  0.57202  1.0000
  C   C1206     1.0  0.64326  0.88409  0.71017  1.0000
  C   C1207     1.0  0.64044  0.86970  0.72946  1.0000
  C   C1208     1.0  0.63073  0.90481  0.70898  1.0000
  H   H2041     1.0  0.83696  0.52180  0.67378  1.0000
  H   H2042     1.0  0.63267  0.91598  0.69417  1.0000
  H   H2043     1.0  0.83188  0.85573  0.74134  1.0000
  C   C1209     1.0  0.96686  0.85367  0.63670  1.0000
  C   C1210     1.0  0.96040  0.84004  0.65548  1.0000
  C   C1211     1.0  0.97552  0.83820  0.67445  1.0000
  H   H2044     1.0  0.85798  0.92297  0.55381  1.0000
  H   H2045     1.0  0.95537  0.85527  0.62201  1.0000
  H   H2046     1.0  0.97065  0.82773  0.68909  1.0000
  H   H2047     1.0  0.88096  0.52138  0.73589  1.0000
  H   H2048     1.0  0.59174  0.83576  0.67410  1.0000
  C   C1212     1.0  0.62992  0.97794  0.70233  1.0000
  C   C1213     1.0  0.61559  0.91106  0.72701  1.0000
  C   C1214     1.0  0.61583  0.87026  0.61379  1.0000
  H   H2049     1.0  0.95312  0.68056  0.70019  1.0000
  C   C1215     1.0  0.93937  0.68469  0.68746  1.0000
  C   C1216     1.0  0.72137  0.86059  0.51594  1.0000
  C   C1217     1.0  0.65054  0.83261  0.61596  1.0000
  H   H2050     1.0  0.97589  0.67069  0.60810  1.0000
  H   H2051     1.0  0.60586  0.92702  0.72591  1.0000
  H   H2052     1.0  0.81107  0.92860  0.53203  1.0000
  H   H2053     1.0  0.80500  0.86214  0.53221  1.0000
  H   H2054     1.0  0.77941  0.90541  0.51193  1.0000
  H   H2055     1.0  0.68860  0.93709  0.74861  1.0000
  C   C1218     1.0  0.98352  0.67981  0.62322  1.0000
  H   H2056     1.0  0.59060  0.87446  0.65357  1.0000
  H   H2057     1.0  0.98354  0.61058  0.64446  1.0000
  H   H2058     1.0  0.96383  0.66673  0.65119  1.0000
  H   H2059     1.0  0.63147  0.98653  0.62899  1.0000
  H   H2060     1.0  0.60385  0.82567  0.61021  1.0000
  H   H2061     1.0  0.57910  0.88202  0.61298  1.0000
  H   H2062     1.0  0.56278  0.82245  0.62895  1.0000
  H   H2063     1.0  0.66826  0.82699  0.62103  1.0000
  H   H2064     1.0  0.85340  0.61214  0.55509  1.0000
  N   N86       1.0  0.81182  0.89511  0.54897  1.0000
  C   C1219     1.0  0.78727  0.89464  0.55783  1.0000
  C   C1220     1.0  0.81867  0.87066  0.54280  1.0000
  C   C1221     1.0  0.63881  0.86908  0.51564  1.0000
  C   C1222     1.0  0.82735  0.90500  0.56742  1.0000
  C   C1223     1.0  0.77598  0.91836  0.56294  1.0000
  C   C1224     1.0  0.82365  0.85431  0.56322  1.0000
  C   C1225     1.0  0.87190  0.51788  0.71935  1.0000
  C   C1226     1.0  0.85345  0.90604  0.56159  1.0000
  H   H2065     1.0  0.77565  0.88526  0.54566  1.0000
  H   H2066     1.0  0.78626  0.88462  0.57414  1.0000
  H   H2067     1.0  0.83411  0.87053  0.53155  1.0000
  H   H2068     1.0  0.93530  0.73759  0.63721  1.0000
  H   H2069     1.0  0.64737  0.98568  0.70395  1.0000
  H   H2070     1.0  0.65024  0.85715  0.64389  1.0000
  H   H2071     1.0  0.82222  0.92309  0.57163  1.0000
  H   H2072     1.0  0.82530  0.89577  0.58402  1.0000
  H   H2073     1.0  0.75781  0.91549  0.56854  1.0000
  H   H2074     1.0  0.78462  0.92746  0.57747  1.0000
  H   H2075     1.0  0.77521  0.92966  0.54757  1.0000
  H   H2076     1.0  0.83956  0.85937  0.57274  1.0000
  H   H2077     1.0  0.80885  0.85318  0.57528  1.0000
  H   H2078     1.0  0.93535  0.66912  0.67699  1.0000
  C   C1227     1.0  0.99681  0.85008  0.67479  1.0000
  H   H2079     1.0  0.82680  0.83658  0.55641  1.0000
  C   C1228     1.0  0.95188  0.73318  0.62858  1.0000
  H   H2080     1.0  0.85922  0.89220  0.54972  1.0000
  C   C1229     1.0  0.00353  0.63170  0.66772  1.0000
  H   H2081     1.0  0.86383  0.90353  0.57757  1.0000
  C   C1230     1.0  0.60471  0.84961  0.67680  1.0000
  H   H2082     1.0  0.59906  0.90218  0.62636  1.0000
  H   H2083     1.0  0.95732  0.74908  0.61936  1.0000
  H   H2084     1.0  0.59854  0.86041  0.69150  1.0000
  H   H2085     1.0  0.99056  0.69601  0.61610  1.0000
  H   H2086     1.0  0.63245  0.87998  0.61466  1.0000
  C   C1231     1.0  0.98801  0.86578  0.63717  1.0000
  H   H2087     1.0  0.85628  0.58545  0.57073  1.0000
  C   C1232     1.0  0.85098  0.51953  0.66161  1.0000
  H   H2088     1.0  0.83198  0.90923  0.52089  1.0000
  C   C1233     1.0  0.59879  0.83318  0.62718  1.0000
  C   C1234     1.0  0.88670  0.51436  0.62970  1.0000
  H   H2089     1.0  0.82458  0.87851  0.66651  1.0000
  H   H2090     1.0  0.66430  0.94394  0.73105  1.0000
  H   H2091     1.0  0.98445  0.70865  0.69123  1.0000
  H   H2092     1.0  0.98760  0.68032  0.67984  1.0000
  H   H2093     1.0  0.98742  0.72671  0.63648  1.0000
  C   C1235     1.0  0.63851  0.84340  0.63726  1.0000
  H   H2094     1.0  0.64142  0.81701  0.60953  1.0000
  H   H2095     1.0  0.83807  0.55352  0.62389  1.0000
  C   C1236     1.0  0.60731  0.86518  0.65539  1.0000
  C   C1237     1.0  0.84482  0.56674  0.61178  1.0000
  C   C1238     1.0  0.59683  0.88906  0.61248  1.0000
  N   N87       1.0  0.96738  0.70341  0.65815  1.0000
  H   H2096     1.0  0.56824  0.84402  0.60725  1.0000
  H   H2097     1.0  0.59858  0.89848  0.59588  1.0000
  H   H2098     1.0  0.97221  0.74050  0.65898  1.0000
  C   C1239     1.0  0.61046  0.99635  0.70271  1.0000
  H   H2099     1.0  0.56628  0.85137  0.63759  1.0000
  H   H2100     1.0  0.61997  0.87906  0.65978  1.0000
  H   H2101     1.0  0.65269  0.84521  0.60176  1.0000
  S   S360      1.0  0.88925  0.57631  0.74595  1.0000
  H   H2102     1.0  0.61605  0.86123  0.59675  1.0000
  H   H2103     1.0  0.62146  0.84204  0.68238  1.0000
  H   H2104     1.0  0.60106  0.81840  0.63929  1.0000
  H   H2105     1.0  0.63849  0.82972  0.65070  1.0000
  H   H2106     1.0  0.86135  0.55973  0.60500  1.0000
  C   C1240     1.0  0.86255  0.83757  0.51584  1.0000
  H   H2107     1.0  0.88389  0.52113  0.70484  1.0000
  H   H2108     1.0  0.92570  0.86652  0.69416  1.0000
  H   H2109     1.0  0.57405  0.98721  0.75078  1.0000
  H   H2110     1.0  0.83169  0.56821  0.59790  1.0000
  H   H2111     1.0  0.99787  0.66899  0.63004  1.0000
  H   H2112     1.0  0.94752  0.68402  0.63261  1.0000
  C   C1241     1.0  0.87856  0.85481  0.52153  1.0000
  C   C1242     1.0  0.59131  0.97906  0.74836  1.0000
  H   H2113     1.0  0.59383  0.98706  0.69983  1.0000
  H   H2114     1.0  0.94603  0.72112  0.68355  1.0000
  N   N88       1.0  0.85763  0.60983  0.61167  1.0000
  C   C1243     1.0  0.85844  0.63052  0.62774  1.0000
  C   C1244     1.0  0.88233  0.60439  0.60508  1.0000
  C   C1245     1.0  0.84786  0.58972  0.62502  1.0000
  C   C1246     1.0  0.84246  0.61582  0.59128  1.0000
  C   C1247     1.0  0.83531  0.63777  0.63905  1.0000
  C   C1248     1.0  0.89500  0.62332  0.59132  1.0000
  C   C1249     1.0  0.84575  0.60133  0.56892  1.0000
  H   H2115     1.0  0.87104  0.62757  0.64203  1.0000
  H   H2116     1.0  0.86477  0.64616  0.61857  1.0000
  H   H2117     1.0  0.88397  0.58807  0.59517  1.0000
  H   H2118     1.0  0.89286  0.60110  0.62084  1.0000
  H   H2119     1.0  0.85888  0.58605  0.64041  1.0000
  H   H2120     1.0  0.83032  0.59383  0.63177  1.0000
  H   H2121     1.0  0.82385  0.61464  0.59616  1.0000
  H   H2122     1.0  0.84511  0.63425  0.58628  1.0000
  H   H2123     1.0  0.82088  0.63903  0.62651  1.0000
  H   H2124     1.0  0.83066  0.62596  0.65337  1.0000
  H   H2125     1.0  0.83734  0.65522  0.64695  1.0000
  H   H2126     1.0  0.89917  0.63845  0.60235  1.0000
  H   H2127     1.0  0.91181  0.61625  0.58513  1.0000
  H   H2128     1.0  0.88512  0.62915  0.57602  1.0000
  H   H2129     1.0  0.82854  0.59579  0.56235  1.0000
  N   N89       1.0  0.86818  0.84657  0.69432  1.0000
  C   C1250     1.0  0.88912  0.86059  0.68747  1.0000
  C   C1251     1.0  0.84922  0.85211  0.67720  1.0000
  C   C1252     1.0  0.87480  0.82124  0.69279  1.0000
  C   C1253     1.0  0.86183  0.85309  0.71873  1.0000
  C   C1254     1.0  0.91116  0.85692  0.70221  1.0000
  C   C1255     1.0  0.84041  0.87737  0.67734  1.0000
  C   C1256     1.0  0.85500  0.80359  0.68971  1.0000
  C   C1257     1.0  0.83892  0.84343  0.72831  1.0000
  H   H2130     1.0  0.89388  0.85696  0.66914  1.0000
  H   H2131     1.0  0.88541  0.87947  0.68833  1.0000
  H   H2132     1.0  0.83370  0.84115  0.67957  1.0000
  H   H2133     1.0  0.85512  0.84798  0.65933  1.0000
  H   H2134     1.0  0.88673  0.81815  0.67800  1.0000
  H   H2135     1.0  0.88476  0.81580  0.70833  1.0000
  H   H2136     1.0  0.87549  0.84709  0.73093  1.0000
  H   H2137     1.0  0.86182  0.87222  0.72128  1.0000
  H   H2138     1.0  0.91663  0.83853  0.70293  1.0000
  H   H2139     1.0  0.92343  0.68879  0.69742  1.0000
  H   H2140     1.0  0.59059  0.96685  0.73360  1.0000
  H   H2141     1.0  0.93009  0.70816  0.66073  1.0000
  H   H2142     1.0  0.83531  0.88340  0.69478  1.0000
  H   H2143     1.0  0.85321  0.88936  0.66968  1.0000
  H   H2144     1.0  0.85768  0.53083  0.71802  1.0000
  H   H2145     1.0  0.84150  0.80507  0.70308  1.0000
  H   H2146     1.0  0.84690  0.80495  0.67237  1.0000
  C   C1258     1.0  0.81397  0.91000  0.52779  1.0000
  H   H2147     1.0  0.82500  0.84170  0.71533  1.0000
  H   H2148     1.0  0.86232  0.78580  0.69080  1.0000
  H   H2149     1.0  0.73059  0.86631  0.53181  1.0000
  H   H2150     1.0  0.62951  0.96882  0.68539  1.0000
  C   C1259     1.0  0.99945  0.62017  0.64686  1.0000
  H   H2151     1.0  0.71630  0.84233  0.51874  1.0000
  H   H2152     1.0  0.70564  0.87157  0.51440  1.0000
  H   H2153     1.0  0.99269  0.87662  0.62274  1.0000
  H   H2154     1.0  0.62757  0.96452  0.71570  1.0000
  H   H2155     1.0  0.62757  0.98878  0.74741  1.0000
  H   H2156     1.0  0.00258  0.76690  0.62518  1.0000
  H   H2157     1.0  0.98175  0.78883  0.63180  1.0000
  C   C1260     1.0  0.00304  0.86412  0.65623  1.0000
  H   H2158     1.0  0.90908  0.86390  0.71994  1.0000
  H   H2159     1.0  0.89304  0.88755  0.51129  1.0000
  H   H2160     1.0  0.90035  0.51242  0.61707  1.0000
  H   H2161     1.0  0.00107  0.77927  0.65379  1.0000
  C   C1261     1.0  0.99985  0.78307  0.63518  1.0000
  H   H2162     1.0  0.84180  0.82646  0.73682  1.0000
  C   C1262     1.0  0.61301  0.89682  0.74646  1.0000
  H   H2163     1.0  0.66638  0.91578  0.74290  1.0000
  C   C1263     1.0  0.62546  0.87606  0.74760  1.0000
  C   C1264     1.0  0.66980  0.93430  0.74669  1.0000
  C   C1265     1.0  0.63279  0.00310  0.63766  1.0000
  Fe  Fe181     1.0  0.58828  0.88676  0.80284  1.0000
  S   S361      1.0  0.61539  0.88256  0.83042  1.0000
  S   S362      1.0  0.59473  0.90621  0.76917  1.0000
  Fe  Fe182     1.0  0.54901  0.87079  0.83602  1.0000
  S   S363      1.0  0.57349  0.86576  0.86568  1.0000
  H   H2164     1.0  0.66606  0.96767  0.91499  1.0000
  Fe  Fe183     1.0  0.58969  0.89947  0.85432  1.0000
  S   S364      1.0  0.59319  0.93135  0.87732  1.0000
  Fe  Fe184     1.0  0.59674  0.84922  0.83906  1.0000
  S   S365      1.0  0.61488  0.81423  0.84109  1.0000
  S   S366      1.0  0.56357  0.90535  0.82640  1.0000
  S   S367      1.0  0.57120  0.85250  0.80972  1.0000
  Fe  Fe185     1.0  0.61648  0.70174  0.92094  1.0000
  S   S368      1.0  0.61559  0.67639  0.89138  1.0000
  S   S369      1.0  0.60896  0.74050  0.92201  1.0000
  Fe  Fe186     1.0  0.62936  0.66346  0.95649  1.0000
  S   S370      1.0  0.62941  0.63545  0.92958  1.0000
  C   C1266     1.0  0.51549  0.54753  0.83329  1.0000
  Fe  Fe187     1.0  0.64815  0.66128  0.90742  1.0000
  S   S371      1.0  0.68226  0.65786  0.88810  1.0000
  Fe  Fe188     1.0  0.59678  0.65284  0.91607  1.0000
  S   S372      1.0  0.56329  0.63223  0.91240  1.0000
  S   S373      1.0  0.65003  0.68826  0.93528  1.0000
  S   S374      1.0  0.59578  0.67922  0.94462  1.0000
  Fe  Fe189     1.0  0.84132  0.58609  0.87451  1.0000
  S   S375      1.0  0.81138  0.56260  0.86655  1.0000
  S   S376      1.0  0.86146  0.60731  0.84807  1.0000
  Fe  Fe190     1.0  0.84186  0.57330  0.92587  1.0000
  S   S377      1.0  0.81258  0.54818  0.92102  1.0000
  S   S378      1.0  0.85901  0.57459  0.96145  1.0000
  Fe  Fe191     1.0  0.83043  0.53667  0.88856  1.0000
  H   H2165     1.0  0.64482  0.93096  0.82431  1.0000
  Fe  Fe192     1.0  0.79574  0.57611  0.89969  1.0000
  S   S379      1.0  0.75712  0.57914  0.90816  1.0000
  S   S380      1.0  0.86119  0.55946  0.89489  1.0000
  S   S381      1.0  0.82427  0.60194  0.90624  1.0000
  H   H2166     1.0  0.55343  0.54687  0.83081  1.0000
  C   C1267     1.0  0.89099  0.60557  0.78419  1.0000
  C   C1268     1.0  0.88487  0.61175  0.80697  1.0000
  C   C1269     1.0  0.86745  0.59974  0.81889  1.0000
  C   C1270     1.0  0.85567  0.58191  0.80746  1.0000
  C   C1271     1.0  0.86200  0.57552  0.78479  1.0000
  C   C1272     1.0  0.71765  0.63456  0.95955  1.0000
  H   H2167     1.0  0.89393  0.62572  0.81555  1.0000
  H   H2168     1.0  0.84180  0.57297  0.81616  1.0000
  N   N90       1.0  0.72178  0.61662  0.97807  1.0000
  C   C1273     1.0  0.70295  0.63579  0.89341  1.0000
  C   C1274     1.0  0.69643  0.61430  0.90223  1.0000
  C   C1275     1.0  0.71322  0.59695  0.90579  1.0000
  C   C1276     1.0  0.73675  0.60102  0.90113  1.0000
  C   C1277     1.0  0.74330  0.62251  0.89227  1.0000
  C   C1278     1.0  0.72641  0.63974  0.88823  1.0000
  H   H2169     1.0  0.67839  0.61091  0.90588  1.0000
  H   H2170     1.0  0.70799  0.58021  0.91221  1.0000
  H   H2171     1.0  0.76135  0.62582  0.88856  1.0000
  H   H2172     1.0  0.73159  0.65623  0.88118  1.0000
  H   H2173     1.0  0.53702  0.58183  0.89163  1.0000
  C   C1279     1.0  0.54503  0.65050  0.87189  1.0000
  C   C1280     1.0  0.54088  0.63842  0.89233  1.0000
  H   H2174     1.0  0.68952  0.62501  0.99588  1.0000
  H   H2175     1.0  0.89332  0.53251  0.79634  1.0000
  H   H2176     1.0  0.56211  0.65734  0.86851  1.0000
  H   H2177     1.0  0.52456  0.60179  0.97778  1.0000
  C   C1281     1.0  0.69093  0.58656  0.96481  1.0000
  H   H2178     1.0  0.62939  0.99330  0.97423  1.0000
  H   H2179     1.0  0.84162  0.65453  0.98667  1.0000
  C   C1282     1.0  0.60977  0.79385  0.86328  1.0000
  C   C1283     1.0  0.60664  0.80085  0.88619  1.0000
  C   C1284     1.0  0.60588  0.78422  0.90390  1.0000
  C   C1285     1.0  0.60784  0.76047  0.89887  1.0000
  C   C1286     1.0  0.60964  0.75341  0.87584  1.0000
  C   C1287     1.0  0.61106  0.77005  0.85817  1.0000
  H   H2180     1.0  0.60578  0.81909  0.89038  1.0000
  H   H2181     1.0  0.60427  0.78984  0.92167  1.0000
  H   H2182     1.0  0.61023  0.73517  0.87174  1.0000
  H   H2183     1.0  0.61333  0.76448  0.84047  1.0000
  C   C1288     1.0  0.64117  0.93711  0.80661  1.0000
  H   H2184     1.0  0.92191  0.57146  0.84109  1.0000
  H   H2185     1.0  0.72841  0.65025  0.96276  1.0000
  C   C1289     1.0  0.54268  0.63361  0.98943  1.0000
  H   H2186     1.0  0.90481  0.61461  0.77548  1.0000
  C   C1290     1.0  0.61574  0.95154  0.87319  1.0000
  C   C1291     1.0  0.63835  0.94417  0.86865  1.0000
  C   C1292     1.0  0.65639  0.96042  0.86722  1.0000
  H   H2187     1.0  0.50897  0.55235  0.88041  1.0000
  C   C1293     1.0  0.62930  0.99162  0.87441  1.0000
  C   C1294     1.0  0.61129  0.97531  0.87616  1.0000
  H   H2188     1.0  0.64204  0.92586  0.86696  1.0000
  H   H2189     1.0  0.59482  0.96855  0.76400  1.0000
  H   H2190     1.0  0.67972  0.62990  0.95462  1.0000
  H   H2191     1.0  0.59386  0.98113  0.87988  1.0000
  C   C1295     1.0  0.84948  0.61986  0.97497  1.0000
  C   C1296     1.0  0.86057  0.59895  0.98013  1.0000
  H   H2192     1.0  0.62353  0.86488  0.76241  1.0000
  H   H2193     1.0  0.84017  0.62166  0.95885  1.0000
  H   H2194     1.0  0.51439  0.96467  0.85142  1.0000
  C   C1297     1.0  0.51862  0.62950  0.89633  1.0000
  H   H2195     1.0  0.64496  0.97350  0.81817  1.0000
  C   C1298     1.0  0.52721  0.65310  0.85539  1.0000
  H   H2196     1.0  0.51294  0.77790  0.85141  1.0000
  H   H2197     1.0  0.53215  0.89135  0.91534  1.0000
  C   C1299     1.0  0.64213  0.61356  0.00312  1.0000
  C   C1300     1.0  0.87981  0.58717  0.77310  1.0000
  H   H2198     1.0  0.57978  0.63635  0.96542  1.0000
  H   H2199     1.0  0.67353  0.95539  0.94274  1.0000
  H   H2200     1.0  0.53071  0.66209  0.83943  1.0000
  H   H2201     1.0  0.93266  0.55346  0.79063  1.0000
  H   H2202     1.0  0.94247  0.53895  0.81542  1.0000
  H   H2203     1.0  0.67768  0.87775  0.80930  1.0000
  H   H2204     1.0  0.76213  0.62568  0.95000  1.0000
  H   H2205     1.0  0.68769  0.65541  0.97098  1.0000
  H   H2206     1.0  0.65669  0.96219  0.76742  1.0000
  H   H2207     1.0  0.90852  0.52773  0.86907  1.0000
  S   S382      1.0  0.67569  0.00350  0.87026  1.0000
  C   C1301     1.0  0.67905  0.99318  0.94053  1.0000
  H   H2208     1.0  0.89915  0.55802  0.81141  1.0000
  H   H2209     1.0  0.53552  0.98221  0.89471  1.0000
  N   N91       1.0  0.89909  0.52720  0.83290  1.0000
  C   C1302     1.0  0.65201  0.98416  0.87036  1.0000
  H   H2210     1.0  0.67894  0.59434  0.97742  1.0000
  H   H2211     1.0  0.67853  0.96587  0.80075  1.0000
  H   H2212     1.0  0.78241  0.61570  0.97094  1.0000
  H   H2213     1.0  0.87048  0.52595  0.85699  1.0000
  H   H2214     1.0  0.63558  0.98903  0.92194  1.0000
  C   C1303     1.0  0.51175  0.78750  0.90374  1.0000
  N   N92       1.0  0.68776  0.72898  0.87526  1.0000
  C   C1304     1.0  0.70395  0.71411  0.86096  1.0000
  C   C1305     1.0  0.66357  0.72014  0.87097  1.0000
  C   C1306     1.0  0.69387  0.72541  0.90033  1.0000
  C   C1307     1.0  0.69088  0.75396  0.86831  1.0000
  C   C1308     1.0  0.73014  0.71769  0.86498  1.0000
  C   C1309     1.0  0.65511  0.72123  0.84571  1.0000
  C   C1310     1.0  0.67966  0.73920  0.91820  1.0000
  C   C1311     1.0  0.67076  0.77097  0.87373  1.0000
  H   H2215     1.0  0.70047  0.69538  0.86374  1.0000
  H   H2216     1.0  0.70106  0.71702  0.84220  1.0000
  H   H2217     1.0  0.65054  0.72917  0.88163  1.0000
  H   H2218     1.0  0.66213  0.70176  0.87651  1.0000
  H   H2219     1.0  0.69253  0.70669  0.90483  1.0000
  H   H2220     1.0  0.71211  0.73040  0.90384  1.0000
  H   H2221     1.0  0.70685  0.76116  0.87635  1.0000
  H   H2222     1.0  0.69368  0.75511  0.84932  1.0000
  H   H2223     1.0  0.73988  0.70859  0.85110  1.0000
  H   H2224     1.0  0.73515  0.73618  0.86444  1.0000
  H   H2225     1.0  0.73587  0.70975  0.88146  1.0000
  H   H2226     1.0  0.63643  0.71674  0.84508  1.0000
  H   H2227     1.0  0.65699  0.73873  0.83822  1.0000
  H   H2228     1.0  0.66410  0.70826  0.83473  1.0000
  H   H2229     1.0  0.68489  0.73359  0.93578  1.0000
  H   H2230     1.0  0.66080  0.73608  0.91692  1.0000
  H   H2231     1.0  0.68333  0.75800  0.91724  1.0000
  H   H2232     1.0  0.67800  0.78753  0.88030  1.0000
  H   H2233     1.0  0.65820  0.76516  0.88677  1.0000
  H   H2234     1.0  0.66125  0.77559  0.85769  1.0000
  C   C1312     1.0  0.70821  0.62270  0.99952  1.0000
  H   H2235     1.0  0.52028  0.79787  0.89012  1.0000
  C   C1313     1.0  0.87426  0.53240  0.83933  1.0000
  H   H2236     1.0  0.51373  0.59821  0.83509  1.0000
  H   H2237     1.0  0.51408  0.94897  0.91818  1.0000
  C   C1314     1.0  0.68192  0.94691  0.80145  1.0000
  H   H2238     1.0  0.68575  0.00515  0.92705  1.0000
  H   H2239     1.0  0.71952  0.94485  0.80376  1.0000
  C   C1315     1.0  0.76446  0.61330  0.96441  1.0000
  H   H2240     1.0  0.70849  0.92609  0.78245  1.0000
  N   N93       1.0  0.50919  0.92871  0.88717  1.0000
  H   H2241     1.0  0.93198  0.52222  0.79104  1.0000
  H   H2242     1.0  0.61651  0.96202  0.82039  1.0000
  H   H2243     1.0  0.55082  0.95879  0.90708  1.0000
  H   H2244     1.0  0.92563  0.56641  0.87123  1.0000
  C   C1316     1.0  0.69271  0.64376  0.95652  1.0000
  C   C1317     1.0  0.85544  0.52209  0.82332  1.0000
  H   H2245     1.0  0.63722  0.93876  0.76332  1.0000
  H   H2246     1.0  0.50894  0.80648  0.84140  1.0000
  H   H2247     1.0  0.62628  0.92651  0.80050  1.0000
  N   N94       1.0  0.56544  0.62360  0.99752  1.0000
  H   H2248     1.0  0.55959  0.89921  0.90380  1.0000
  H   H2249     1.0  0.72329  0.62791  0.94242  1.0000
  H   H2250     1.0  0.65777  0.98895  0.00224  1.0000
  H   H2251     1.0  0.81263  0.60086  0.00261  1.0000
  N   N95       1.0  0.66193  0.93367  0.79112  1.0000
  C   C1318     1.0  0.91406  0.53581  0.85252  1.0000
  H   H2252     1.0  0.85310  0.56141  0.77630  1.0000
  C   C1319     1.0  0.70591  0.94338  0.79025  1.0000
  C   C1320     1.0  0.85035  0.63846  0.99077  1.0000
  H   H2253     1.0  0.69289  0.90345  0.81723  1.0000
  H   H2254     1.0  0.53028  0.93867  0.84325  1.0000
  H   H2255     1.0  0.52584  0.77948  0.91412  1.0000
  C   C1321     1.0  0.66648  0.90792  0.78991  1.0000
  C   C1322     1.0  0.87269  0.59695  0.00113  1.0000
  H   H2256     1.0  0.51243  0.62831  0.96783  1.0000
  H   H2257     1.0  0.70916  0.95684  0.77701  1.0000
  H   H2258     1.0  0.68363  0.94348  0.82030  1.0000
  H   H2259     1.0  0.60032  0.62359  0.98413  1.0000
  H   H2260     1.0  0.75161  0.63443  0.99240  1.0000
  S   S383      1.0  0.63850  0.66080  0.99468  1.0000
  H   H2261     1.0  0.69553  0.96418  0.92302  1.0000
  C   C1323     1.0  0.67810  0.96870  0.92981  1.0000
  H   H2262     1.0  0.68549  0.59150  0.94714  1.0000
  H   H2263     1.0  0.66359  0.89862  0.82701  1.0000
  H   H2264     1.0  0.85680  0.52833  0.80536  1.0000
  H   H2265     1.0  0.54363  0.92017  0.92005  1.0000
  H   H2266     1.0  0.59537  0.58670  0.96982  1.0000
  H   H2267     1.0  0.93241  0.53059  0.85047  1.0000
  H   H2268     1.0  0.72552  0.58945  0.95249  1.0000
  H   H2269     1.0  0.53923  0.55383  0.80442  1.0000
  C   C1324     1.0  0.92929  0.53807  0.80160  1.0000
  H   H2270     1.0  0.67932  0.90329  0.77649  1.0000
  C   C1325     1.0  0.63221  0.96221  0.80931  1.0000
  H   H2271     1.0  0.52434  0.85419  0.88443  1.0000
  C   C1326     1.0  0.58214  0.59907  0.96337  1.0000
  H   H2272     1.0  0.69188  0.65435  0.94058  1.0000
  H   H2273     1.0  0.58774  0.60306  0.94551  1.0000
  H   H2274     1.0  0.87096  0.55132  0.84007  1.0000
  H   H2275     1.0  0.53679  0.59452  0.86386  1.0000
  C   C1327     1.0  0.53771  0.96312  0.89369  1.0000
  H   H2276     1.0  0.63968  0.61092  0.98479  1.0000
  H   H2277     1.0  0.76354  0.59533  0.95763  1.0000
  C   C1328     1.0  0.90424  0.53944  0.81058  1.0000
  H   H2278     1.0  0.72404  0.57903  0.98062  1.0000
  H   H2279     1.0  0.68858  0.56758  0.96673  1.0000
  C   C1329     1.0  0.54188  0.90584  0.90744  1.0000
  H   H2280     1.0  0.67394  0.95450  0.86430  1.0000
  C   C1330     1.0  0.91446  0.56232  0.85614  1.0000
  H   H2281     1.0  0.53840  0.61830  0.95488  1.0000
  H   H2282     1.0  0.89718  0.56965  0.86004  1.0000
  C   C1331     1.0  0.74718  0.61740  0.98441  1.0000
  C   C1332     1.0  0.71655  0.59261  0.96919  1.0000
  H   H2283     1.0  0.69298  0.99253  0.95367  1.0000
  C   C1333     1.0  0.67562  0.89667  0.81230  1.0000
  H   H2284     1.0  0.51523  0.62011  0.91207  1.0000
  H   H2285     1.0  0.54695  0.56500  0.86798  1.0000
  H   H2286     1.0  0.55390  0.58763  0.99740  1.0000
  H   H2287     1.0  0.54405  0.92198  0.87427  1.0000
  H   H2288     1.0  0.65404  0.95956  0.99228  1.0000
  H   H2289     1.0  0.67849  0.97505  0.98327  1.0000
  H   H2290     1.0  0.63853  0.96997  0.95724  1.0000
  S   S384      1.0  0.50983  0.86648  0.83756  1.0000
  C   C1334     1.0  0.50897  0.56867  0.87035  1.0000
  H   H2291     1.0  0.83818  0.52772  0.82976  1.0000
  C   C1335     1.0  0.53043  0.91363  0.88465  1.0000
  H   H2292     1.0  0.58717  0.66680  0.99151  1.0000
  H   H2293     1.0  0.50775  0.75695  0.88257  1.0000
  H   H2294     1.0  0.56510  0.59059  0.96176  1.0000
  C   C1336     1.0  0.53381  0.57806  0.87307  1.0000
  C   C1337     1.0  0.65559  0.94297  0.76756  1.0000
  C   C1338     1.0  0.51294  0.94623  0.84621  1.0000
  N   N96       1.0  0.65651  0.00229  0.95023  1.0000
  H   H2295     1.0  0.51993  0.53267  0.84466  1.0000
  H   H2296     1.0  0.62698  0.96993  0.79264  1.0000
  C   C1339     1.0  0.64525  0.98549  0.96654  1.0000
  H   H2297     1.0  0.54498  0.95937  0.87646  1.0000
  H   H2298     1.0  0.65043  0.89858  0.78464  1.0000
  H   H2299     1.0  0.54203  0.57527  0.82653  1.0000
  C   C1340     1.0  0.58233  0.62177  0.97767  1.0000
  H   H2300     1.0  0.81257  0.57013  0.00228  1.0000
  H   H2301     1.0  0.75147  0.60411  0.99755  1.0000
  C   C1341     1.0  0.65988  0.97713  0.98720  1.0000
  H   H2302     1.0  0.52626  0.89772  0.87464  1.0000
  C   C1342     1.0  0.53863  0.55672  0.82339  1.0000
  C   C1343     1.0  0.52906  0.61930  0.97155  1.0000
  H   H2303     1.0  0.54531  0.65072  0.98105  1.0000
  C   C1344     1.0  0.51420  0.95146  0.89911  1.0000
  H   H2304     1.0  0.50577  0.53977  0.81854  1.0000
