data_image0
_chemical_formula_structural       HFeCSFeHSFeSCSFeS2FeSFeSFeS3FeS2FeS2FeSFeS3FeS2FeS2FeSFeS3HC2HC3HCH2C6H4C6H4C6H4C6H4C6H4C6H5C3H4SC2HCHCSH7CH2CHCH6NHCHC2H11C2H4NHC2SH6CH3CH3CH2CH2C2H2FeH2CHCH2C2H2NCH7C2H2C6HCH2CNCH8C2HCH3CH5CHCH5NC8H20CH3CH2C2H2NH8CHCSH4NHCH3CH2CH3C2H2NSC2HCH2FeSFeS2FeSFeS3FeS2FeS2FeSFeS3FeS2FeS2FeSFeS3FeS2FeS2FeSFeS3CHFeS2FeCSHFeS3H2FeS2FeSFeSC2FeS2FeS2FeSFeS3FeS2FeS2FeSFeS3C6H4C6H4C6H4C6H4C6H4C6H4C6H4C3H6C6H4C6H4C6H4C6H4C6H4C6H4C6H5CH2C2H14CHC3HNHCH6CH3CHNH5CHCH4C2HCNH2C3H5CH2CSH5C2H3SC2H2CH3CNC8H20SCH7SHCH3C2H4CH3CH8CH5CH3C2HNC8H20CH6NC4HC4H7C3H12CHCHC2H2C2NH3NC8H20NC8H20NC7H16CH2C2H11CHNC2H4NC8H20NC4SCH11NCHCH3CH3FeH2SCH2CHFe2S2FeS2FeCFeS3FeS2FeS2HFeS3FeS2FeS2FeSFeS3FeS2FeS2FeSFeS3HSC6H4C6H4C6H4C6H4C6H4C6H4C6H5C2H2C6H4CHCFeCHCH3NC3HCH4CH7C2H2C3H2SH10CH2C2H4CH6CH3NCH5C2HCHN2CH4CH21CH3NH2CH4C3H4C2H2C3NH2CH2C2HCH4CH3CH2CH3C2H3C2H2CHCH9C2H2CHCH3CH3CH2CH2NH3C2H2CH2CH2NH2CH2SFeS2FeSFeSFeS3FeS2FeS2FeSFeS3FeS2FeS2FeSFeS3FeS2FeS2FeSFeS3H3CNFeHSHCHSFeS2FeS2FeSHS2FeS2FeS2FeSFeS3FeS2FeS2FeSFeS3C6H4C6H4C6H4C7H3C6H4C6H4C6HFeH2C6H2C6H4C6H4C6H4C6H4C6H4C6H4C6H4C6H4NC5HC2H13NH6NC7H17NC8H21S2H6CNC8H20NC8H20CH2CH3NH2C2H11C4H5CH5C2HCH5C3H5CNC7H17SHCH2N2C8H20CH2CH3CH2CFeH2CH3CH5CH5C2H3CSHCH2N2HCHCHCHCHCH7CHC2H3CFeH2FeH3CH8FeH2C2SH2CH3C5H2CH2C2NCH3CH7CHCH2C2SH10C2H8CH6C3H2NH2CHSHCH3SH5CH4SHFeS2FeS2FeSFeS3HSFeS2FeSFeS3FeS2FeS2FeSFeS3FeS2FeS2FeSFeS3HSHSFeS2FeSFeSHSFeCSFeHSHCFeS3FeS2FeS2FeSFeS3FeS2FeS2FeSFeS3HC6H4C6H4C6H4C6H4C6H4C6H4C6H4C2H2C2H4C6H4C6H4C6H4C6H4C6H4C6H4C6H4C6H6CNC8H20NC8H17CH2NC8H22NC6H11NC7H16NC5H8CH3NC8H20C2H6NC8H21CH6C3H4C2HNFeHC2H2CNCH7CH6CHCHCH3CHC2H4C2H5CH3CH5C3HCH5SC2H6CNH2CH4CH2CHC2NH6SCHCH4NHCH3CH3CH2C2NCHC3H8C4H2CH7C2H4CH4CH2C2H3CH2NHCHCFeHCH4C3HCH4CH3SHCHCHCH2CH4SH6NHCHFeHCH4NH4SH7FeCSFeS2HFeS3FeSH2SFeSFeSH2FeS2FeS2FeSFeS3FeS2FeS2FeSFeS4C6H4C5H2C6H4C6H4C6H4C6H2CHC6H4C6H5SHC4H2NCH4CH4C3HC2H3C3H3CH2CSHNCH4C2H2CH7CH2SHFeHCH6CNH12CHCNC8H19CH7CHFeH3CH2NH2CSCH3CH2CHCHCH2CH3CH2NH2NC8H27NC2H3CH2CHCHC2H9CH6C2HC2HSH4C2HC2HCH2NHCH3CHCH3SFeS2FeS2Fe2S3FeSFeS2FeS3FeS2FeS2FeSFeS3FeS2FeS2FeSFeS3HSFeS2FeSFeSHSFeS2FeS2FeSFeS3FeS2FeS2FeSFeS3FeS2FeS2FeSFeS3HC6HCH2C6H4C6H4C6H4C6H4C6H4C6H4C6H4C6H4C6H4C6H4C6H4C6H4C6H5C3H2C6H4NC8H20NC8H20NC8H19CH3SH2CH3FeH12C2H4CH2C2NC5NH3CH5CH7NH3CNC8H24CH3CH3C2H2NH8NC8H22CH2CH2CH3C2HC2HCH3CHCH2NH3CHNC8H13C2H5CH3CH2CSH7C2HC2H2C2H5NC8H18C2HNH2CH2CH3CH3C3H5CFeCH2C2H3C2HCH3CH5C2H2CH2NH7C2H2NH2C2H3CHC3H4CH4CH3CHNH3SCH5CHSCHCH2CH2CH5CHCH4CH2FeHSFeHSFeSHSH2CSCFeSH4FeS2FeS2FeSFeS3FeS2FeS2FeSFeS4HC6H4C3H4NC7H4C6H4C6H4C6H4C6H4C6H4CH3CHCH7Fe2H3C2HSCHSH7CNC2H3CHCHC3HCHC2NCHSNH2SH4CH16C2HNCH2CFeHCH3NC8H24C3HSNH2CH4CH4C3H5SC2H3C3HSCH4CHCHCHC2H11CH4CH4CH2CH2CHCH4C2H2CNH5CH2SHC2H3CH2SHFeSFeS2FeSFeS3FeS2FeSHFeSFeS3FeS2FeS2FeSFeS3FeS2FeS2FeSFeS3HCSH2SFeS3FeSFeS3FeS2FeS2FeSFeS3FeS2FeS2FeSFeS3FeS2FeS2FeSFeS3C6H4C6H4C6H4C6H4C6H4C6H4C6H4C6H4C6H4C6H4C6H4C6H6C6H4C6H4C6H5C6H6CH2CH6CH2CH2CNC8H20NC8H20NC8H20NC8H20NC8H20CH5NH5C4NH5CHC2HNHCNC8H20NC8H20NC8H24CH3C2HCH11CH2NH2NC3HCH12CH5NC8H16C2HFeCH8C2H4C2H2CNC2H4CHC3H2CH3C2H5CH6CHC2HCHCH2C2H4C3H9NHCH8C2HC2H2CH3CH5C2HNHC2H2FeHFeCHSHFeS2FeSFeSFeS3CSFeS2FeSFeS2HFeS2FeS2FeSFeS3FeS2FeS2FeSFeS3C6H4C6H4C6H4C6H4C6H4C6H6C5H3C6H3NC8H21NC4HC3H5CHCNH8CH2CHCH7CSH5CHC2HC2H7C2H11CH2C2HC3HCNH5C3H9CH5C2HCH5CSH2C2H3CH4CH2C2H4CNH2CH2NHCHCH2CH9C2H2NH3CSH3CH9CH2CH3C2H2SHSFeSFeSCFeS2FeS2FeSFeS3FeS2FeS2FeSFeS3FeS2FeS2FeSFeS3CFeSFeS2FeSFeS3FeS2FeS2Fe2S3FeS2FeS2FeSFeS3FeS2FeS2FeSFeS4C6H4C6H4C6H4C6H4C6H4C6H4CNC4H3C6HSH2C6H4C6H4C6H4C6H4C6H4C6H3NC6H4C6H4NC8H21C3HNC8H38CH8CH2C2HCH5CH3CH6NC8H18NC6H14CH5CSH10CNCH2C4HSH2CH2CSHFeCH2CNC2HC2H3CH3NC8H23C2H2CH5CHC2H4CH3NH3NH3CHCHFeH3CHCHNC8H21CH7CHNC8H20NC8H14CH5NC8H25CHCH6CH6CHCH2C2HCH3CH6C2HCHCHCH3CH3C2NCHCHCNH3NSHS2CFeSFeSH2SFeS2FeSFeSHSFeS2FeS2FeSFeS3FeS2FeS2FeSFeS3HC6H3C6H4C6H4C6H4C7H3C6H4C6H4C6H6NCH3C2H2CH16C3HNC8H10CH9CHC2FeHC3H4C2H12CH3NH2CHSH3CH8CH3CHNH12CHCSHC3H7CHC2H2C2HC4H7CH6CHCH3CNSCH2C2SH2C3S2CFeSFeS2FeS2FeSFeS2FeS2FeS2FeSFeS3FeS2FeS2FeSFeS4C6H4C2HC3H4C6H4C6H4C6H4C6H4C6H4C6H4NC6HCH4CH7CH7CH5CHCH2CH4CH5CSC2HCH4SCH5FeCH4SH4CH9CH4CNC2HN2H6CH2CH4CNC2H4CNC8H19NC8H20CSCH2CH2CHCH5CH2CFeHSFeCH2CHFeS2FeSFeSFeS3NSFeS2FeSFeSH2FeS2FeS2FeSFeS3FeS2FeS2FeSFeS3FeS2FeS2FeSFeS3FeSFeS2FeSFeS3FeS2FeS2FeSFeS3FeS2FeS2FeSFeS4C6H4C6H4C6H4C6H4C6H4C6H4C6H4C6H4C6H4C6H4C6H4C6H4C6H4C6H6C3H5CHC4H4SH7C4H2SH3CHCH2CH6CHNH2CH7C2HCHC3HCHCH3NHNC8H20NC8H21CHCHCH4C2HCH2CH2CH2C2H4NC8H20NC6H14CHCH7NC7H16NC7H16CHCH3CH5NCHCH5C2HC3H3C2HNC8H21NC8H20NC6H13C2HNH3CH4CH3CH8CHCH2CH3SH2CH6C2HSH7NH2C2HC2HCHCH3CH9C2FeS2FeSCFeSFeS3FeS3FeSFeS3FeS2FeS2FeSFeS3FeS2FeS2FeSFeS3HCSHC4HCH3C6H4C6H4C6H4C6H4C6H4C6H4C6H8C2H5C2NCH4CH3CNHC8H2CH16NC7H6CH17CHCHC2H4CH4FeH9CH7CH3NC8H20CHC3HCH6C2H2CHC2HCH6NH3NH3C2H6CH4C2HN2H3C2HSHCH3CH2CH2C3H3FeHCHCH3FeS2FeS2FeSFeS3FeS2FeSCFeSFeS3FeS2FeS2FeSFeS3FeS2FeS2FeSFeS4HSHNFeS2FeSFeSHFeS2CSFeSFeSHSFeS2FeS2FeSFeS3FeS2FeS2FeSFeS3HSC6H4C6H4C6H5C6H3C7H4C6H4C6H4C6H4C6H3C6H4C6H4C6H4C6H4C6H4C6H4C6H4NC5H14C2H5NC8H20CH2C2H2CH3S2H5C3NC2HCHC2NC8H9C2H9NC2HCH3C2H10CH3CHCH2NC8H21CNC8H9CNH9NC8H20NC8H20NC7H20NC8H22CH3CH7NCH5CH3C2H2C2H4NCH6C2H9CH3CH5CH2CH2CHCH8FeH8C3HCH5CH2CH3SH3NH2FeC2H3CH3CH9CHCHCH5CH5CH4C2H2NH4CH2CHCHCH3C2H3CHS2CH4NH2SFeS2FeSFeSHS2FeS2FeSFeS2FeS2FeS2FeSFeS3FeS2FeS2FeSFeS3HSFeHSFeS2HFeSHSFeS2FeS2FeSFeS3FeS2FeS2FeSFeS3FeS2FeS2FeSFeS3C6H4C6H4C6H4C6H4C6H4C6H4C6H4C5H4C3H2C6H4C6H4C6H4C6H4C6H4C6H4C6H4C3H7NC8H21CH2C3H3CH16C2H3CH10CHN2C8H21NCH6CH3CHCH6CH6CH5CH9CH4C2HCHNC7H19CH2NFeC2H2CNC3HCH4C2FeCHCHC2HC3H4C3H12CH2CNC8H23CHCHC2HCHCH6CH2SNHCH4NCH2NC8H22NC7H16NC2H6CS2CHC2HCH3C2H6C2H2CHC2HNH4C2HSHC3HCHCH2FeH3CHNHC2H3CHCH6CH5CSH2NH3CH3CHCHNHCH7C2HCH2FeSFeS2FeSFeS3FeS2HFeSFeS3FeS2FeS2FeSFeS3FeS2FeS2FeSFeS4C6H4C6H4C6H4C6H4C6H4C6H4C6H5C3NCH2C2NC8H20NC8H24CH5CH2C2H6C2H5C2H6CH10C3H2CH4C2HSH2CH2NH2CH2CHC3H2C3HCSNCHCHNC7H17CH3NH3CHCH2CH2C2H8C2H4CHCHCH3CH3NHCH7C2H2NH4SCSH2CSFeS2FeSFeS3FeS2FeS2FeSFeS3FeS2FeS2FeSFeS3FeS2FeS2FeSFeS3HSFeS2FeSFeSHSFeS2FeHSFeSHS2FeS2FeS2FeSFeS3FeS2FeS2FeSFeS3C6H4C6H4C6H4C7H4C6H4C6H4C6H4C6H4C6H4C6H4C6H4C6H4C6H4C6H4C6H2CHC6H14CHCHCHCHC2H9NC8H20FeH8NC8H10CH9CH3CNC8H20NC8H24CHNHCH3N2H7CSH2NH7SH4CH2C2H2SH2CH6CH2CH2CH2C2H2CHCNCH4NHC3HCH2CNC8H21CH3CH3NC7H17NC8H20NC8H20CH2C2HCHCHC2HCH4CNC7H15NC8H7FeH5CH2FeHCH5CH5FeCH5CS2FeS2FeSFeS2FeSFeS2FeSFeS3FeS2FeS2FeSFeS3FeS2FeS2FeSFeS3C6H4C6H4C6H4C6H4C6H4C6H5C6H4CHC5H2SC2HCH2SH6CHC2H10C2H6NHNH5NC8H24C3NHC2H2C2H8CHSH2C2NH3CH7CHCH5NHCH5CH4C2H4CNC8H21CH2C2H8CHCH2FeH4C2HC2H4C3H2CHCH2CH3C2H2C2HCH3C2H6CHC2H2CH3SFeSFeS2FeSFeS3FeS2FeSCFeSFeS3FeS2FeS2FeSFeS3FeS2FeS2FeSFeS3HC4HCHC2HC6H4C6H4C6H4C6H4C6H4C6H5C6H4CH4NC8H9CH10CH4CH10CH3CH4C2H7CHCH2NCHCNH6NCH2CH3C2NC8H21NC8H20CHCH7CH2C3H2CHCH2CH2CHSH5CHC2H2NCHFeC2H6C3HCH8NHSH2C2HCH7CH4CH4CHFeS2FeS2FeSFeS3FeSFeS2FeSFeS2HFeS2FeS2FeSFeS3FeS2FeS2FeSFeS3HSFeS2FeSFeS3FeS2HSFeSFeSFeHFeS2FeS2FeSFeS3FeS2FeS2FeSFeS4CSC6H4C6H4C6H4C6H4C6H4C6H4C6H4C6H4C6H4C6H4C6H5C6H4C6H4C6H4C6H4CHC5H2NC8H20NC8H20NC8H25SH4CH3CHC2HC2H5FeHN2C8H17NC8H13CH5NC8H22NC8H12NC4H14CH4CH3CH2CHC2HCHCSHSH8C2H3CHCHNC8H20CHNHC2NH5CHCH6NHFeC3H11C2H6CHCH6C2H8CH7C2N2H4CH2CH9CH2CH6CH2C3H2CHCHCH5C2H4SC2H4CNFeS2FeSFeSFeS3HCSHCHS2HFeS2FeS2FeSFeS3FeS2FeS2FeSFeS4C6H4C6H4C6H4C6H4C6H4C6H4C6H5C5H2FeH2CHCSCH6CSH5C2H3CH2C4H6C2H5CH7CHCH2C3HCHCH2C2HCH4CH3CH2FeH4CH2C2H2SCFeH2CNH2C2H4CH4NHCHNC2H3NC3H2CHC2HCH2CH5NHCNC2HC2H2CHCNC8H38CHNHSH6CH5SHC2HCH10CHSHFeS2FeS2FeSFeS3FeS2FeS2Fe2S3FeS2FeS2FeSFeS3FeS2FeS2FeSFeS3FeS2FeS2FeSHSFeS2FeS2FeSCSCFeS2FeS2FeSFeS3FeS2FeS2FeSFeS3CNC2H6C6H4C6H4C6H4C6H4C6H4C6H4C6H4C6H4C6H4C6H4C6H4C6H4C6H4CFeC4H3C6H4NC8H20C2H10CH3CH9C2NCH5NHC5H9NC8H20NC8H20NC8H14CH6SCHCH5CH4CHNC8H26C2H5CH3C2H2C2HC2HC2HNHCH4CHNH2SCHCNHNC8H20NC8H20CH4CHNH8CH2C3H2CHSCHC2H3CH4FeH3NH3CH2CHC2H6CH4CH5CHC2H3C3H2CH5CFeS2FeSFeSHCFeS2FeSHFeSFeS3FeS2FeS2FeSFeS3FeS2FeS2FeSFeS3HSH2C3H2C6H4C6H4C6H4C6H5CH3C6H4C6H4C6H4NCH3CHCHNH4NC5HC2H11CH9CHSCH3NH2NHC3H4NC8H22CH4CH2C2HC3HC2H3CH2CH2CH3SH4CH3NC8H20CHCHCHCH4CH3NCHCHSH6CH4CH5CSHSHCH2CH4C3H2CH4CHSFeS3FeSFeSFeSFeS2FeSFeS3FeS2FeS2FeSFeS3FeS2FeS2FeSFeS4FeS2FeSHFeSFeS3FeS2FeS2FeSFeS3FeS2FeS2FeSFeS3FeS2FeS2FeSFeS3NC6HCH2C6H4C6H4C6H4C6H4C6H4C6H4C7H3C6H4C6H4C6H4C6H4C6H4C6H4C6H4C6H13CH7C2HC2HNCHFeHCHCNC7H15NC8H20NC8H20NC4H17CHNC8H20NC8H20NC6H2CH11NC8H20NC8H20NC4H10CH6C2HCH3NC8H20CH5C3HCH4CHSHCH2CH8CH3SC2H5C2H2CH4CHC3H4CH6CHCH2NH3CHCHCHCH2CH11CH3CHNHCHCHFeH4CH3CHCH3SCHCH3NH2NCH10CHCH3C2H2C2H17C4H2CH2NHCHC2H5CHCHCH2CHSNH3CH2CHCHC2H3CFeS2FeS2FeSFeS3HFeSC2FeS2FeS2FeSFeS3FeS2FeS2FeSFeS3C2HC3H3C6H4C6H4C6H4C6H4C6H4C6H4C6H4CNHNC8H23CNHCHC2SH2CH4CHNHCH2CHCH4CH4C2H3CH2NCH3FeH2CHCHCHCH10CH4FeCH5CHFeC2HCH4CSC2H4C2H4CH3CH2CHC2HCH9CHC2FeH3NHC2H2CH4SHCH2CNCHCH2CH9CH4CH6C2HCHCHNCHSH4SHCH5CH2C2H2CH3SHNHCH4CHCH5CH7CHSH2C2HCFeS2FeSFeSH2FeS2FeS2HFeS3FeS2FeS2FeSFeS3FeS2FeS2FeSFeS3HFeS2FeSHFeSFeS3FeS2FeS2FeSFeS3FeS2FeS2FeSFeS3FeS2FeS2FeSFeS4H3CH2C3HCH2C6H4C6H4C6H4C6H4C6H4C6H4C6H9C6H4CH2C3H4C6H4C6H4C6H4C6H4C6H4C6H5NC4H10CH5NC8H21CHCH9CH4C3SCHFeH2SHNHC3HCH2CHCNH8CH2CHNH3C3H2CH4C2HCH4CH3CH6CHCH2SH2CH4C2H6C3HCH6CH4CH4C2HCHC6H10CH11C3H2NC8H20NC8H27C2HC3HNH5CH5C2H2CHCHCNCHCH4CH4NCH4CHCHC2H4CHCHC2H2CHCHNCH4C2HCHCH2CH3CNCH2NH4NH2CH2C2H4CHCH3C2HCHSH3NH4CH2CHCH4C3SFeS2FeS2FeSFeS3FeSFeSFeS3FeS2FeS2FeSFeS3FeS2FeS2FeSFeS3FeSFeS2FeSFeS3FeS2FeS2FeSHCS2FeS2FeS2FeSFeS3FeS2FeS2FeSFeS3C6H4C6H4C6H7C6H4C6H4C6H5C2H2C6H4C6H4C6H4C6H4C6H4C6H4C6H4C6H4CHC5H2NC8H23C2H2CH3CHCHCH3NCHNC7H15NC8H20NC3H5CHC2H2CH2CH9CNC8H24CHFeH6CH2CH2C2H13C3HCNC8H30CN2CH6CH6CH2C3HC2H4NC8H19SCHCH6CHCFeCHCHCH2CH2CH4NH2CHCHC2HCH2CHCH2NCH4CH2C2H2CH2CH2C2H2CH4C2H6CH3CH2CN2CH3CHCH4CHCHCHCFeH3CH3CH2SH3CH5SNHCH2CH5CH3CH6CHSFeS2FeCSCFeS3FeSCSCSCSFeS2FeS2FeSFeS3FeS2FeS2FeSFeS3C6H4C6H4C6H4C6HCH2C6H4C6H4C5H2C6H5CHC2H5CNH7C3H6C3H12C2H2CHCFeCH6SC2HCH7SFeCH3CH4CH2CH2NH3CH11C2H3CH2NC8H8CH11NC8H20NCH5NH4SH2SH2NCH4CH5C2H6C4HCH3CHCHCHCNH3CNH2CHCH2FeS2FeS2FeSFeS3FeS2CFeSFeSCSFeS2FeS2FeSFeS3FeS2FeS2FeSFeS3HCSH2SH2CFeS2FeSHFeSFeS3FeSFeS2FeSFeS3FeS2FeS2FeSFeS3FeS2FeS2FeSFeS3C6H4C6H4C6H4C6H4C6H4C6H5C6H4C6H2CHC6H4C6H4C6H4C6H4C6H4C6H4C6H4C5H4CH4NC8H21C2H2CH3CH5NHCH9CH8CH7CHC2H2FeSNH5NC7H17NC8H20C3H8NC8H20NC8H21CHCNCH3C2HCH3C2HCH2C2NC8H23CHCH5NH2NCH2CH3CH3C2H4CH3CH6CH2C2HCHC2H2CH9CHCH6C2H8C2H4CSHCH2NCH4CSH2CHC2H2C2H11NCHFeH2CHC3HNHC3HCH6CH3CHCH2NHNH6CH3C2HCFeS2FeSFeSFeS3FeS2HSFeSFeS3FeS2FeS2FeSFeS3FeS2FeS2FeSFeS3H3SC6H4C6H4C6H4C6H4C6H4C6H4C6H4C5H17CH4C3H2C2H4NC8H20CHCH3CH4CH3CH3CHCHC2HNHCHCH5CH3C2H2SH4C2H3CNHCH3C3HCH2NC8H20FeH2SH4CNCHNC8H22CHNH3C3H4CH4CH2
_chemical_formula_sum              "H9216 Fe768 C5376 S1536 N384"
_cell_length_a       114.74
_cell_length_b       114.893
_cell_length_c       115.007
_cell_angle_alpha    74.8427
_cell_angle_beta     74.8946
_cell_angle_gamma    74.8724

_space_group_name_H-M_alt    "P 1"
_space_group_IT_number       1

loop_
  _space_group_symop_operation_xyz
  'x, y, z'

loop_
  _atom_site_type_symbol
  _atom_site_label
  _atom_site_symmetry_multiplicity
  _atom_site_fract_x
  _atom_site_fract_y
  _atom_site_fract_z
  _atom_site_occupancy
  H   H1        1.0  0.13742  0.38064  0.18808  1.0000
  Fe  Fe1       1.0  0.13503  0.46810  0.08380  1.0000
  C   C1        1.0  0.14229  0.37448  0.22234  1.0000
  S   S1        1.0  0.12424  0.45646  0.07942  1.0000
  Fe  Fe2       1.0  0.14163  0.47156  0.10654  1.0000
  H   H2        1.0  0.19066  0.36037  0.99431  1.0000
  S   S2        1.0  0.13918  0.46754  0.12707  1.0000
  Fe  Fe3       1.0  0.15941  0.47459  0.08217  1.0000
  S   S3        1.0  0.17966  0.47069  0.07359  1.0000
  C   C2        1.0  0.12620  0.39387  0.22469  1.0000
  S   S4        1.0  0.15068  0.45881  0.09348  1.0000
  Fe  Fe4       1.0  0.21379  0.40624  0.08941  1.0000
  S   S5        1.0  0.19991  0.39731  0.08645  1.0000
  S   S6        1.0  0.20848  0.42058  0.10095  1.0000
  Fe  Fe5       1.0  0.23567  0.39090  0.07498  1.0000
  S   S7        1.0  0.22379  0.38063  0.07039  1.0000
  Fe  Fe6       1.0  0.21084  0.39896  0.06706  1.0000
  S   S8        1.0  0.20058  0.40696  0.05163  1.0000
  Fe  Fe7       1.0  0.21376  0.37970  0.09011  1.0000
  S   S9        1.0  0.20961  0.36175  0.10200  1.0000
  S   S10       1.0  0.22358  0.40945  0.06973  1.0000
  S   S11       1.0  0.22668  0.38844  0.09498  1.0000
  Fe  Fe8       1.0  0.15101  0.38556  0.03965  1.0000
  S   S12       1.0  0.13492  0.37667  0.04272  1.0000
  S   S13       1.0  0.16960  0.37372  0.04182  1.0000
  Fe  Fe9       1.0  0.13519  0.41157  0.03707  1.0000
  S   S14       1.0  0.11784  0.40472  0.03985  1.0000
  S   S15       1.0  0.13453  0.43201  0.03370  1.0000
  Fe  Fe10      1.0  0.12535  0.39026  0.05500  1.0000
  S   S16       1.0  0.11458  0.38465  0.07430  1.0000
  Fe  Fe11      1.0  0.12908  0.39187  0.02717  1.0000
  S   S17       1.0  0.12332  0.39108  0.00978  1.0000
  S   S18       1.0  0.14194  0.39795  0.05292  1.0000
  S   S19       1.0  0.14599  0.39994  0.02331  1.0000
  Fe  Fe12      1.0  0.14413  0.40146  0.14684  1.0000
  S   S20       1.0  0.12379  0.40798  0.14814  1.0000
  S   S21       1.0  0.15508  0.41204  0.15211  1.0000
  Fe  Fe13      1.0  0.14451  0.37726  0.14098  1.0000
  S   S22       1.0  0.12396  0.38119  0.14256  1.0000
  S   S23       1.0  0.15709  0.35961  0.13674  1.0000
  Fe  Fe14      1.0  0.12669  0.39986  0.13159  1.0000
  S   S24       1.0  0.11839  0.41035  0.11517  1.0000
  Fe  Fe15      1.0  0.12277  0.38891  0.15909  1.0000
  S   S25       1.0  0.10928  0.38602  0.17733  1.0000
  S   S26       1.0  0.14726  0.39551  0.12903  1.0000
  S   S27       1.0  0.14304  0.38283  0.15868  1.0000
  H   H3        1.0  0.19344  0.40538  0.15343  1.0000
  C   C3        1.0  0.10702  0.39678  0.18664  1.0000
  C   C4        1.0  0.09952  0.39508  0.19849  1.0000
  H   H4        1.0  0.17428  0.43285  0.02928  1.0000
  C   C5        1.0  0.10385  0.41332  0.20209  1.0000
  C   C6        1.0  0.11116  0.41514  0.19018  1.0000
  C   C7        1.0  0.11286  0.40682  0.18254  1.0000
  H   H5        1.0  0.09495  0.38735  0.20171  1.0000
  C   C8        1.0  0.09566  0.42989  0.14948  1.0000
  H   H6        1.0  0.11579  0.42283  0.18695  1.0000
  H   H7        1.0  0.11884  0.40812  0.17356  1.0000
  C   C9        1.0  0.11673  0.39106  0.08578  1.0000
  C   C10       1.0  0.11249  0.38617  0.09825  1.0000
  C   C11       1.0  0.11369  0.39153  0.10747  1.0000
  C   C12       1.0  0.11898  0.40191  0.10421  1.0000
  C   C13       1.0  0.12350  0.40657  0.09179  1.0000
  C   C14       1.0  0.12245  0.40115  0.08262  1.0000
  H   H8        1.0  0.10810  0.37834  0.10080  1.0000
  H   H9        1.0  0.11007  0.38794  0.11706  1.0000
  H   H10       1.0  0.12752  0.41462  0.08927  1.0000
  H   H11       1.0  0.12562  0.40514  0.07311  1.0000
  C   C15       1.0  0.19488  0.36155  0.11144  1.0000
  C   C16       1.0  0.18519  0.37185  0.11051  1.0000
  C   C17       1.0  0.17358  0.37143  0.11834  1.0000
  C   C18       1.0  0.17157  0.36064  0.12699  1.0000
  C   C19       1.0  0.18118  0.35026  0.12764  1.0000
  C   C20       1.0  0.19281  0.35074  0.11995  1.0000
  H   H12       1.0  0.18661  0.38007  0.10369  1.0000
  H   H13       1.0  0.16612  0.37933  0.11745  1.0000
  H   H14       1.0  0.17966  0.34185  0.13418  1.0000
  H   H15       1.0  0.20023  0.34269  0.12061  1.0000
  C   C21       1.0  0.19250  0.39734  0.04873  1.0000
  C   C22       1.0  0.19527  0.38453  0.05275  1.0000
  C   C23       1.0  0.18861  0.37717  0.05012  1.0000
  C   C24       1.0  0.17881  0.38269  0.04401  1.0000
  C   C25       1.0  0.17604  0.39548  0.04005  1.0000
  C   C26       1.0  0.18306  0.40272  0.04218  1.0000
  H   H16       1.0  0.20266  0.38028  0.05769  1.0000
  H   H17       1.0  0.19087  0.36726  0.05308  1.0000
  H   H18       1.0  0.16859  0.39980  0.03521  1.0000
  H   H19       1.0  0.18114  0.41253  0.03880  1.0000
  C   C27       1.0  0.18784  0.45706  0.08150  1.0000
  C   C28       1.0  0.18319  0.45205  0.09380  1.0000
  C   C29       1.0  0.18965  0.44092  0.09982  1.0000
  C   C30       1.0  0.20059  0.43462  0.09345  1.0000
  C   C31       1.0  0.20530  0.43967  0.08118  1.0000
  C   C32       1.0  0.19906  0.45101  0.07532  1.0000
  H   H20       1.0  0.17472  0.45684  0.09876  1.0000
  H   H21       1.0  0.18603  0.43713  0.10935  1.0000
  H   H22       1.0  0.21384  0.43495  0.07627  1.0000
  H   H23       1.0  0.20280  0.45498  0.06588  1.0000
  C   C33       1.0  0.14523  0.45221  0.13330  1.0000
  C   C34       1.0  0.14686  0.44293  0.12686  1.0000
  C   C35       1.0  0.14976  0.43054  0.13268  1.0000
  C   C36       1.0  0.15177  0.42745  0.14468  1.0000
  C   C37       1.0  0.15079  0.43672  0.15091  1.0000
  C   C38       1.0  0.14725  0.44911  0.14530  1.0000
  H   H24       1.0  0.14530  0.44525  0.11762  1.0000
  H   H25       1.0  0.15040  0.42339  0.12788  1.0000
  H   H26       1.0  0.15228  0.43431  0.16023  1.0000
  H   H27       1.0  0.14594  0.45627  0.15032  1.0000
  C   C39       1.0  0.12984  0.45005  0.06622  1.0000
  C   C40       1.0  0.13361  0.43723  0.06760  1.0000
  C   C41       1.0  0.13541  0.43159  0.05761  1.0000
  C   C42       1.0  0.13340  0.43877  0.04617  1.0000
  C   C43       1.0  0.13015  0.45164  0.04465  1.0000
  C   C44       1.0  0.12831  0.45727  0.05465  1.0000
  H   H28       1.0  0.13472  0.43164  0.07654  1.0000
  H   H29       1.0  0.13808  0.42169  0.05887  1.0000
  H   H30       1.0  0.12864  0.45726  0.03580  1.0000
  H   H31       1.0  0.12514  0.46715  0.05356  1.0000
  H   H32       1.0  0.06025  0.37885  0.99429  1.0000
  C   C45       1.0  0.11952  0.35825  0.00487  1.0000
  C   C46       1.0  0.12108  0.36726  0.01034  1.0000
  C   C47       1.0  0.12138  0.37925  0.00351  1.0000
  H   H33       1.0  0.11708  0.39911  0.22262  1.0000
  H   H34       1.0  0.07100  0.43976  0.08871  1.0000
  H   H35       1.0  0.11913  0.34906  0.01028  1.0000
  H   H36       1.0  0.12189  0.36497  0.01988  1.0000
  S   S28       1.0  0.15162  0.48664  0.09603  1.0000
  C   C48       1.0  0.11840  0.44388  0.11190  1.0000
  C   C49       1.0  0.13448  0.37660  0.19801  1.0000
  H   H37       1.0  0.17180  0.42378  0.05558  1.0000
  C   C50       1.0  0.12009  0.38207  0.99118  1.0000
  H   H38       1.0  0.21001  0.39193  0.13797  1.0000
  C   C51       1.0  0.16481  0.43585  0.03445  1.0000
  S   S29       1.0  0.10279  0.42344  0.21168  1.0000
  H   H39       1.0  0.15425  0.44881  0.04583  1.0000
  H   H40       1.0  0.23511  0.40266  0.12212  1.0000
  H   H41       1.0  0.16126  0.42786  0.04080  1.0000
  H   H42       1.0  0.11946  0.45048  0.15466  1.0000
  H   H43       1.0  0.16270  0.47021  0.04234  1.0000
  H   H44       1.0  0.04315  0.37151  0.99548  1.0000
  H   H45       1.0  0.12607  0.44657  0.11398  1.0000
  C   C52       1.0  0.11113  0.45215  0.15075  1.0000
  H   H46       1.0  0.12443  0.48734  0.15383  1.0000
  H   H47       1.0  0.09676  0.43067  0.04864  1.0000
  C   C53       1.0  0.16941  0.43204  0.05973  1.0000
  H   H48       1.0  0.19453  0.41708  0.12572  1.0000
  C   C54       1.0  0.16795  0.37232  0.01255  1.0000
  H   H49       1.0  0.20628  0.41080  0.14207  1.0000
  H   H50       1.0  0.16092  0.34390  0.02243  1.0000
  H   H51       1.0  0.09338  0.37355  0.00207  1.0000
  H   H52       1.0  0.16904  0.39141  0.00292  1.0000
  H   H53       1.0  0.12229  0.44999  0.13313  1.0000
  H   H54       1.0  0.10907  0.46423  0.12115  1.0000
  N   N1        1.0  0.09560  0.43020  0.06796  1.0000
  H   H55       1.0  0.12376  0.39352  0.20303  1.0000
  C   C55       1.0  0.07409  0.43269  0.08294  1.0000
  H   H56       1.0  0.24693  0.43379  0.07299  1.0000
  C   C56       1.0  0.17048  0.46667  0.04724  1.0000
  C   C57       1.0  0.09649  0.41644  0.07060  1.0000
  H   H57       1.0  0.23402  0.43725  0.10951  1.0000
  H   H58       1.0  0.14558  0.34957  0.02997  1.0000
  H   H59       1.0  0.11351  0.45183  0.10591  1.0000
  H   H60       1.0  0.10810  0.46228  0.14810  1.0000
  H   H61       1.0  0.14190  0.36870  0.20061  1.0000
  H   H62       1.0  0.15020  0.37810  0.21579  1.0000
  H   H63       1.0  0.10407  0.44819  0.15823  1.0000
  H   H64       1.0  0.15769  0.35613  0.03085  1.0000
  H   H65       1.0  0.09707  0.46626  0.13388  1.0000
  H   H66       1.0  0.07831  0.42401  0.08855  1.0000
  H   H67       1.0  0.19317  0.44085  0.05923  1.0000
  C   C58       1.0  0.12007  0.37528  0.22363  1.0000
  C   C59       1.0  0.10090  0.46043  0.12687  1.0000
  H   H68       1.0  0.08166  0.46631  0.12452  1.0000
  H   H69       1.0  0.09300  0.47086  0.11092  1.0000
  H   H70       1.0  0.17434  0.43548  0.07585  1.0000
  H   H71       1.0  0.11898  0.43609  0.14281  1.0000
  N   N2        1.0  0.10457  0.44710  0.13297  1.0000
  H   H72       1.0  0.18061  0.41517  0.13653  1.0000
  C   C60       1.0  0.18050  0.38010  0.14175  1.0000
  C   C61       1.0  0.15750  0.37754  0.99486  1.0000
  S   S30       1.0  0.12514  0.47946  0.09801  1.0000
  H   H73       1.0  0.17184  0.42047  0.07748  1.0000
  H   H74       1.0  0.14333  0.36497  0.22103  1.0000
  H   H75       1.0  0.20725  0.37262  0.13510  1.0000
  H   H76       1.0  0.17563  0.34995  0.00686  1.0000
  H   H77       1.0  0.17123  0.40502  0.11305  1.0000
  H   H78       1.0  0.10484  0.44257  0.07201  1.0000
  C   C62       1.0  0.09999  0.44791  0.04902  1.0000
  H   H79       1.0  0.09114  0.43795  0.09184  1.0000
  H   H80       1.0  0.10417  0.45253  0.05372  1.0000
  H   H81       1.0  0.11107  0.42947  0.05237  1.0000
  C   C63       1.0  0.09940  0.43093  0.08912  1.0000
  H   H82       1.0  0.10601  0.41178  0.06681  1.0000
  H   H83       1.0  0.10505  0.44919  0.03926  1.0000
  H   H84       1.0  0.06331  0.36478  0.00455  1.0000
  C   C64       1.0  0.15434  0.35238  0.02464  1.0000
  H   H85       1.0  0.18578  0.42415  0.06802  1.0000
  H   H86       1.0  0.10681  0.43224  0.09296  1.0000
  C   C65       1.0  0.10366  0.43288  0.07502  1.0000
  H   H87       1.0  0.15931  0.43350  0.06359  1.0000
  H   H88       1.0  0.14407  0.36953  0.01609  1.0000
  C   C66       1.0  0.17179  0.35707  0.99942  1.0000
  C   C67       1.0  0.10110  0.43394  0.05441  1.0000
  H   H89       1.0  0.17527  0.45292  0.06277  1.0000
  H   H90       1.0  0.15980  0.45520  0.06176  1.0000
  Fe  Fe16      1.0  0.09599  0.41789  0.23223  1.0000
  H   H91       1.0  0.08888  0.40184  0.06858  1.0000
  H   H92       1.0  0.07779  0.43801  0.06312  1.0000
  C   C68       1.0  0.08256  0.43744  0.07062  1.0000
  H   H93       1.0  0.22031  0.37729  0.12444  1.0000
  C   C69       1.0  0.17582  0.42806  0.07079  1.0000
  H   H94       1.0  0.13981  0.39155  0.20168  1.0000
  H   H95       1.0  0.08263  0.44717  0.07043  1.0000
  C   C70       1.0  0.09799  0.40329  0.20623  1.0000
  C   C71       1.0  0.08771  0.41201  0.06535  1.0000
  H   H96       1.0  0.09788  0.42151  0.09358  1.0000
  H   H97       1.0  0.19408  0.40317  0.11240  1.0000
  N   N3        1.0  0.19243  0.39806  0.13219  1.0000
  C   C72       1.0  0.19061  0.41093  0.13426  1.0000
  H   H98       1.0  0.23039  0.43446  0.09629  1.0000
  H   H99       1.0  0.12251  0.43658  0.10644  1.0000
  H   H100      1.0  0.09087  0.45549  0.11522  1.0000
  H   H101      1.0  0.08683  0.42798  0.15561  1.0000
  H   H102      1.0  0.09511  0.41231  0.08057  1.0000
  H   H103      1.0  0.08894  0.44951  0.14818  1.0000
  H   H104      1.0  0.09896  0.42295  0.14357  1.0000
  C   C73       1.0  0.06281  0.36872  0.99473  1.0000
  C   C74       1.0  0.05171  0.36468  0.99290  1.0000
  H   H105      1.0  0.17246  0.38396  0.13728  1.0000
  H   H106      1.0  0.11309  0.42713  0.07312  1.0000
  C   C75       1.0  0.18562  0.44071  0.04313  1.0000
  C   C76       1.0  0.11831  0.36107  0.99250  1.0000
  C   C77       1.0  0.09101  0.46334  0.11902  1.0000
  C   C78       1.0  0.11469  0.44592  0.13959  1.0000
  C   C79       1.0  0.18780  0.39915  0.12074  1.0000
  C   C80       1.0  0.09338  0.44312  0.14175  1.0000
  H   H107      1.0  0.08617  0.44363  0.13665  1.0000
  C   C81       1.0  0.16402  0.44613  0.04113  1.0000
  H   H108      1.0  0.18819  0.43128  0.04116  1.0000
  H   H109      1.0  0.15883  0.43953  0.02755  1.0000
  C   C82       1.0  0.19564  0.44205  0.04915  1.0000
  N   N4        1.0  0.17243  0.44322  0.05012  1.0000
  C   C83       1.0  0.16939  0.45416  0.05613  1.0000
  H   H110      1.0  0.06561  0.43113  0.08114  1.0000
  H   H111      1.0  0.09026  0.45273  0.04898  1.0000
  H   H112      1.0  0.17779  0.39631  0.14858  1.0000
  H   H113      1.0  0.16985  0.47365  0.05258  1.0000
  H   H114      1.0  0.08996  0.41372  0.05516  1.0000
  H   H115      1.0  0.10194  0.43674  0.12072  1.0000
  H   H116      1.0  0.07788  0.41603  0.06857  1.0000
  H   H117      1.0  0.12594  0.37337  0.19877  1.0000
  C   C84       1.0  0.13199  0.38667  0.20550  1.0000
  C   C85       1.0  0.24592  0.41600  0.08615  1.0000
  H   H118      1.0  0.19244  0.42142  0.14667  1.0000
  C   C86       1.0  0.19609  0.41199  0.14476  1.0000
  H   H119      1.0  0.23579  0.41814  0.08944  1.0000
  H   H120      1.0  0.19840  0.45107  0.04506  1.0000
  H   H121      1.0  0.20671  0.37910  0.11896  1.0000
  C   C87       1.0  0.17478  0.40703  0.12027  1.0000
  H   H122      1.0  0.11142  0.38116  0.22088  1.0000
  H   H123      1.0  0.17940  0.46619  0.04055  1.0000
  H   H124      1.0  0.20408  0.43491  0.04707  1.0000
  H   H125      1.0  0.17704  0.37456  0.15090  1.0000
  H   H126      1.0  0.19184  0.38609  0.15034  1.0000
  C   C88       1.0  0.18577  0.39043  0.14356  1.0000
  H   H127      1.0  0.18788  0.39004  0.11925  1.0000
  C   C89       1.0  0.21008  0.37970  0.12693  1.0000
  H   H128      1.0  0.21105  0.39890  0.12208  1.0000
  H   H129      1.0  0.18660  0.44712  0.03397  1.0000
  H   H130      1.0  0.16831  0.40507  0.12918  1.0000
  H   H131      1.0  0.18739  0.37367  0.13646  1.0000
  H   H132      1.0  0.17494  0.41701  0.11780  1.0000
  N   N5        1.0  0.15904  0.37049  0.08727  1.0000
  C   C90       1.0  0.15627  0.36256  0.09996  1.0000
  C   C91       1.0  0.17065  0.36381  0.08003  1.0000
  C   C92       1.0  0.14871  0.37277  0.08062  1.0000
  C   C93       1.0  0.16047  0.38276  0.08850  1.0000
  C   C94       1.0  0.14417  0.36742  0.10856  1.0000
  C   C95       1.0  0.18283  0.36360  0.08347  1.0000
  C   C96       1.0  0.14479  0.36119  0.07983  1.0000
  C   C97       1.0  0.16382  0.39200  0.07630  1.0000
  H   H133      1.0  0.15606  0.35308  0.09945  1.0000
  H   H134      1.0  0.16380  0.36122  0.10489  1.0000
  H   H135      1.0  0.17158  0.36759  0.06997  1.0000
  H   H136      1.0  0.17024  0.35400  0.08108  1.0000
  H   H137      1.0  0.14040  0.37892  0.08482  1.0000
  H   H138      1.0  0.15130  0.37780  0.07097  1.0000
  H   H139      1.0  0.15173  0.38764  0.09363  1.0000
  H   H140      1.0  0.16726  0.38161  0.09428  1.0000
  H   H141      1.0  0.13593  0.36904  0.10459  1.0000
  H   H142      1.0  0.14287  0.36038  0.11723  1.0000
  H   H143      1.0  0.14453  0.37589  0.11127  1.0000
  H   H144      1.0  0.18290  0.35916  0.09324  1.0000
  H   H145      1.0  0.19059  0.35808  0.07784  1.0000
  H   H146      1.0  0.18485  0.37295  0.08144  1.0000
  H   H147      1.0  0.14060  0.35628  0.08901  1.0000
  H   H148      1.0  0.15256  0.35482  0.07522  1.0000
  H   H149      1.0  0.13760  0.36408  0.07419  1.0000
  H   H150      1.0  0.15544  0.39884  0.07407  1.0000
  H   H151      1.0  0.16819  0.38760  0.06833  1.0000
  H   H152      1.0  0.17056  0.39698  0.07714  1.0000
  C   C98       1.0  0.20611  0.39268  0.12985  1.0000
  H   H153      1.0  0.11456  0.42977  0.12784  1.0000
  H   H154      1.0  0.16594  0.45417  0.03363  1.0000
  H   H155      1.0  0.09223  0.40188  0.21535  1.0000
  C   C99       1.0  0.10949  0.43893  0.12366  1.0000
  H   H156      1.0  0.10222  0.42855  0.15553  1.0000
  H   H157      1.0  0.13411  0.40838  0.21063  1.0000
  C   C100      1.0  0.15169  0.36202  0.01294  1.0000
  C   C101      1.0  0.17525  0.38259  0.00609  1.0000
  H   H158      1.0  0.05067  0.35554  0.99888  1.0000
  H   H159      1.0  0.17412  0.36477  0.01776  1.0000
  N   N6        1.0  0.13028  0.38243  0.21932  1.0000
  H   H160      1.0  0.12236  0.36724  0.21919  1.0000
  H   H161      1.0  0.24247  0.42277  0.06758  1.0000
  H   H162      1.0  0.14775  0.35744  0.00791  1.0000
  H   H163      1.0  0.12027  0.39131  0.98581  1.0000
  H   H164      1.0  0.23645  0.44744  0.09471  1.0000
  H   H165      1.0  0.16736  0.35188  0.99546  1.0000
  H   H166      1.0  0.23221  0.40450  0.10727  1.0000
  H   H167      1.0  0.11965  0.48288  0.14213  1.0000
  C   C102      1.0  0.23597  0.40866  0.11277  1.0000
  H   H168      1.0  0.23016  0.41778  0.11378  1.0000
  C   C103      1.0  0.13496  0.40302  0.22003  1.0000
  S   S31       1.0  0.14437  0.48310  0.07131  1.0000
  H   H169      1.0  0.07853  0.37025  0.00889  1.0000
  H   H170      1.0  0.07847  0.34796  0.99987  1.0000
  H   H171      1.0  0.09142  0.35823  0.00409  1.0000
  H   H172      1.0  0.17959  0.38434  0.01289  1.0000
  N   N7        1.0  0.16251  0.36731  0.00470  1.0000
  H   H173      1.0  0.16052  0.37628  0.01970  1.0000
  C   C104      1.0  0.08685  0.36807  0.00173  1.0000
  H   H174      1.0  0.10919  0.48453  0.15601  1.0000
  H   H175      1.0  0.18275  0.38013  0.99835  1.0000
  H   H176      1.0  0.14990  0.38438  0.99916  1.0000
  C   C105      1.0  0.23712  0.43760  0.09945  1.0000
  H   H177      1.0  0.16446  0.38298  0.98924  1.0000
  H   H178      1.0  0.14471  0.39841  0.22013  1.0000
  C   C106      1.0  0.18311  0.36066  0.98978  1.0000
  H   H179      1.0  0.13223  0.40981  0.22609  1.0000
  H   H180      1.0  0.14523  0.36830  0.98993  1.0000
  H   H181      1.0  0.08060  0.38181  0.98692  1.0000
  C   C107      1.0  0.08026  0.35143  0.98971  1.0000
  C   C108      1.0  0.08406  0.37166  0.98866  1.0000
  H   H182      1.0  0.09050  0.34939  0.98660  1.0000
  H   H183      1.0  0.07944  0.33326  0.98808  1.0000
  N   N8        1.0  0.07518  0.36514  0.98651  1.0000
  S   S32       1.0  0.11559  0.34963  0.98623  1.0000
  C   C109      1.0  0.11670  0.48855  0.14920  1.0000
  C   C110      1.0  0.11867  0.37304  0.98567  1.0000
  H   H184      1.0  0.13945  0.48908  0.13626  1.0000
  C   C111      1.0  0.15269  0.37347  0.98552  1.0000
  H   H185      1.0  0.06556  0.34430  0.98615  1.0000
  H   H186      1.0  0.07791  0.31011  0.36491  1.0000
  Fe  Fe17      1.0  0.08904  0.14111  0.47675  1.0000
  S   S33       1.0  0.09691  0.12583  0.46630  1.0000
  Fe  Fe18      1.0  0.08859  0.16086  0.45326  1.0000
  S   S34       1.0  0.09681  0.14713  0.44111  1.0000
  S   S35       1.0  0.08341  0.18137  0.44587  1.0000
  Fe  Fe19      1.0  0.08346  0.13610  0.45410  1.0000
  S   S36       1.0  0.07396  0.12606  0.44604  1.0000
  Fe  Fe20      1.0  0.10937  0.13827  0.45430  1.0000
  S   S37       1.0  0.12979  0.13094  0.44926  1.0000
  S   S38       1.0  0.07436  0.15035  0.46560  1.0000
  S   S39       1.0  0.10241  0.15292  0.46544  1.0000
  Fe  Fe21      1.0  0.10308  0.23163  0.35309  1.0000
  S   S40       1.0  0.10952  0.23276  0.36942  1.0000
  S   S41       1.0  0.11693  0.22933  0.33564  1.0000
  Fe  Fe22      1.0  0.07648  0.23234  0.36691  1.0000
  S   S42       1.0  0.08082  0.23329  0.38453  1.0000
  S   S43       1.0  0.05677  0.23297  0.36672  1.0000
  Fe  Fe23      1.0  0.09208  0.24703  0.37245  1.0000
  S   S44       1.0  0.09096  0.26481  0.37800  1.0000
  Fe  Fe24      1.0  0.09771  0.21902  0.37963  1.0000
  S   S45       1.0  0.10562  0.20058  0.39009  1.0000
  S   S46       1.0  0.08654  0.24712  0.35512  1.0000
  S   S47       1.0  0.09240  0.21696  0.36304  1.0000
  Fe  Fe25      1.0  0.04690  0.15656  0.38656  1.0000
  S   S48       1.0  0.05195  0.13887  0.37982  1.0000
  S   S49       1.0  0.04460  0.16026  0.40548  1.0000
  Fe  Fe26      1.0  0.04481  0.17231  0.36130  1.0000
  S   S50       1.0  0.04966  0.15611  0.35221  1.0000
  S   S51       1.0  0.03987  0.19187  0.35123  1.0000
  Fe  Fe27      1.0  0.03702  0.14745  0.36875  1.0000
  S   S52       1.0  0.02325  0.13616  0.36878  1.0000
  Fe  Fe28      1.0  0.06416  0.14878  0.36375  1.0000
  S   S53       1.0  0.08359  0.13990  0.35548  1.0000
  S   S54       1.0  0.03093  0.16435  0.37697  1.0000
  S   S55       1.0  0.06030  0.16581  0.37134  1.0000
  Fe  Fe29      1.0  0.15682  0.15898  0.38724  1.0000
  S   S56       1.0  0.15517  0.13964  0.38891  1.0000
  S   S57       1.0  0.15959  0.16318  0.40419  1.0000
  Fe  Fe30      1.0  0.15559  0.16603  0.36026  1.0000
  S   S58       1.0  0.15404  0.14705  0.35975  1.0000
  S   S59       1.0  0.15714  0.17987  0.34231  1.0000
  Fe  Fe31      1.0  0.14057  0.14811  0.37769  1.0000
  S   S60       1.0  0.12226  0.14218  0.38496  1.0000
  Fe  Fe32      1.0  0.16880  0.14051  0.37098  1.0000
  S   S61       1.0  0.18529  0.12498  0.36800  1.0000
  S   S62       1.0  0.14111  0.16758  0.37752  1.0000
  S   S63       1.0  0.17146  0.15936  0.36999  1.0000
  C   C112      1.0  0.06297  0.20546  0.39555  1.0000
  H   H187      1.0  0.04341  0.31644  0.36332  1.0000
  Fe  Fe33      1.0  0.01992  0.38094  0.33821  1.0000
  S   S64       1.0  0.00496  0.39119  0.32809  1.0000
  S   S65       1.0  0.02547  0.36050  0.34020  1.0000
  Fe  Fe34      1.0  0.02241  0.40353  0.34533  1.0000
  C   C113      1.0  0.12598  0.48337  0.40198  1.0000
  S   S66       1.0  0.03395  0.40883  0.35553  1.0000
  H   H188      1.0  0.06267  0.32080  0.34729  1.0000
  Fe  Fe35      1.0  0.01622  0.40574  0.32083  1.0000
  S   S67       1.0  0.01635  0.41570  0.30123  1.0000
  S   S68       1.0  0.01135  0.38891  0.35499  1.0000
  S   S69       1.0  0.03223  0.39450  0.32929  1.0000
  H   H189      1.0  0.99746  0.15600  0.34990  1.0000
  H   H190      1.0  0.14678  0.46628  0.27899  1.0000
  Fe  Fe36      1.0  0.07758  0.40733  0.25423  1.0000
  S   S70       1.0  0.08729  0.40911  0.26800  1.0000
  S   S71       1.0  0.06106  0.39852  0.25978  1.0000
  Fe  Fe37      1.0  0.08912  0.42755  0.25587  1.0000
  S   S72       1.0  0.08479  0.44361  0.26512  1.0000
  Fe  Fe38      1.0  0.10453  0.40198  0.25517  1.0000
  S   S73       1.0  0.11955  0.38762  0.26285  1.0000
  C   C114      1.0  0.21274  0.16182  0.36688  1.0000
  C   C115      1.0  0.00151  0.12822  0.35023  1.0000
  Fe  Fe39      1.0  0.11168  0.34999  0.33955  1.0000
  S   S74       1.0  0.09242  0.35841  0.33696  1.0000
  S   S75       1.0  0.12375  0.36154  0.34184  1.0000
  Fe  Fe40      1.0  0.10970  0.32418  0.33875  1.0000
  S   S76       1.0  0.09025  0.33071  0.33616  1.0000
  S   S77       1.0  0.11810  0.30414  0.33843  1.0000
  Fe  Fe41      1.0  0.09684  0.34682  0.32285  1.0000
  S   S78       1.0  0.08919  0.35372  0.30567  1.0000
  Fe  Fe42      1.0  0.08782  0.34145  0.35052  1.0000
  S   S79       1.0  0.07110  0.34078  0.36570  1.0000
  S   S80       1.0  0.11666  0.33960  0.32423  1.0000
  S   S81       1.0  0.10680  0.33372  0.35430  1.0000
  Fe  Fe43      1.0  0.10066  0.45745  0.33923  1.0000
  S   S82       1.0  0.09456  0.45973  0.32152  1.0000
  S   S83       1.0  0.10280  0.47586  0.34202  1.0000
  Fe  Fe44      1.0  0.09924  0.43005  0.34621  1.0000
  S   S84       1.0  0.09329  0.43042  0.32910  1.0000
  S   S85       1.0  0.10153  0.41201  0.36003  1.0000
  Fe  Fe45      1.0  0.10756  0.44172  0.31968  1.0000
  S   S86       1.0  0.11963  0.43804  0.30160  1.0000
  Fe  Fe46      1.0  0.08074  0.44826  0.33237  1.0000
  S   S87       1.0  0.06190  0.45234  0.32784  1.0000
  S   S88       1.0  0.11478  0.44001  0.33656  1.0000
  S   S89       1.0  0.08554  0.44727  0.35039  1.0000
  C   C116      1.0  0.11710  0.37564  0.34669  1.0000
  C   C117      1.0  0.10597  0.38306  0.34383  1.0000
  C   C118      1.0  0.10132  0.39453  0.34745  1.0000
  C   C119      1.0  0.10768  0.39844  0.35414  1.0000
  C   C120      1.0  0.11869  0.39093  0.35707  1.0000
  C   C121      1.0  0.12347  0.37972  0.35318  1.0000
  H   H191      1.0  0.10111  0.38010  0.33862  1.0000
  H   H192      1.0  0.09273  0.40024  0.34527  1.0000
  H   H193      1.0  0.12357  0.39381  0.36234  1.0000
  H   H194      1.0  0.13210  0.37409  0.35537  1.0000
  C   C122      1.0  0.09465  0.44191  0.27510  1.0000
  C   C123      1.0  0.10719  0.43653  0.27218  1.0000
  C   C124      1.0  0.11499  0.43571  0.28011  1.0000
  C   C125      1.0  0.11011  0.43967  0.29127  1.0000
  C   C126      1.0  0.09754  0.44480  0.29426  1.0000
  C   C127      1.0  0.08991  0.44619  0.28607  1.0000
  H   H195      1.0  0.11095  0.43336  0.26363  1.0000
  H   H196      1.0  0.12475  0.43196  0.27760  1.0000
  H   H197      1.0  0.09365  0.44788  0.30282  1.0000
  H   H198      1.0  0.08029  0.45051  0.28834  1.0000
  C   C128      1.0  0.11184  0.37716  0.27420  1.0000
  C   C129      1.0  0.11731  0.36956  0.28385  1.0000
  C   C130      1.0  0.11041  0.36230  0.29362  1.0000
  C   C131      1.0  0.09822  0.36237  0.29350  1.0000
  C   C132      1.0  0.09303  0.36957  0.28355  1.0000
  C   C133      1.0  0.09977  0.37703  0.27400  1.0000
  H   H199      1.0  0.12672  0.36951  0.28393  1.0000
  H   H200      1.0  0.11455  0.35664  0.30119  1.0000
  H   H201      1.0  0.08372  0.36960  0.28322  1.0000
  H   H202      1.0  0.09554  0.38267  0.26649  1.0000
  C   C134      1.0  0.02905  0.41071  0.29004  1.0000
  C   C135      1.0  0.02745  0.41272  0.27798  1.0000
  C   C136      1.0  0.03739  0.40911  0.26871  1.0000
  C   C137      1.0  0.04913  0.40402  0.27131  1.0000
  C   C138      1.0  0.05087  0.40230  0.28330  1.0000
  C   C139      1.0  0.04075  0.40534  0.29276  1.0000
  H   H203      1.0  0.01846  0.41689  0.27581  1.0000
  H   H204      1.0  0.03600  0.41033  0.25948  1.0000
  H   H205      1.0  0.05995  0.39830  0.28533  1.0000
  H   H206      1.0  0.04205  0.40370  0.30207  1.0000
  C   C140      1.0  0.04124  0.42132  0.34794  1.0000
  C   C141      1.0  0.05152  0.42232  0.35175  1.0000
  C   C142      1.0  0.05795  0.43175  0.34554  1.0000
  C   C143      1.0  0.05374  0.44065  0.33585  1.0000
  C   C144      1.0  0.04303  0.44012  0.33246  1.0000
  C   C145      1.0  0.03696  0.43028  0.33829  1.0000
  H   H207      1.0  0.05456  0.41585  0.35953  1.0000
  H   H208      1.0  0.06604  0.43225  0.34841  1.0000
  H   H209      1.0  0.03954  0.44725  0.32524  1.0000
  H   H210      1.0  0.02883  0.42976  0.33551  1.0000
  C   C146      1.0  0.03774  0.35556  0.34783  1.0000
  C   C147      1.0  0.04855  0.35999  0.34250  1.0000
  C   C148      1.0  0.05888  0.35519  0.34785  1.0000
  C   C149      1.0  0.05812  0.34669  0.35906  1.0000
  C   C150      1.0  0.04704  0.34281  0.36482  1.0000
  C   C151      1.0  0.03691  0.34703  0.35904  1.0000
  H   H211      1.0  0.04904  0.36693  0.33410  1.0000
  H   H212      1.0  0.06735  0.35822  0.34331  1.0000
  H   H213      1.0  0.04636  0.33635  0.37358  1.0000
  H   H214      1.0  0.02842  0.34380  0.36328  1.0000
  C   C152      1.0  0.19737  0.12408  0.37522  1.0000
  C   C153      1.0  0.19648  0.13252  0.38239  1.0000
  C   C154      1.0  0.20572  0.13105  0.38894  1.0000
  C   C155      1.0  0.21602  0.12132  0.38812  1.0000
  C   C156      1.0  0.21724  0.11323  0.38046  1.0000
  C   C157      1.0  0.20788  0.11458  0.37409  1.0000
  H   H215      1.0  0.18843  0.13988  0.38334  1.0000
  H   H216      1.0  0.20477  0.13734  0.39483  1.0000
  H   H217      1.0  0.02830  0.20318  0.39660  1.0000
  H   H218      1.0  0.20866  0.10808  0.36845  1.0000
  C   C158      1.0  0.01668  0.13549  0.35664  1.0000
  C   C159      1.0  0.02056  0.14128  0.34441  1.0000
  C   C160      1.0  0.01504  0.14039  0.33512  1.0000
  H   H219      1.0  0.13864  0.48177  0.31464  1.0000
  H   H220      1.0  0.15255  0.27264  0.37565  1.0000
  H   H221      1.0  0.12021  0.48411  0.42163  1.0000
  H   H222      1.0  0.02778  0.14645  0.34211  1.0000
  H   H223      1.0  0.01812  0.14485  0.32568  1.0000
  H   H224      1.0  0.08471  0.29204  0.34994  1.0000
  C   C161      1.0  0.09456  0.14084  0.36326  1.0000
  C   C162      1.0  0.10727  0.13769  0.35836  1.0000
  C   C163      1.0  0.11600  0.13853  0.36462  1.0000
  C   C164      1.0  0.11199  0.14243  0.37583  1.0000
  C   C165      1.0  0.09931  0.14567  0.38057  1.0000
  C   C166      1.0  0.09065  0.14486  0.37437  1.0000
  H   H225      1.0  0.11036  0.13457  0.34975  1.0000
  H   H226      1.0  0.12577  0.13588  0.36094  1.0000
  H   H227      1.0  0.09615  0.14895  0.38906  1.0000
  H   H228      1.0  0.08093  0.14716  0.37833  1.0000
  C   C167      1.0  0.12849  0.21596  0.33793  1.0000
  C   C168      1.0  0.12895  0.20862  0.34971  1.0000
  C   C169      1.0  0.13788  0.19761  0.35124  1.0000
  C   C170      1.0  0.14632  0.19392  0.34099  1.0000
  C   C171      1.0  0.14596  0.20138  0.32927  1.0000
  C   C172      1.0  0.13708  0.21235  0.32774  1.0000
  H   H229      1.0  0.12234  0.21131  0.35764  1.0000
  H   H230      1.0  0.13815  0.19198  0.36034  1.0000
  H   H231      1.0  0.15248  0.19859  0.32132  1.0000
  H   H232      1.0  0.13677  0.21798  0.31863  1.0000
  C   C173      1.0  0.05276  0.22125  0.36219  1.0000
  C   C174      1.0  0.04086  0.22331  0.36006  1.0000
  C   C175      1.0  0.03708  0.21425  0.35666  1.0000
  C   C176      1.0  0.04502  0.20287  0.35571  1.0000
  C   C177      1.0  0.05694  0.20068  0.35796  1.0000
  C   C178      1.0  0.06087  0.20993  0.36105  1.0000
  H   H233      1.0  0.03455  0.23202  0.36091  1.0000
  H   H234      1.0  0.02791  0.21604  0.35485  1.0000
  H   H235      1.0  0.06318  0.19197  0.35703  1.0000
  H   H236      1.0  0.07009  0.20827  0.36265  1.0000
  C   C179      1.0  0.09823  0.27576  0.36675  1.0000
  C   C180      1.0  0.09762  0.28717  0.36940  1.0000
  C   C181      1.0  0.10331  0.29611  0.36056  1.0000
  C   C182      1.0  0.10983  0.29359  0.34909  1.0000
  C   C183      1.0  0.11041  0.28218  0.34641  1.0000
  C   C184      1.0  0.10457  0.27329  0.35520  1.0000
  H   H237      1.0  0.09272  0.28911  0.37832  1.0000
  H   H238      1.0  0.10288  0.30486  0.36271  1.0000
  H   H239      1.0  0.11545  0.28019  0.33754  1.0000
  H   H240      1.0  0.10509  0.26451  0.35308  1.0000
  C   C185      1.0  0.08845  0.18655  0.42998  1.0000
  C   C186      1.0  0.09641  0.17849  0.42276  1.0000
  C   C187      1.0  0.10106  0.18283  0.41031  1.0000
  C   C188      1.0  0.09789  0.19533  0.40501  1.0000
  C   C189      1.0  0.08966  0.20344  0.41207  1.0000
  C   C190      1.0  0.08495  0.19904  0.42458  1.0000
  H   H241      1.0  0.09944  0.16899  0.42679  1.0000
  H   H242      1.0  0.10753  0.17656  0.40488  1.0000
  H   H243      1.0  0.08734  0.21315  0.40802  1.0000
  H   H244      1.0  0.07883  0.20534  0.43015  1.0000
  C   C191      1.0  0.13720  0.14107  0.43715  1.0000
  C   C192      1.0  0.14811  0.14370  0.43810  1.0000
  C   C193      1.0  0.15465  0.15104  0.42814  1.0000
  C   C194      1.0  0.15067  0.15516  0.41698  1.0000
  C   C195      1.0  0.13968  0.15267  0.41606  1.0000
  C   C196      1.0  0.13274  0.14598  0.42628  1.0000
  H   H245      1.0  0.15147  0.14011  0.44658  1.0000
  H   H246      1.0  0.16297  0.15324  0.42895  1.0000
  H   H247      1.0  0.13642  0.15606  0.40751  1.0000
  H   H248      1.0  0.12413  0.14435  0.42560  1.0000
  C   C197      1.0  0.06600  0.13556  0.43461  1.0000
  C   C198      1.0  0.06491  0.13074  0.42499  1.0000
  C   C199      1.0  0.05875  0.13831  0.41569  1.0000
  C   C200      1.0  0.05323  0.15059  0.41630  1.0000
  C   C201      1.0  0.05419  0.15531  0.42602  1.0000
  C   C202      1.0  0.06082  0.14793  0.43496  1.0000
  H   H249      1.0  0.06885  0.12115  0.42472  1.0000
  H   H250      1.0  0.05793  0.13457  0.40831  1.0000
  H   H251      1.0  0.04967  0.16468  0.42672  1.0000
  H   H252      1.0  0.06155  0.15169  0.44237  1.0000
  H   H253      1.0  0.06773  0.43500  0.30602  1.0000
  C   C203      1.0  0.12232  0.40534  0.32126  1.0000
  H   H254      1.0  0.04062  0.46889  0.29374  1.0000
  H   H255      1.0  0.24350  0.14824  0.38063  1.0000
  C   C204      1.0  0.11426  0.48150  0.34559  1.0000
  C   C205      1.0  0.12523  0.47387  0.34850  1.0000
  H   H256      1.0  0.03622  0.38252  0.29755  1.0000
  H   H257      1.0  0.14858  0.26164  0.33663  1.0000
  H   H258      1.0  0.12682  0.46406  0.34899  1.0000
  H   H259      1.0  0.14515  0.45665  0.29396  1.0000
  H   H260      1.0  0.03904  0.31042  0.35233  1.0000
  H   H261      1.0  0.12574  0.45767  0.30881  1.0000
  H   H262      1.0  0.15157  0.27947  0.34146  1.0000
  H   H263      1.0  0.06155  0.43380  0.26716  1.0000
  H   H264      1.0  0.14371  0.29983  0.34158  1.0000
  H   H265      1.0  0.11770  0.41149  0.32787  1.0000
  H   H266      1.0  0.16787  0.28189  0.36207  1.0000
  H   H267      1.0  0.22533  0.13014  0.34593  1.0000
  H   H268      1.0  0.22518  0.10571  0.37976  1.0000
  H   H269      1.0  0.04307  0.42906  0.28157  1.0000
  C   C206      1.0  0.14446  0.37344  0.23535  1.0000
  H   H270      1.0  0.06190  0.31771  0.36819  1.0000
  C   C207      1.0  0.04003  0.34363  0.31423  1.0000
  C   C208      1.0  0.14683  0.26174  0.34658  1.0000
  C   C209      1.0  0.04453  0.31653  0.35343  1.0000
  H   H271      1.0  0.00533  0.16538  0.36232  1.0000
  N   N9        1.0  0.14263  0.27699  0.36095  1.0000
  H   H272      1.0  0.13923  0.44840  0.32227  1.0000
  C   C210      1.0  0.12712  0.46438  0.31344  1.0000
  H   H273      1.0  0.06853  0.43175  0.28426  1.0000
  H   H274      1.0  0.17388  0.26596  0.36112  1.0000
  H   H275      1.0  0.06643  0.36227  0.29394  1.0000
  H   H276      1.0  0.14741  0.45978  0.31216  1.0000
  H   H277      1.0  0.14257  0.47291  0.35319  1.0000
  H   H278      1.0  0.21182  0.14269  0.36070  1.0000
  C   C211      1.0  0.02272  0.37115  0.30548  1.0000
  H   H279      1.0  0.05283  0.37324  0.27349  1.0000
  H   H280      1.0  0.07666  0.27627  0.35255  1.0000
  H   H281      1.0  0.12932  0.29429  0.36091  1.0000
  C   C212      1.0  0.05148  0.45046  0.29256  1.0000
  H   H282      1.0  0.13228  0.46228  0.28647  1.0000
  N   N10       1.0  0.22406  0.15469  0.35966  1.0000
  H   H283      1.0  0.07087  0.28985  0.36871  1.0000
  H   H284      1.0  0.06292  0.18416  0.43136  1.0000
  H   H285      1.0  0.11914  0.46495  0.32138  1.0000
  H   H286      1.0  0.02251  0.44276  0.29817  1.0000
  H   H287      1.0  0.14988  0.36409  0.23843  1.0000
  C   C213      1.0  0.14617  0.29924  0.35047  1.0000
  H   H288      1.0  0.06838  0.30591  0.37962  1.0000
  C   C214      1.0  0.22923  0.13458  0.35113  1.0000
  H   H289      1.0  0.15515  0.25611  0.35003  1.0000
  H   H290      1.0  0.06280  0.27385  0.36361  1.0000
  H   H291      1.0  0.14834  0.48849  0.37931  1.0000
  H   H292      1.0  0.05533  0.29783  0.37082  1.0000
  C   C215      1.0  0.06099  0.37383  0.30724  1.0000
  C   C216      1.0  0.05998  0.29110  0.34970  1.0000
  H   H293      1.0  0.06831  0.14099  0.33740  1.0000
  C   C217      1.0  0.11047  0.47552  0.29423  1.0000
  N   N11       1.0  0.05894  0.19331  0.40063  1.0000
  H   H294      1.0  0.14049  0.29214  0.36986  1.0000
  H   H295      1.0  0.05634  0.19936  0.42432  1.0000
  C   C218      1.0  0.20231  0.16880  0.35986  1.0000
  C   C219      1.0  0.07802  0.18207  0.38703  1.0000
  C   C220      1.0  0.04623  0.35925  0.28950  1.0000
  H   H296      1.0  0.04596  0.46663  0.27844  1.0000
  H   H297      1.0  0.13443  0.26099  0.37017  1.0000
  H   H298      1.0  0.06323  0.36620  0.31503  1.0000
  H   H299      1.0  0.05640  0.22476  0.39668  1.0000
  H   H300      1.0  0.15510  0.26044  0.36831  1.0000
  C   C221      1.0  0.13200  0.27121  0.36889  1.0000
  H   H301      1.0  0.07315  0.20410  0.39436  1.0000
  H   H302      1.0  0.15628  0.29671  0.34949  1.0000
  C   C222      1.0  0.04209  0.46206  0.28794  1.0000
  S   S90       1.0  0.09470  0.39860  0.24229  1.0000
  H   H303      1.0  0.11751  0.47954  0.40430  1.0000
  H   H304      1.0  0.23139  0.17148  0.35327  1.0000
  H   H305      1.0  0.15020  0.48528  0.39509  1.0000
  H   H306      1.0  0.05347  0.38119  0.31060  1.0000
  H   H307      1.0  0.07397  0.18726  0.41042  1.0000
  C   C223      1.0  0.04482  0.43824  0.28113  1.0000
  C   C224      1.0  0.00726  0.12883  0.35944  1.0000
  H   H308      1.0  0.06933  0.37790  0.30335  1.0000
  H   H309      1.0  0.03012  0.34799  0.31568  1.0000
  H   H310      1.0  0.06059  0.19051  0.38225  1.0000
  S   S91       1.0  0.22677  0.11911  0.39736  1.0000
  C   C225      1.0  0.23033  0.16381  0.34964  1.0000
  C   C226      1.0  0.15386  0.27066  0.36638  1.0000
  H   H311      1.0  0.05758  0.37711  0.28918  1.0000
  H   H312      1.0  0.12402  0.27419  0.36432  1.0000
  C   C227      1.0  0.06431  0.18625  0.41177  1.0000
  H   H313      1.0  0.05701  0.44998  0.26780  1.0000
  H   H314      1.0  0.04797  0.21532  0.40859  1.0000
  H   H315      1.0  0.11543  0.47738  0.28449  1.0000
  C   C228      1.0  0.14416  0.27520  0.34805  1.0000
  N   N12       1.0  0.12419  0.19011  0.43295  1.0000
  C   C229      1.0  0.11287  0.19626  0.44105  1.0000
  C   C230      1.0  0.12447  0.17645  0.43658  1.0000
  C   C231      1.0  0.12284  0.19501  0.41972  1.0000
  C   C232      1.0  0.13532  0.19329  0.43503  1.0000
  C   C233      1.0  0.10938  0.21048  0.43754  1.0000
  C   C234      1.0  0.12621  0.17021  0.44979  1.0000
  C   C235      1.0  0.13027  0.18706  0.41023  1.0000
  C   C236      1.0  0.14812  0.18685  0.42877  1.0000
  H   H316      1.0  0.10461  0.19283  0.44115  1.0000
  H   H317      1.0  0.11388  0.19395  0.45080  1.0000
  H   H318      1.0  0.13188  0.17125  0.43046  1.0000
  H   H319      1.0  0.11582  0.17453  0.43549  1.0000
  H   H320      1.0  0.11307  0.19639  0.41909  1.0000
  H   H321      1.0  0.12520  0.20428  0.41617  1.0000
  H   H322      1.0  0.13508  0.20333  0.43169  1.0000
  H   H323      1.0  0.13520  0.19181  0.44502  1.0000
  H   H324      1.0  0.10115  0.21375  0.44439  1.0000
  H   H325      1.0  0.11681  0.21489  0.43775  1.0000
  H   H326      1.0  0.10671  0.21376  0.42844  1.0000
  H   H327      1.0  0.13500  0.17113  0.45141  1.0000
  H   H328      1.0  0.11833  0.17365  0.45684  1.0000
  H   H329      1.0  0.12662  0.16018  0.45119  1.0000
  H   H330      1.0  0.14026  0.18471  0.40999  1.0000
  H   H331      1.0  0.12904  0.19231  0.40088  1.0000
  H   H332      1.0  0.12677  0.17854  0.41177  1.0000
  H   H333      1.0  0.15121  0.19231  0.41945  1.0000
  H   H334      1.0  0.14857  0.17735  0.42803  1.0000
  H   H335      1.0  0.15494  0.18589  0.43443  1.0000
  S   S92       1.0  0.07786  0.42650  0.24298  1.0000
  C   C237      1.0  0.13928  0.29058  0.36113  1.0000
  H   H336      1.0  0.21642  0.15132  0.34570  1.0000
  H   H337      1.0  0.06291  0.14685  0.32332  1.0000
  H   H338      1.0  0.04246  0.33803  0.30709  1.0000
  H   H339      1.0  0.19452  0.17346  0.36622  1.0000
  H   H340      1.0  0.12960  0.48715  0.37774  1.0000
  H   H341      1.0  0.14316  0.30873  0.35228  1.0000
  H   H342      1.0  0.04954  0.13357  0.33442  1.0000
  S   S93       1.0  0.00717  0.41585  0.33619  1.0000
  H   H343      1.0  0.22712  0.14098  0.37608  1.0000
  C   C238      1.0  0.06728  0.42640  0.30364  1.0000
  H   H344      1.0  0.23079  0.12771  0.35966  1.0000
  H   H345      1.0  0.22985  0.15996  0.38100  1.0000
  H   H346      1.0  0.08007  0.29018  0.33057  1.0000
  C   C239      1.0  0.04032  0.43355  0.30377  1.0000
  C   C240      1.0  0.21983  0.14622  0.35424  1.0000
  H   H347      1.0  0.06523  0.27181  0.34801  1.0000
  H   H348      1.0  0.13832  0.46227  0.32701  1.0000
  H   H349      1.0  0.12441  0.36213  0.24042  1.0000
  H   H350      1.0  0.13877  0.25735  0.35107  1.0000
  C   C241      1.0  0.23217  0.14730  0.36862  1.0000
  H   H351      1.0  0.05915  0.29272  0.33994  1.0000
  H   H352      1.0  0.04836  0.18679  0.42741  1.0000
  H   H353      1.0  0.00428  0.12421  0.36885  1.0000
  C   C242      1.0  0.16631  0.27402  0.35918  1.0000
  H   H354      1.0  0.06488  0.17618  0.41304  1.0000
  H   H355      1.0  0.04044  0.32603  0.34905  1.0000
  H   H356      1.0  0.03289  0.46055  0.28826  1.0000
  H   H357      1.0  0.13315  0.47641  0.39742  1.0000
  H   H358      1.0  0.10857  0.36581  0.23950  1.0000
  H   H359      1.0  0.04375  0.43266  0.31215  1.0000
  H   H360      1.0  0.22439  0.16859  0.34284  1.0000
  H   H361      1.0  0.02152  0.43647  0.31414  1.0000
  C   C243      1.0  0.03569  0.37356  0.30411  1.0000
  H   H362      1.0  0.05822  0.31450  0.33706  1.0000
  H   H363      1.0  0.04063  0.19948  0.41138  1.0000
  H   H364      1.0  0.05029  0.29161  0.35491  1.0000
  H   H365      1.0  0.04040  0.19641  0.38568  1.0000
  H   H366      1.0  0.10535  0.40135  0.32085  1.0000
  C   C244      1.0  0.13415  0.47892  0.35089  1.0000
  H   H367      1.0  0.10050  0.47922  0.29422  1.0000
  H   H368      1.0  0.08208  0.30808  0.34544  1.0000
  H   H369      1.0  0.03640  0.37691  0.27968  1.0000
  C   C245      1.0  0.00539  0.13398  0.33799  1.0000
  C   C246      1.0  0.05736  0.21563  0.40311  1.0000
  H   H370      1.0  0.04064  0.21099  0.38891  1.0000
  N   N13       1.0  0.11248  0.17897  0.34809  1.0000
  C   C247      1.0  0.12508  0.17072  0.34850  1.0000
  C   C248      1.0  0.10854  0.18470  0.35928  1.0000
  C   C249      1.0  0.11361  0.18887  0.33646  1.0000
  C   C250      1.0  0.10384  0.17107  0.34812  1.0000
  C   C251      1.0  0.13183  0.16555  0.33683  1.0000
  C   C252      1.0  0.10802  0.17565  0.37184  1.0000
  C   C253      1.0  0.10441  0.20135  0.33661  1.0000
  C   C254      1.0  0.09019  0.17737  0.34858  1.0000
  H   H371      1.0  0.13133  0.17567  0.35034  1.0000
  H   H372      1.0  0.12456  0.16252  0.35619  1.0000
  H   H373      1.0  0.09931  0.19086  0.35966  1.0000
  H   H374      1.0  0.11490  0.19070  0.35885  1.0000
  H   H375      1.0  0.12285  0.19135  0.33408  1.0000
  H   H376      1.0  0.11301  0.18544  0.32846  1.0000
  H   H377      1.0  0.10685  0.16693  0.33983  1.0000
  H   H378      1.0  0.10409  0.16319  0.35607  1.0000
  H   H379      1.0  0.14100  0.15992  0.33829  1.0000
  H   H380      1.0  0.12684  0.15938  0.33499  1.0000
  H   H381      1.0  0.13367  0.17290  0.32858  1.0000
  H   H382      1.0  0.10143  0.16967  0.37334  1.0000
  H   H383      1.0  0.11716  0.16995  0.37306  1.0000
  H   H384      1.0  0.10485  0.18096  0.37927  1.0000
  H   H385      1.0  0.10527  0.20706  0.32711  1.0000
  H   H386      1.0  0.10675  0.20657  0.34222  1.0000
  H   H387      1.0  0.09466  0.20061  0.34008  1.0000
  H   H388      1.0  0.08606  0.18167  0.35668  1.0000
  H   H389      1.0  0.08488  0.17025  0.34941  1.0000
  H   H390      1.0  0.08888  0.18417  0.33997  1.0000
  C   C255      1.0  0.12707  0.27401  0.38193  1.0000
  H   H391      1.0  0.13571  0.28011  0.34440  1.0000
  H   H392      1.0  0.12294  0.28393  0.38166  1.0000
  H   H393      1.0  0.11952  0.26897  0.38674  1.0000
  H   H394      1.0  0.13422  0.27085  0.38758  1.0000
  H   H395      1.0  0.02708  0.45035  0.30794  1.0000
  H   H396      1.0  0.03579  0.44457  0.28058  1.0000
  N   N14       1.0  0.06198  0.11780  0.34298  1.0000
  C   C256      1.0  0.05933  0.12855  0.33248  1.0000
  C   C257      1.0  0.05541  0.10817  0.34256  1.0000
  C   C258      1.0  0.07574  0.11281  0.34072  1.0000
  C   C259      1.0  0.05752  0.12244  0.35484  1.0000
  H   H397      1.0  0.19852  0.16252  0.35666  1.0000
  C   C260      1.0  0.04122  0.11209  0.34464  1.0000
  C   C261      1.0  0.08060  0.10130  0.34992  1.0000
  C   C262      1.0  0.05572  0.11274  0.36704  1.0000
  C   C263      1.0  0.06730  0.13837  0.32919  1.0000
  H   H398      1.0  0.06048  0.12529  0.32384  1.0000
  H   H399      1.0  0.05745  0.09951  0.34932  1.0000
  H   H400      1.0  0.05875  0.10532  0.33350  1.0000
  H   H401      1.0  0.07907  0.11064  0.33136  1.0000
  H   H402      1.0  0.08075  0.11985  0.34090  1.0000
  H   H403      1.0  0.06388  0.12791  0.35560  1.0000
  H   H404      1.0  0.04851  0.12908  0.35478  1.0000
  C   C264      1.0  0.12885  0.48302  0.41450  1.0000
  C   C265      1.0  0.04841  0.35299  0.31126  1.0000
  C   C266      1.0  0.03842  0.20176  0.39298  1.0000
  H   H405      1.0  0.03731  0.10408  0.34500  1.0000
  H   H406      1.0  0.03713  0.11510  0.35350  1.0000
  H   H407      1.0  0.03817  0.11943  0.33697  1.0000
  H   H408      1.0  0.09072  0.09845  0.34665  1.0000
  H   H409      1.0  0.07663  0.09328  0.35062  1.0000
  H   H410      1.0  0.07938  0.10336  0.35911  1.0000
  H   H411      1.0  0.06133  0.11366  0.37317  1.0000
  H   H412      1.0  0.05825  0.10303  0.36619  1.0000
  H   H413      1.0  0.04594  0.11455  0.37202  1.0000
  H   H414      1.0  0.13496  0.47405  0.41749  1.0000
  H   H415      1.0  0.05201  0.45080  0.30201  1.0000
  H   H416      1.0  0.01870  0.36772  0.31531  1.0000
  C   C267      1.0  0.06388  0.18566  0.39086  1.0000
  H   H417      1.0  0.08023  0.17619  0.38016  1.0000
  C   C268      1.0  0.06655  0.27757  0.35378  1.0000
  H   H418      1.0  0.06041  0.17693  0.39388  1.0000
  C   C269      1.0  0.23725  0.15477  0.37479  1.0000
  C   C270      1.0  0.08155  0.29900  0.33159  1.0000
  H   H419      1.0  0.03944  0.42412  0.30388  1.0000
  H   H420      1.0  0.08241  0.17655  0.39483  1.0000
  C   C271      1.0  0.05812  0.36916  0.29707  1.0000
  C   C272      1.0  0.06848  0.30877  0.36960  1.0000
  N   N15       1.0  0.04674  0.36372  0.30054  1.0000
  H   H421      1.0  0.21516  0.16887  0.37035  1.0000
  H   H422      1.0  0.06242  0.42059  0.31181  1.0000
  H   H423      1.0  0.07622  0.30689  0.32595  1.0000
  N   N16       1.0  0.17641  0.11236  0.42073  1.0000
  C   C273      1.0  0.18632  0.10582  0.42799  1.0000
  C   C274      1.0  0.16444  0.11570  0.42965  1.0000
  C   C275      1.0  0.17951  0.12401  0.41220  1.0000
  C   C276      1.0  0.17542  0.10396  0.41307  1.0000
  C   C277      1.0  0.19948  0.10230  0.42034  1.0000
  C   C278      1.0  0.15798  0.10497  0.43683  1.0000
  C   C279      1.0  0.18356  0.13262  0.41797  1.0000
  C   C280      1.0  0.16562  0.10918  0.40500  1.0000
  H   H424      1.0  0.18684  0.11143  0.43434  1.0000
  H   H425      1.0  0.18406  0.09710  0.43408  1.0000
  H   H426      1.0  0.15760  0.12293  0.42499  1.0000
  H   H427      1.0  0.16589  0.11997  0.43665  1.0000
  H   H428      1.0  0.18690  0.12178  0.40428  1.0000
  H   H429      1.0  0.17153  0.12960  0.40802  1.0000
  H   H430      1.0  0.18430  0.10175  0.40647  1.0000
  H   H431      1.0  0.17404  0.09478  0.41877  1.0000
  H   H432      1.0  0.20031  0.09471  0.41569  1.0000
  H   H433      1.0  0.20261  0.11019  0.41343  1.0000
  H   H434      1.0  0.20610  0.09889  0.42662  1.0000
  H   H435      1.0  0.14981  0.10846  0.44362  1.0000
  H   H436      1.0  0.15451  0.10129  0.43068  1.0000
  H   H437      1.0  0.16405  0.09742  0.44205  1.0000
  H   H438      1.0  0.19317  0.12905  0.41936  1.0000
  H   H439      1.0  0.17739  0.13411  0.42683  1.0000
  H   H440      1.0  0.18334  0.14177  0.41157  1.0000
  H   H441      1.0  0.16992  0.11334  0.39548  1.0000
  H   H442      1.0  0.15793  0.11624  0.40859  1.0000
  H   H443      1.0  0.16143  0.10165  0.40456  1.0000
  N   N17       1.0  0.10875  0.11681  0.41810  1.0000
  C   C281      1.0  0.09955  0.12572  0.41095  1.0000
  C   C282      1.0  0.11458  0.10640  0.41138  1.0000
  C   C283      1.0  0.11836  0.12354  0.41829  1.0000
  C   C284      1.0  0.10186  0.11258  0.43100  1.0000
  C   C285      1.0  0.09431  0.13839  0.41454  1.0000
  C   C286      1.0  0.10565  0.09890  0.41039  1.0000
  C   C287      1.0  0.13099  0.11569  0.42058  1.0000
  C   C288      1.0  0.10890  0.10214  0.43968  1.0000
  H   H444      1.0  0.10371  0.12754  0.40094  1.0000
  H   H445      1.0  0.09140  0.12175  0.41187  1.0000
  H   H446      1.0  0.12194  0.09968  0.41561  1.0000
  H   H447      1.0  0.11935  0.11006  0.40183  1.0000
  H   H448      1.0  0.12049  0.13005  0.40937  1.0000
  H   H449      1.0  0.11475  0.12934  0.42534  1.0000
  H   H450      1.0  0.09864  0.12037  0.43586  1.0000
  H   H451      1.0  0.09313  0.11001  0.43104  1.0000
  H   H452      1.0  0.10137  0.14416  0.41185  1.0000
  H   H453      1.0  0.08669  0.14347  0.40971  1.0000
  H   H454      1.0  0.09025  0.13748  0.42444  1.0000
  H   H455      1.0  0.11105  0.09106  0.40599  1.0000
  H   H456      1.0  0.10051  0.09495  0.41955  1.0000
  H   H457      1.0  0.09908  0.10447  0.40445  1.0000
  H   H458      1.0  0.13625  0.11159  0.41253  1.0000
  H   H459      1.0  0.13028  0.10844  0.42904  1.0000
  H   H460      1.0  0.13650  0.12180  0.42171  1.0000
  H   H461      1.0  0.11354  0.10597  0.44476  1.0000
  H   H462      1.0  0.11562  0.09508  0.43509  1.0000
  H   H463      1.0  0.10217  0.09708  0.44655  1.0000
  N   N18       1.0  0.11775  0.39798  0.30370  1.0000
  C   C289      1.0  0.10741  0.40023  0.29697  1.0000
  C   C290      1.0  0.12825  0.40319  0.29478  1.0000
  C   C291      1.0  0.11295  0.40507  0.31392  1.0000
  C   C292      1.0  0.12133  0.38429  0.30880  1.0000
  C   C293      1.0  0.09542  0.39620  0.30480  1.0000
  C   C294      1.0  0.13248  0.39897  0.28239  1.0000
  C   C295      1.0  0.13484  0.37900  0.31021  1.0000
  H   H464      1.0  0.10495  0.41018  0.29257  1.0000
  H   H465      1.0  0.11031  0.39517  0.28931  1.0000
  H   H466      1.0  0.13651  0.40110  0.29886  1.0000
  H   H467      1.0  0.12572  0.41342  0.29263  1.0000
  H   H468      1.0  0.10889  0.41486  0.31017  1.0000
  H   H469      1.0  0.11537  0.38161  0.31796  1.0000
  H   H470      1.0  0.11967  0.37884  0.30293  1.0000
  H   H471      1.0  0.09715  0.38644  0.30978  1.0000
  H   H472      1.0  0.09041  0.40226  0.31139  1.0000
  H   H473      1.0  0.08916  0.39698  0.29858  1.0000
  H   H474      1.0  0.12611  0.40416  0.27610  1.0000
  H   H475      1.0  0.14174  0.40098  0.27777  1.0000
  H   H476      1.0  0.13307  0.38896  0.28356  1.0000
  H   H477      1.0  0.13031  0.40921  0.31540  1.0000
  H   H478      1.0  0.14127  0.37910  0.30114  1.0000
  H   H479      1.0  0.13792  0.38376  0.31569  1.0000
  C   C296      1.0  0.05360  0.44156  0.26867  1.0000
  H   H480      1.0  0.04259  0.18550  0.40696  1.0000
  H   H481      1.0  0.04864  0.44322  0.26110  1.0000
  C   C297      1.0  0.06140  0.42881  0.29234  1.0000
  C   C298      1.0  0.13877  0.45846  0.31893  1.0000
  H   H482      1.0  0.07694  0.42123  0.30147  1.0000
  H   H483      1.0  0.11796  0.12643  0.47954  1.0000
  H   H484      1.0  0.07662  0.13512  0.32380  1.0000
  H   H485      1.0  0.12534  0.39617  0.32692  1.0000
  H   H486      1.0  0.06144  0.20943  0.38602  1.0000
  H   H487      1.0  0.06346  0.21543  0.40926  1.0000
  H   H488      1.0  0.20856  0.15557  0.37520  1.0000
  H   H489      1.0  0.04147  0.33712  0.32301  1.0000
  H   H490      1.0  0.16737  0.27609  0.34908  1.0000
  H   H491      1.0  0.11150  0.46547  0.29784  1.0000
  H   H492      1.0  0.09149  0.29911  0.32772  1.0000
  C   C299      1.0  0.05744  0.18953  0.42430  1.0000
  H   H493      1.0  0.13570  0.36919  0.31508  1.0000
  N   N19       1.0  0.04932  0.43810  0.29239  1.0000
  C   C300      1.0  0.02717  0.44142  0.30587  1.0000
  C   C301      1.0  0.04509  0.19473  0.40364  1.0000
  H   H494      1.0  0.10963  0.48953  0.37308  1.0000
  H   H495      1.0  0.06038  0.41975  0.29137  1.0000
  H   H496      1.0  0.08218  0.19026  0.38255  1.0000
  H   H497      1.0  0.06059  0.45176  0.28661  1.0000
  N   N20       1.0  0.06959  0.37889  0.37025  1.0000
  C   C302      1.0  0.08187  0.37550  0.37413  1.0000
  C   C303      1.0  0.06409  0.39216  0.37103  1.0000
  C   C304      1.0  0.07189  0.37744  0.35709  1.0000
  C   C305      1.0  0.06156  0.37035  0.37881  1.0000
  C   C306      1.0  0.09015  0.36295  0.37191  1.0000
  C   C307      1.0  0.06206  0.39540  0.38370  1.0000
  C   C308      1.0  0.06279  0.38578  0.34899  1.0000
  C   C309      1.0  0.04838  0.37247  0.37675  1.0000
  H   H498      1.0  0.08743  0.38266  0.36930  1.0000
  H   H499      1.0  0.08057  0.37517  0.38413  1.0000
  H   H500      1.0  0.05498  0.39521  0.36836  1.0000
  H   H501      1.0  0.07011  0.39821  0.36434  1.0000
  H   H502      1.0  0.08100  0.37953  0.35190  1.0000
  H   H503      1.0  0.07240  0.36771  0.35686  1.0000
  H   H504      1.0  0.06581  0.36062  0.37818  1.0000
  H   H505      1.0  0.06081  0.37069  0.38855  1.0000
  H   H506      1.0  0.09293  0.36253  0.36203  1.0000
  H   H507      1.0  0.09883  0.36165  0.37510  1.0000
  H   H508      1.0  0.08579  0.35507  0.37714  1.0000
  H   H509      1.0  0.07089  0.39430  0.38651  1.0000
  H   H510      1.0  0.05751  0.40529  0.38302  1.0000
  H   H511      1.0  0.05584  0.39008  0.39094  1.0000
  H   H512      1.0  0.05300  0.38567  0.35326  1.0000
  H   H513      1.0  0.06478  0.38260  0.34021  1.0000
  H   H514      1.0  0.06397  0.39548  0.34655  1.0000
  H   H515      1.0  0.04299  0.38189  0.37738  1.0000
  H   H516      1.0  0.04337  0.36596  0.38402  1.0000
  H   H517      1.0  0.04842  0.37038  0.36787  1.0000
  N   N21       1.0  0.06537  0.30081  0.35183  1.0000
  C   C310      1.0  0.05820  0.31339  0.34696  1.0000
  C   C311      1.0  0.07866  0.29998  0.34520  1.0000
  C   C312      1.0  0.06475  0.29877  0.36545  1.0000
  C   C313      1.0  0.14034  0.46475  0.28805  1.0000
  S   S94       1.0  0.10732  0.42059  0.24426  1.0000
  C   C314      1.0  0.13709  0.47650  0.29344  1.0000
  H   H518      1.0  0.03573  0.37551  0.31308  1.0000
  H   H519      1.0  0.23815  0.13650  0.34542  1.0000
  H   H520      1.0  0.05808  0.34753  0.30984  1.0000
  H   H521      1.0  0.12259  0.48506  0.32103  1.0000
  H   H522      1.0  0.10913  0.48147  0.38859  1.0000
  H   H523      1.0  0.04701  0.35634  0.31983  1.0000
  H   H524      1.0  0.04279  0.36519  0.27087  1.0000
  H   H525      1.0  0.24285  0.16102  0.36795  1.0000
  H   H526      1.0  0.02230  0.36476  0.30001  1.0000
  H   H527      1.0  0.24032  0.14116  0.36426  1.0000
  H   H528      1.0  0.20526  0.17609  0.35199  1.0000
  N   N22       1.0  0.12718  0.47688  0.30503  1.0000
  C   C315      1.0  0.04445  0.36935  0.27785  1.0000
  H   H529      1.0  0.01655  0.37997  0.30219  1.0000
  C   C316      1.0  0.11453  0.48214  0.30206  1.0000
  H   H530      1.0  0.14595  0.47754  0.29492  1.0000
  H   H531      1.0  0.03879  0.35409  0.29150  1.0000
  H   H532      1.0  0.05485  0.35243  0.28692  1.0000
  C   C317      1.0  0.12941  0.48515  0.31215  1.0000
  H   H533      1.0  0.12513  0.11043  0.48223  1.0000
  H   H534      1.0  0.13456  0.48449  0.28599  1.0000
  H   H535      1.0  0.10737  0.48250  0.31073  1.0000
  Fe  Fe47      1.0  0.24686  0.11247  0.38919  1.0000
  H   H536      1.0  0.24177  0.15557  0.33406  1.0000
  H   H537      1.0  0.15026  0.37992  0.23509  1.0000
  S   S95       1.0  0.99858  0.13329  0.32601  1.0000
  C   C318      1.0  0.24295  0.15870  0.34196  1.0000
  H   H538      1.0  0.13606  0.37472  0.24261  1.0000
  H   H539      1.0  0.11463  0.37673  0.24330  1.0000
  C   C319      1.0  0.11690  0.36980  0.23752  1.0000
  H   H540      1.0  0.12459  0.39172  0.23486  1.0000
  Fe  Fe48      1.0  0.24065  0.09792  0.59333  1.0000
  Fe  Fe49      1.0  0.14642  0.03429  0.61236  1.0000
  S   S96       1.0  0.16259  0.01974  0.61764  1.0000
  S   S97       1.0  0.13264  0.04662  0.62413  1.0000
  Fe  Fe50      1.0  0.15261  0.03078  0.58612  1.0000
  S   S98       1.0  0.16949  0.01620  0.58903  1.0000
  S   S99       1.0  0.14688  0.03643  0.56787  1.0000
  Fe  Fe51      1.0  0.15730  0.00875  0.60674  1.0000
  C   C320      1.0  0.18231  0.08463  0.59355  1.0000
  Fe  Fe52      1.0  0.17321  0.02855  0.59949  1.0000
  S   S100      1.0  0.19176  0.03434  0.59444  1.0000
  S   S101      1.0  0.14020  0.02272  0.60312  1.0000
  S   S102      1.0  0.15727  0.04362  0.59492  1.0000
  Fe  Fe53      1.0  0.21943  0.10164  0.58017  1.0000
  S   S103      1.0  0.23234  0.08473  0.58791  1.0000
  S   S104      1.0  0.21251  0.10275  0.56323  1.0000
  Fe  Fe54      1.0  0.21569  0.11333  0.60210  1.0000
  S   S105      1.0  0.22781  0.09713  0.61192  1.0000
  S   S106      1.0  0.20760  0.13085  0.60917  1.0000
  H   H541      1.0  0.09427  0.99469  0.63258  1.0000
  Fe  Fe55      1.0  0.21836  0.08555  0.60560  1.0000
  S   S107      1.0  0.20905  0.07004  0.61782  1.0000
  S   S108      1.0  0.22885  0.11471  0.58381  1.0000
  S   S109      1.0  0.20520  0.10190  0.59756  1.0000
  Fe  Fe56      1.0  0.12985  0.11077  0.66750  1.0000
  S   S110      1.0  0.14975  0.10839  0.65782  1.0000
  S   S111      1.0  0.12436  0.10850  0.68821  1.0000
  Fe  Fe57      1.0  0.12104  0.11426  0.64358  1.0000
  S   S112      1.0  0.14016  0.11244  0.63206  1.0000
  S   S113      1.0  0.10410  0.11750  0.63584  1.0000
  Fe  Fe58      1.0  0.14488  0.09678  0.64755  1.0000
  S   S114      1.0  0.15742  0.07909  0.64344  1.0000
  Fe  Fe59      1.0  0.14291  0.12424  0.64344  1.0000
  S   S115      1.0  0.15141  0.14081  0.63550  1.0000
  S   S116      1.0  0.12553  0.09773  0.65842  1.0000
  S   S117      1.0  0.12327  0.12747  0.65380  1.0000
  Fe  Fe60      1.0  0.12847  0.13157  0.54069  1.0000
  S   S118      1.0  0.14870  0.12351  0.53949  1.0000
  S   S119      1.0  0.12289  0.14574  0.52423  1.0000
  Fe  Fe61      1.0  0.12174  0.11640  0.56652  1.0000
  S   S120      1.0  0.14127  0.10663  0.56741  1.0000
  S   S121      1.0  0.10537  0.11307  0.58173  1.0000
  Fe  Fe62      1.0  0.14544  0.12544  0.55900  1.0000
  S   S122      1.0  0.15743  0.13272  0.56682  1.0000
  Fe  Fe63      1.0  0.14282  0.10550  0.54784  1.0000
  S   S123      1.0  0.15260  0.08984  0.53831  1.0000
  S   S124      1.0  0.12574  0.13534  0.55954  1.0000
  S   S125      1.0  0.12281  0.11334  0.54770  1.0000
  H   H542      1.0  0.14922  0.09001  0.51410  1.0000
  S   S126      1.0  0.11475  0.15459  0.71240  1.0000
  C   C321      1.0  0.12332  0.12108  0.69480  1.0000
  C   C322      1.0  0.12538  0.13249  0.68752  1.0000
  C   C323      1.0  0.12332  0.14264  0.69304  1.0000
  C   C324      1.0  0.11910  0.14145  0.70583  1.0000
  C   C325      1.0  0.11752  0.12992  0.71311  1.0000
  C   C326      1.0  0.11961  0.11979  0.70761  1.0000
  H   H543      1.0  0.12831  0.13357  0.67763  1.0000
  H   H544      1.0  0.12462  0.15153  0.68736  1.0000
  H   H545      1.0  0.11432  0.12888  0.72297  1.0000
  H   H546      1.0  0.11805  0.11098  0.71330  1.0000
  C   C327      1.0  0.10519  0.11615  0.62064  1.0000
  C   C328      1.0  0.11637  0.11519  0.61195  1.0000
  C   C329      1.0  0.11655  0.11469  0.59976  1.0000
  C   C330      1.0  0.10560  0.11480  0.59642  1.0000
  C   C331      1.0  0.09455  0.11553  0.60518  1.0000
  C   C332      1.0  0.09433  0.11635  0.61716  1.0000
  H   H547      1.0  0.12480  0.11495  0.61458  1.0000
  H   H548      1.0  0.12512  0.11404  0.59303  1.0000
  H   H549      1.0  0.08608  0.11556  0.60267  1.0000
  H   H550      1.0  0.08567  0.11710  0.62380  1.0000
  C   C333      1.0  0.19735  0.11141  0.56384  1.0000
  C   C334      1.0  0.18975  0.10927  0.55717  1.0000
  C   C335      1.0  0.17745  0.11576  0.55804  1.0000
  C   C336      1.0  0.17285  0.12466  0.56530  1.0000
  C   C337      1.0  0.18051  0.12696  0.57177  1.0000
  C   C338      1.0  0.19269  0.12024  0.57116  1.0000
  H   H551      1.0  0.19334  0.10247  0.55147  1.0000
  H   H552      1.0  0.17158  0.11396  0.55300  1.0000
  H   H553      1.0  0.17701  0.13386  0.57734  1.0000
  H   H554      1.0  0.19855  0.12207  0.57619  1.0000
  C   C339      1.0  0.19192  0.13332  0.61633  1.0000
  C   C340      1.0  0.18632  0.14460  0.61980  1.0000
  C   C341      1.0  0.17388  0.14679  0.62574  1.0000
  C   C342      1.0  0.16706  0.13761  0.62848  1.0000
  C   C343      1.0  0.17261  0.12630  0.62501  1.0000
  C   C344      1.0  0.18502  0.12423  0.61877  1.0000
  H   H555      1.0  0.19159  0.15167  0.61789  1.0000
  H   H556      1.0  0.16957  0.15557  0.62832  1.0000
  H   H557      1.0  0.16727  0.11928  0.62702  1.0000
  H   H558      1.0  0.18930  0.11558  0.61598  1.0000
  C   C345      1.0  0.19581  0.04479  0.60092  1.0000
  C   C346      1.0  0.19080  0.04606  0.61310  1.0000
  C   C347      1.0  0.19498  0.05376  0.61818  1.0000
  C   C348      1.0  0.20398  0.06049  0.61108  1.0000
  C   C349      1.0  0.20876  0.05946  0.59881  1.0000
  C   C350      1.0  0.20481  0.05153  0.59383  1.0000
  H   H559      1.0  0.18396  0.04085  0.61872  1.0000
  H   H560      1.0  0.19128  0.05442  0.62767  1.0000
  H   H561      1.0  0.21569  0.06456  0.59322  1.0000
  H   H562      1.0  0.20884  0.05057  0.58444  1.0000
  C   C351      1.0  0.14766  0.05158  0.55999  1.0000
  C   C352      1.0  0.14918  0.05444  0.54718  1.0000
  C   C353      1.0  0.15066  0.06625  0.54058  1.0000
  C   C354      1.0  0.15021  0.07534  0.54681  1.0000
  C   C355      1.0  0.14841  0.07261  0.55965  1.0000
  C   C356      1.0  0.14727  0.06067  0.56623  1.0000
  H   H563      1.0  0.14951  0.04742  0.54233  1.0000
  H   H564      1.0  0.15210  0.06833  0.53064  1.0000
  H   H565      1.0  0.14826  0.07959  0.56445  1.0000
  H   H566      1.0  0.14597  0.05854  0.57611  1.0000
  C   C357      1.0  0.13951  0.05527  0.62996  1.0000
  C   C358      1.0  0.15211  0.05199  0.63008  1.0000
  C   C359      1.0  0.15750  0.05922  0.63444  1.0000
  C   C360      1.0  0.15038  0.06991  0.63844  1.0000
  C   C361      1.0  0.13781  0.07325  0.63821  1.0000
  C   C362      1.0  0.13234  0.06582  0.63420  1.0000
  H   H567      1.0  0.15772  0.04386  0.62683  1.0000
  H   H568      1.0  0.16724  0.05659  0.63455  1.0000
  H   H569      1.0  0.13224  0.08150  0.64119  1.0000
  H   H570      1.0  0.12258  0.06837  0.63420  1.0000
  H   H571      1.0  0.17598  0.04704  0.54690  1.0000
  C   C363      1.0  0.09118  0.07315  0.60731  1.0000
  C   C364      1.0  0.12822  0.14956  0.58953  1.0000
  H   H572      1.0  0.17717  0.09887  0.66095  1.0000
  H   H573      1.0  0.18811  0.09105  0.59337  1.0000
  C   C365      1.0  0.09526  0.13932  0.50528  1.0000
  C   C366      1.0  0.10211  0.14849  0.49963  1.0000
  C   C367      1.0  0.11022  0.15071  0.50574  1.0000
  C   C368      1.0  0.11162  0.14368  0.51746  1.0000
  C   C369      1.0  0.10447  0.13479  0.52326  1.0000
  C   C370      1.0  0.09625  0.13270  0.51722  1.0000
  H   H574      1.0  0.11561  0.15770  0.50126  1.0000
  H   H575      1.0  0.10528  0.12952  0.53239  1.0000
  H   H576      1.0  0.09082  0.12574  0.52172  1.0000
  H   H577      1.0  0.14216  0.13270  0.50134  1.0000
  C   C371      1.0  0.11676  0.05331  0.59026  1.0000
  H   H578      1.0  0.11425  0.11097  0.51613  1.0000
  C   C372      1.0  0.13205  0.16426  0.59958  1.0000
  Fe  Fe64      1.0  0.10597  0.15099  0.73264  1.0000
  C   C373      1.0  0.18038  0.09193  0.66879  1.0000
  H   H579      1.0  0.16047  0.09676  0.50180  1.0000
  C   C374      1.0  0.06647  0.14158  0.68859  1.0000
  H   H580      1.0  0.22409  0.15015  0.60097  1.0000
  H   H581      1.0  0.21524  0.07883  0.63741  1.0000
  H   H582      1.0  0.17205  0.10803  0.59061  1.0000
  N   N23       1.0  0.08316  0.13338  0.70203  1.0000
  C   C375      1.0  0.08397  0.12983  0.71546  1.0000
  C   C376      1.0  0.08948  0.14411  0.69619  1.0000
  C   C377      1.0  0.08986  0.12247  0.69615  1.0000
  H   H583      1.0  0.07430  0.15929  0.70176  1.0000
  C   C378      1.0  0.08018  0.11760  0.72283  1.0000
  H   H584      1.0  0.07243  0.14767  0.68218  1.0000
  H   H585      1.0  0.06665  0.13386  0.68436  1.0000
  H   H586      1.0  0.12075  0.12807  0.49990  1.0000
  H   H587      1.0  0.09353  0.12911  0.71646  1.0000
  C   C379      1.0  0.14685  0.12336  0.50550  1.0000
  H   H588      1.0  0.09865  0.11620  0.67905  1.0000
  H   H589      1.0  0.09936  0.14117  0.69671  1.0000
  H   H590      1.0  0.09812  0.11749  0.70014  1.0000
  H   H591      1.0  0.15532  0.08398  0.50057  1.0000
  H   H592      1.0  0.18730  0.06922  0.55296  1.0000
  H   H593      1.0  0.15159  0.12466  0.51220  1.0000
  H   H594      1.0  0.08113  0.11626  0.73251  1.0000
  C   C380      1.0  0.18218  0.06817  0.66151  1.0000
  C   C381      1.0  0.06970  0.13668  0.70144  1.0000
  H   H595      1.0  0.23431  0.16801  0.58784  1.0000
  H   H596      1.0  0.17183  0.06379  0.59406  1.0000
  C   C382      1.0  0.16076  0.08161  0.59806  1.0000
  C   C383      1.0  0.23830  0.12552  0.61699  1.0000
  C   C384      1.0  0.12191  0.99678  0.62897  1.0000
  H   H597      1.0  0.23244  0.12861  0.59991  1.0000
  H   H598      1.0  0.06430  0.14334  0.70737  1.0000
  S   S127      1.0  0.08582  0.13551  0.49752  1.0000
  H   H599      1.0  0.15729  0.06316  0.60456  1.0000
  H   H600      1.0  0.13083  0.08499  0.51922  1.0000
  H   H601      1.0  0.18214  0.09708  0.67489  1.0000
  H   H602      1.0  0.18944  0.05053  0.65528  1.0000
  H   H603      1.0  0.10264  0.12994  0.67958  1.0000
  H   H604      1.0  0.17300  0.05487  0.65904  1.0000
  H   H605      1.0  0.06546  0.12847  0.70551  1.0000
  H   H606      1.0  0.19301  0.08648  0.57470  1.0000
  H   H607      1.0  0.17273  0.07406  0.66293  1.0000
  H   H608      1.0  0.09775  0.07471  0.58791  1.0000
  C   C385      1.0  0.18068  0.06375  0.55941  1.0000
  H   H609      1.0  0.18718  0.10431  0.63865  1.0000
  H   H610      1.0  0.12799  0.08485  0.61325  1.0000
  C   C386      1.0  0.12059  0.08056  0.58323  1.0000
  C   C387      1.0  0.21069  0.02986  0.56531  1.0000
  H   H611      1.0  0.15112  0.15402  0.58253  1.0000
  H   H612      1.0  0.12029  0.09038  0.58287  1.0000
  H   H613      1.0  0.12827  0.05919  0.59839  1.0000
  H   H614      1.0  0.21456  0.02064  0.57049  1.0000
  C   C388      1.0  0.09974  0.07806  0.59524  1.0000
  H   H615      1.0  0.11620  0.07147  0.57051  1.0000
  H   H616      1.0  0.10741  0.08707  0.57082  1.0000
  H   H617      1.0  0.09654  0.08828  0.59294  1.0000
  H   H618      1.0  0.08922  0.16306  0.69625  1.0000
  H   H619      1.0  0.11372  0.14064  0.61265  1.0000
  H   H620      1.0  0.05704  0.14746  0.68953  1.0000
  C   C389      1.0  0.19906  0.04673  0.54474  1.0000
  H   H621      1.0  0.07807  0.13706  0.72051  1.0000
  H   H622      1.0  0.08392  0.11561  0.69821  1.0000
  H   H623      1.0  0.15802  0.15851  0.59914  1.0000
  N   N24       1.0  0.19177  0.07596  0.65530  1.0000
  C   C390      1.0  0.13478  0.16681  0.61109  1.0000
  H   H624      1.0  0.11784  0.10032  0.50633  1.0000
  H   H625      1.0  0.17061  0.07978  0.61753  1.0000
  H   H626      1.0  0.17184  0.04028  0.56274  1.0000
  H   H627      1.0  0.23552  0.14380  0.58167  1.0000
  H   H628      1.0  0.15793  0.09227  0.61682  1.0000
  C   C391      1.0  0.17936  0.03963  0.55441  1.0000
  C   C392      1.0  0.21551  0.07300  0.64671  1.0000
  H   H629      1.0  0.19212  0.02667  0.57267  1.0000
  C   C393      1.0  0.23290  0.15125  0.60257  1.0000
  H   H630      1.0  0.22927  0.13057  0.62138  1.0000
  N   N25       1.0  0.13236  0.11009  0.50427  1.0000
  N   N26       1.0  0.11331  0.07487  0.59542  1.0000
  C   C394      1.0  0.14210  0.10132  0.49726  1.0000
  H   H631      1.0  0.08773  0.13038  0.67675  1.0000
  H   H632      1.0  0.18719  0.02498  0.54350  1.0000
  H   H633      1.0  0.18013  0.01964  0.55946  1.0000
  H   H634      1.0  0.11576  0.15311  0.61830  1.0000
  C   C395      1.0  0.12815  0.08106  0.60524  1.0000
  H   H635      1.0  0.11818  0.15150  0.59365  1.0000
  H   H636      1.0  0.20176  0.09603  0.64206  1.0000
  H   H637      1.0  0.11023  0.99813  0.61671  1.0000
  H   H638      1.0  0.14180  0.10787  0.51918  1.0000
  H   H639      1.0  0.13052  0.07607  0.58220  1.0000
  H   H640      1.0  0.19820  0.03919  0.52937  1.0000
  H   H641      1.0  0.08962  0.14720  0.68620  1.0000
  H   H642      1.0  0.12792  0.16779  0.57671  1.0000
  H   H643      1.0  0.08633  0.10951  0.71931  1.0000
  H   H644      1.0  0.12615  0.16855  0.61809  1.0000
  H   H645      1.0  0.18111  0.06255  0.64493  1.0000
  H   H646      1.0  0.21026  0.03650  0.57091  1.0000
  H   H647      1.0  0.19970  0.08827  0.66118  1.0000
  H   H648      1.0  0.11663  0.04377  0.59564  1.0000
  H   H649      1.0  0.12501  0.00509  0.62276  1.0000
  H   H650      1.0  0.17357  0.06359  0.55461  1.0000
  H   H651      1.0  0.23782  0.11562  0.61970  1.0000
  H   H652      1.0  0.19363  0.05518  0.53975  1.0000
  H   H653      1.0  0.11617  0.09039  0.52812  1.0000
  H   H654      1.0  0.13436  0.07185  0.60610  1.0000
  H   H655      1.0  0.11941  0.13754  0.62635  1.0000
  C   C396      1.0  0.09484  0.12512  0.68209  1.0000
  H   H656      1.0  0.19956  0.02186  0.55882  1.0000
  H   H657      1.0  0.17081  0.02793  0.54859  1.0000
  H   H658      1.0  0.12974  0.12079  0.51803  1.0000
  N   N27       1.0  0.13570  0.15110  0.59788  1.0000
  H   H659      1.0  0.15152  0.13839  0.59022  1.0000
  H   H660      1.0  0.16984  0.06486  0.60980  1.0000
  C   C397      1.0  0.13739  0.11519  0.51234  1.0000
  H   H661      1.0  0.17438  0.10652  0.60959  1.0000
  H   H662      1.0  0.15890  0.08357  0.58863  1.0000
  H   H663      1.0  0.18522  0.09230  0.61398  1.0000
  H   H664      1.0  0.08587  0.15400  0.71127  1.0000
  C   C398      1.0  0.15864  0.14888  0.59856  1.0000
  C   C399      1.0  0.17537  0.09701  0.61517  1.0000
  C   C400      1.0  0.11986  0.11811  0.48687  1.0000
  H   H665      1.0  0.12193  0.16768  0.60013  1.0000
  H   H666      1.0  0.12250  0.15694  0.57198  1.0000
  H   H667      1.0  0.14953  0.11793  0.59069  1.0000
  H   H668      1.0  0.18590  0.07586  0.59957  1.0000
  C   C401      1.0  0.16775  0.08930  0.61234  1.0000
  C   C402      1.0  0.16510  0.10239  0.59186  1.0000
  H   H669      1.0  0.15298  0.11266  0.60569  1.0000
  H   H670      1.0  0.18811  0.07234  0.58045  1.0000
  C   C403      1.0  0.18506  0.08236  0.58034  1.0000
  C   C404      1.0  0.15244  0.10956  0.59753  1.0000
  C   C405      1.0  0.16535  0.06760  0.60182  1.0000
  N   N28       1.0  0.16902  0.08948  0.59890  1.0000
  H   H671      1.0  0.16468  0.10236  0.58232  1.0000
  H   H672      1.0  0.21730  0.03167  0.55643  1.0000
  C   C406      1.0  0.11821  0.06116  0.59860  1.0000
  H   H673      1.0  0.18934  0.07918  0.63658  1.0000
  H   H674      1.0  0.19496  0.07625  0.67294  1.0000
  C   C407      1.0  0.11487  0.08041  0.60536  1.0000
  C   C408      1.0  0.18155  0.05851  0.65468  1.0000
  H   H675      1.0  0.13773  0.09547  0.49405  1.0000
  C   C409      1.0  0.19417  0.09563  0.63807  1.0000
  H   H676      1.0  0.21725  0.07806  0.65285  1.0000
  H   H677      1.0  0.12460  0.05290  0.58223  1.0000
  H   H678      1.0  0.13204  0.08743  0.59694  1.0000
  H   H679      1.0  0.11071  0.11624  0.49213  1.0000
  C   C410      1.0  0.19790  0.02964  0.56346  1.0000
  H   H680      1.0  0.17286  0.08711  0.67425  1.0000
  H   H681      1.0  0.11433  0.05709  0.60830  1.0000
  H   H682      1.0  0.18361  0.06307  0.67087  1.0000
  C   C411      1.0  0.12705  0.12091  0.49509  1.0000
  H   H683      1.0  0.10797  0.05640  0.58704  1.0000
  H   H684      1.0  0.14513  0.10415  0.60004  1.0000
  C   C412      1.0  0.08423  0.15568  0.70182  1.0000
  H   H685      1.0  0.19805  0.09572  0.62813  1.0000
  H   H686      1.0  0.17589  0.06873  0.56696  1.0000
  H   H687      1.0  0.19555  0.05215  0.56748  1.0000
  C   C413      1.0  0.17963  0.02730  0.55126  1.0000
  C   C414      1.0  0.15217  0.09268  0.50403  1.0000
  H   H688      1.0  0.14166  0.15963  0.61554  1.0000
  H   H689      1.0  0.20588  0.06012  0.66040  1.0000
  H   H690      1.0  0.13837  0.17543  0.60845  1.0000
  C   C415      1.0  0.11973  0.14356  0.61703  1.0000
  C   C416      1.0  0.12955  0.15790  0.57652  1.0000
  H   H691      1.0  0.10933  0.08998  0.60489  1.0000
  H   H692      1.0  0.12901  0.09563  0.52919  1.0000
  C   C417      1.0  0.20398  0.06732  0.65211  1.0000
  H   H693      1.0  0.13593  0.13234  0.60800  1.0000
  C   C418      1.0  0.14913  0.14796  0.59176  1.0000
  H   H694      1.0  0.13862  0.15507  0.57055  1.0000
  H   H695      1.0  0.17217  0.09771  0.62498  1.0000
  H   H696      1.0  0.11499  0.99982  0.63689  1.0000
  H   H697      1.0  0.09118  0.07741  0.61493  1.0000
  H   H698      1.0  0.15399  0.11921  0.49834  1.0000
  H   H699      1.0  0.07043  0.11768  0.72315  1.0000
  H   H700      1.0  0.22371  0.06540  0.64541  1.0000
  H   H701      1.0  0.13656  0.17037  0.59136  1.0000
  H   H702      1.0  0.15157  0.08381  0.60415  1.0000
  C   C419      1.0  0.12188  0.10404  0.51204  1.0000
  C   C420      1.0  0.20470  0.03830  0.53536  1.0000
  H   H703      1.0  0.10120  0.15386  0.49058  1.0000
  H   H704      1.0  0.13895  0.14165  0.61622  1.0000
  C   C421      1.0  0.12490  0.09319  0.52268  1.0000
  H   H705      1.0  0.17731  0.08626  0.57549  1.0000
  C   C422      1.0  0.13322  0.14185  0.60978  1.0000
  H   H706      1.0  0.16807  0.14580  0.59329  1.0000
  H   H707      1.0  0.13050  0.13982  0.58833  1.0000
  H   H708      1.0  0.20371  0.06232  0.64511  1.0000
  C   C423      1.0  0.19237  0.08286  0.66456  1.0000
  H   H709      1.0  0.15800  0.14274  0.60774  1.0000
  H   H710      1.0  0.20659  0.05015  0.54643  1.0000
  H   H711      1.0  0.12316  0.08442  0.56329  1.0000
  C   C424      1.0  0.11648  0.08071  0.57143  1.0000
  H   H712      1.0  0.18136  0.04729  0.57369  1.0000
  H   H713      1.0  0.09357  0.06296  0.61008  1.0000
  C   C425      1.0  0.18745  0.05075  0.56485  1.0000
  H   H714      1.0  0.21333  0.04102  0.52951  1.0000
  H   H715      1.0  0.11134  0.07519  0.61471  1.0000
  N   N29       1.0  0.19113  0.04149  0.55663  1.0000
  H   H716      1.0  0.17781  0.08827  0.64582  1.0000
  H   H717      1.0  0.08155  0.07566  0.60587  1.0000
  H   H718      1.0  0.20756  0.02850  0.53965  1.0000
  C   C426      1.0  0.18793  0.08443  0.64388  1.0000
  C   C427      1.0  0.23358  0.16493  0.59791  1.0000
  H   H719      1.0  0.14582  0.99570  0.59157  1.0000
  H   H720      1.0  0.23179  0.14961  0.61273  1.0000
  C   C428      1.0  0.24448  0.14413  0.58356  1.0000
  H   H721      1.0  0.24114  0.16705  0.60083  1.0000
  H   H722      1.0  0.24605  0.15342  0.57869  1.0000
  C   C429      1.0  0.24063  0.12942  0.60281  1.0000
  H   H723      1.0  0.13442  0.12547  0.48866  1.0000
  H   H724      1.0  0.22487  0.17057  0.60223  1.0000
  N   N30       1.0  0.24360  0.14202  0.59725  1.0000
  H   H725      1.0  0.24584  0.12652  0.62080  1.0000
  H   H726      1.0  0.14719  0.10664  0.48878  1.0000
  C   C430      1.0  0.11659  0.99060  0.62169  1.0000
  H   H727      1.0  0.13024  0.99065  0.63210  1.0000
  H   H728      1.0  0.00975  0.35376  0.86681  1.0000
  S   S128      1.0  0.12704  0.01684  0.81286  1.0000
  Fe  Fe65      1.0  0.12290  0.33788  0.94430  1.0000
  S   S129      1.0  0.11605  0.35487  0.93111  1.0000
  S   S130      1.0  0.13277  0.32128  0.93575  1.0000
  Fe  Fe66      1.0  0.11558  0.35161  0.96592  1.0000
  S   S131      1.0  0.10784  0.36944  0.95417  1.0000
  Fe  Fe67      1.0  0.09980  0.35792  0.94645  1.0000
  S   S132      1.0  0.08010  0.36328  0.94388  1.0000
  Fe  Fe68      1.0  0.12477  0.36459  0.94000  1.0000
  S   S133      1.0  0.13527  0.37876  0.92799  1.0000
  S   S134      1.0  0.10602  0.34027  0.95941  1.0000
  S   S135      1.0  0.13312  0.34741  0.95205  1.0000
  Fe  Fe69      1.0  0.14184  0.28059  0.87663  1.0000
  S   S136      1.0  0.13415  0.26737  0.89336  1.0000
  S   S137      1.0  0.16162  0.28259  0.87230  1.0000
  Fe  Fe70      1.0  0.11756  0.29016  0.86889  1.0000
  S   S138      1.0  0.10765  0.27840  0.88517  1.0000
  S   S139      1.0  0.10858  0.30314  0.85402  1.0000
  Fe  Fe71      1.0  0.11853  0.28360  0.89601  1.0000
  S   S140      1.0  0.10971  0.28861  0.91463  1.0000
  Fe  Fe72      1.0  0.12403  0.26323  0.88090  1.0000
  S   S141      1.0  0.11933  0.24465  0.88222  1.0000
  S   S142      1.0  0.12680  0.29693  0.87999  1.0000
  S   S143      1.0  0.13335  0.27492  0.86393  1.0000
  Fe  Fe73      1.0  0.05164  0.38110  0.85710  1.0000
  S   S144      1.0  0.04966  0.37215  0.87725  1.0000
  S   S145      1.0  0.03363  0.39073  0.85070  1.0000
  Fe  Fe74      1.0  0.07989  0.37249  0.85247  1.0000
  S   S146      1.0  0.07986  0.36252  0.87202  1.0000
  S   S147      1.0  0.09839  0.37153  0.83920  1.0000
  Fe  Fe75      1.0  0.06342  0.35633  0.87058  1.0000
  S   S148      1.0  0.06101  0.33691  0.87867  1.0000
  Fe  Fe76      1.0  0.06624  0.37932  0.87682  1.0000
  S   S149      1.0  0.06820  0.38849  0.89119  1.0000
  S   S150      1.0  0.06454  0.36471  0.85048  1.0000
  S   S151      1.0  0.06712  0.38986  0.85723  1.0000
  Fe  Fe77      1.0  0.17437  0.35664  0.87337  1.0000
  S   S152      1.0  0.17259  0.37673  0.86460  1.0000
  S   S153      1.0  0.17624  0.34834  0.89291  1.0000
  Fe  Fe78      1.0  0.17444  0.34932  0.85001  1.0000
  S   S154      1.0  0.17287  0.36885  0.83904  1.0000
  S   S155      1.0  0.17629  0.33309  0.84163  1.0000
  Fe  Fe79      1.0  0.18693  0.37032  0.84896  1.0000
  S   S156      1.0  0.20470  0.37751  0.84066  1.0000
  Fe  Fe80      1.0  0.15867  0.37349  0.85574  1.0000
  S   S157      1.0  0.13958  0.38572  0.85746  1.0000
  S   S158      1.0  0.18960  0.35034  0.85838  1.0000
  S   S159      1.0  0.15936  0.35390  0.86587  1.0000
  H   H729      1.0  0.06894  0.36422  0.97044  1.0000
  H   H730      1.0  0.09864  0.01269  0.87162  1.0000
  H   H731      1.0  0.19462  0.35529  0.90321  1.0000
  C   C431      1.0  0.08621  0.13076  0.85976  1.0000
  N   N31       1.0  0.20072  0.37170  0.89185  1.0000
  Fe  Fe81      1.0  0.09826  0.13019  0.75312  1.0000
  H   H732      1.0  0.02018  0.32632  0.89177  1.0000
  S   S160      1.0  0.09714  0.11053  0.75504  1.0000
  H   H733      1.0  0.13087  0.05925  0.76252  1.0000
  C   C432      1.0  0.07381  0.18837  0.76971  1.0000
  H   H734      1.0  0.19026  0.39804  0.88435  1.0000
  S   S161      1.0  0.09055  0.14203  0.76719  1.0000
  Fe  Fe82      1.0  0.02492  0.16870  0.82846  1.0000
  S   S162      1.0  0.01285  0.16827  0.81605  1.0000
  S   S163      1.0  0.03438  0.18470  0.82326  1.0000
  Fe  Fe83      1.0  0.02117  0.14405  0.84480  1.0000
  S   S164      1.0  0.00884  0.14157  0.83385  1.0000
  S   S165      1.0  0.02355  0.12971  0.86201  1.0000
  Fe  Fe84      1.0  0.02268  0.14852  0.81747  1.0000
  S   S166      1.0  0.03050  0.13800  0.80231  1.0000
  H   H735      1.0  0.10763  0.01175  0.83831  1.0000
  S   S167      1.0  0.03580  0.14940  0.82848  1.0000
  S   S168      1.0  0.01140  0.16351  0.84592  1.0000
  Fe  Fe85      1.0  0.11447  0.07381  0.83855  1.0000
  S   S169      1.0  0.09501  0.07207  0.84077  1.0000
  S   S170      1.0  0.12954  0.05671  0.84071  1.0000
  Fe  Fe86      1.0  0.10843  0.10159  0.82917  1.0000
  S   S171      1.0  0.08870  0.10190  0.82968  1.0000
  S   S172      1.0  0.11424  0.11968  0.82060  1.0000
  Fe  Fe87      1.0  0.08945  0.08939  0.84810  1.0000
  S   S173      1.0  0.07393  0.09098  0.86460  1.0000
  Fe  Fe88      1.0  0.09601  0.08464  0.82226  1.0000
  S   S174      1.0  0.08926  0.07848  0.80873  1.0000
  S   S175      1.0  0.10896  0.08992  0.84806  1.0000
  S   S176      1.0  0.11571  0.08563  0.81961  1.0000
  Fe  Fe89      1.0  0.10912  0.20391  0.83849  1.0000
  S   S177      1.0  0.09204  0.20774  0.83065  1.0000
  S   S178      1.0  0.11821  0.21921  0.83931  1.0000
  Fe  Fe90      1.0  0.11310  0.17606  0.84032  1.0000
  S   S179      1.0  0.09667  0.17789  0.83247  1.0000
  S   S180      1.0  0.12345  0.15697  0.84752  1.0000
  Fe  Fe91      1.0  0.10295  0.19401  0.81888  1.0000
  S   S181      1.0  0.10161  0.19755  0.79888  1.0000
  Fe  Fe92      1.0  0.08727  0.19113  0.84488  1.0000
  S   S182      1.0  0.06916  0.18722  0.85672  1.0000
  S   S183      1.0  0.12036  0.19118  0.82566  1.0000
  S   S184      1.0  0.10336  0.18837  0.85371  1.0000
  C   C433      1.0  0.11696  0.12951  0.82858  1.0000
  C   C434      1.0  0.11691  0.14178  0.82253  1.0000
  C   C435      1.0  0.11903  0.15011  0.82833  1.0000
  C   C436      1.0  0.12133  0.14622  0.84021  1.0000
  C   C437      1.0  0.12157  0.13387  0.84629  1.0000
  C   C438      1.0  0.11929  0.12551  0.84051  1.0000
  H   H736      1.0  0.11500  0.14491  0.81339  1.0000
  H   H737      1.0  0.11898  0.15955  0.82357  1.0000
  H   H738      1.0  0.12337  0.13082  0.85550  1.0000
  H   H739      1.0  0.11946  0.11601  0.84519  1.0000
  C   C439      1.0  0.04367  0.18541  0.83294  1.0000
  C   C440      1.0  0.05142  0.19391  0.82883  1.0000
  C   C441      1.0  0.05945  0.19426  0.83600  1.0000
  C   C442      1.0  0.05922  0.18663  0.84767  1.0000
  C   C443      1.0  0.05107  0.17848  0.85206  1.0000
  C   C444      1.0  0.04351  0.17764  0.84457  1.0000
  H   H740      1.0  0.05130  0.20026  0.82006  1.0000
  H   H741      1.0  0.06559  0.20068  0.83263  1.0000
  H   H742      1.0  0.05068  0.17273  0.86119  1.0000
  H   H743      1.0  0.03739  0.17120  0.84788  1.0000
  C   C445      1.0  0.03761  0.11899  0.86210  1.0000
  C   C446      1.0  0.03920  0.11041  0.87300  1.0000
  C   C447      1.0  0.05037  0.10188  0.87356  1.0000
  C   C448      1.0  0.06003  0.10179  0.86324  1.0000
  C   C449      1.0  0.05843  0.11033  0.85228  1.0000
  C   C450      1.0  0.04723  0.11895  0.85171  1.0000
  H   H744      1.0  0.03183  0.11043  0.88108  1.0000
  H   H745      1.0  0.05154  0.09534  0.88208  1.0000
  H   H746      1.0  0.06586  0.11045  0.84433  1.0000
  H   H747      1.0  0.04608  0.12564  0.84331  1.0000
  C   C451      1.0  0.05371  0.15843  0.76847  1.0000
  C   C452      1.0  0.04313  0.16496  0.77513  1.0000
  C   C453      1.0  0.03610  0.15876  0.78568  1.0000
  C   C454      1.0  0.03932  0.14594  0.78928  1.0000
  C   C455      1.0  0.04964  0.13935  0.78237  1.0000
  C   C456      1.0  0.05695  0.14561  0.77210  1.0000
  C   C457      1.0  0.06872  0.17747  0.77879  1.0000
  H   H748      1.0  0.02804  0.16388  0.79087  1.0000
  H   H749      1.0  0.05203  0.12942  0.78498  1.0000
  H   H750      1.0  0.06496  0.14049  0.76685  1.0000
  C   C458      1.0  0.11400  0.16544  0.77870  1.0000
  C   C459      1.0  0.10783  0.17695  0.77322  1.0000
  C   C460      1.0  0.10469  0.18693  0.77919  1.0000
  C   C461      1.0  0.10710  0.18529  0.79094  1.0000
  C   C462      1.0  0.11341  0.17384  0.79632  1.0000
  C   C463      1.0  0.11708  0.16403  0.79008  1.0000
  H   H751      1.0  0.10574  0.17822  0.76427  1.0000
  H   H752      1.0  0.10006  0.19586  0.77487  1.0000
  H   H753      1.0  0.11557  0.17262  0.80520  1.0000
  H   H754      1.0  0.12228  0.15530  0.79411  1.0000
  C   C464      1.0  0.09406  0.10244  0.77024  1.0000
  C   C465      1.0  0.09753  0.10568  0.77955  1.0000
  C   C466      1.0  0.09597  0.09844  0.79152  1.0000
  C   C467      1.0  0.09061  0.08817  0.79416  1.0000
  C   C468      1.0  0.08661  0.08529  0.78496  1.0000
  C   C469      1.0  0.08855  0.09228  0.77296  1.0000
  H   H755      1.0  0.10164  0.11363  0.77735  1.0000
  H   H756      1.0  0.09892  0.10075  0.79868  1.0000
  H   H757      1.0  0.08224  0.07750  0.78705  1.0000
  H   H758      1.0  0.08576  0.08986  0.76576  1.0000
  C   C470      1.0  0.21037  0.38576  0.84825  1.0000
  C   C471      1.0  0.22299  0.38289  0.84849  1.0000
  C   C472      1.0  0.22805  0.39017  0.85321  1.0000
  C   C473      1.0  0.22051  0.40041  0.85774  1.0000
  C   C474      1.0  0.20781  0.40302  0.85789  1.0000
  C   C475      1.0  0.20276  0.39578  0.85313  1.0000
  H   H759      1.0  0.22893  0.37514  0.84477  1.0000
  Fe  Fe93      1.0  0.00012  0.16141  0.83358  1.0000
  H   H760      1.0  0.22230  0.43114  0.82323  1.0000
  H   H761      1.0  0.19304  0.39814  0.85290  1.0000
  C   C476      1.0  0.02712  0.38488  0.84155  1.0000
  C   C477      1.0  0.03446  0.37730  0.83352  1.0000
  C   C478      1.0  0.02904  0.37297  0.82624  1.0000
  C   C479      1.0  0.01620  0.37603  0.82699  1.0000
  C   C480      1.0  0.00882  0.38354  0.83509  1.0000
  C   C481      1.0  0.01429  0.38804  0.84224  1.0000
  H   H762      1.0  0.04436  0.37498  0.83272  1.0000
  H   H763      1.0  0.03483  0.36726  0.81992  1.0000
  C   C482      1.0  0.10969  0.37596  0.84403  1.0000
  C   C483      1.0  0.10710  0.37929  0.85542  1.0000
  C   C484      1.0  0.11631  0.38229  0.85939  1.0000
  C   C485      1.0  0.12830  0.38167  0.85220  1.0000
  C   C486      1.0  0.13089  0.37846  0.84073  1.0000
  C   C487      1.0  0.12155  0.37580  0.83658  1.0000
  H   H764      1.0  0.09792  0.37972  0.86112  1.0000
  H   H765      1.0  0.11409  0.38509  0.86805  1.0000
  H   H766      1.0  0.14001  0.37832  0.83495  1.0000
  H   H767      1.0  0.12352  0.37356  0.82760  1.0000
  C   C488      1.0  0.16505  0.29693  0.86388  1.0000
  C   C489      1.0  0.17529  0.29702  0.85412  1.0000
  C   C490      1.0  0.17865  0.30816  0.84749  1.0000
  C   C491      1.0  0.17224  0.31929  0.85095  1.0000
  C   C492      1.0  0.16220  0.31922  0.86101  1.0000
  C   C493      1.0  0.15838  0.30809  0.86724  1.0000
  H   H768      1.0  0.18053  0.28846  0.85152  1.0000
  H   H769      1.0  0.18635  0.30814  0.83969  1.0000
  H   H770      1.0  0.15721  0.32778  0.86372  1.0000
  H   H771      1.0  0.15048  0.30810  0.87480  1.0000
  C   C494      1.0  0.09505  0.31226  0.86068  1.0000
  C   C495      1.0  0.09217  0.32479  0.85547  1.0000
  C   C496      1.0  0.08179  0.33237  0.86112  1.0000
  C   C497      1.0  0.07390  0.32733  0.87162  1.0000
  C   C498      1.0  0.07644  0.31467  0.87652  1.0000
  C   C499      1.0  0.08719  0.30717  0.87121  1.0000
  H   H772      1.0  0.09807  0.32870  0.84720  1.0000
  H   H773      1.0  0.07994  0.34211  0.85727  1.0000
  H   H774      1.0  0.07027  0.31073  0.88456  1.0000
  H   H775      1.0  0.08925  0.29744  0.87514  1.0000
  C   C500      1.0  0.11904  0.23776  0.87013  1.0000
  C   C501      1.0  0.11224  0.22847  0.87277  1.0000
  C   C502      1.0  0.11172  0.22278  0.86347  1.0000
  C   C503      1.0  0.11814  0.22624  0.85140  1.0000
  C   C504      1.0  0.12501  0.23548  0.84878  1.0000
  C   C505      1.0  0.12547  0.24121  0.85806  1.0000
  H   H776      1.0  0.10729  0.22569  0.88209  1.0000
  H   H777      1.0  0.10640  0.21570  0.86564  1.0000
  H   H778      1.0  0.13007  0.23819  0.83949  1.0000
  H   H779      1.0  0.13089  0.24820  0.85592  1.0000
  C   C506      1.0  0.12484  0.31377  0.92964  1.0000
  C   C507      1.0  0.11640  0.30677  0.93737  1.0000
  C   C508      1.0  0.11187  0.29905  0.93268  1.0000
  C   C509      1.0  0.11579  0.29821  0.92023  1.0000
  C   C510      1.0  0.12396  0.30546  0.91243  1.0000
  C   C511      1.0  0.12841  0.31323  0.91713  1.0000
  H   H780      1.0  0.11376  0.30691  0.94709  1.0000
  H   H781      1.0  0.10549  0.29354  0.93876  1.0000
  H   H782      1.0  0.12686  0.30506  0.90280  1.0000
  H   H783      1.0  0.13472  0.31879  0.91109  1.0000
  C   C512      1.0  0.14764  0.37092  0.91853  1.0000
  C   C513      1.0  0.15407  0.35924  0.92331  1.0000
  C   C514      1.0  0.16308  0.35241  0.91545  1.0000
  C   C515      1.0  0.16533  0.35709  0.90276  1.0000
  C   C516      1.0  0.15895  0.36881  0.89802  1.0000
  C   C517      1.0  0.15040  0.37588  0.90594  1.0000
  H   H784      1.0  0.15217  0.35548  0.93307  1.0000
  H   H785      1.0  0.16805  0.34340  0.91919  1.0000
  H   H786      1.0  0.16053  0.37247  0.88829  1.0000
  H   H787      1.0  0.14556  0.38497  0.90225  1.0000
  C   C518      1.0  0.07697  0.36933  0.92897  1.0000
  C   C519      1.0  0.08613  0.36819  0.91831  1.0000
  C   C520      1.0  0.08324  0.37321  0.90659  1.0000
  C   C521      1.0  0.07127  0.37968  0.90549  1.0000
  C   C522      1.0  0.06214  0.38073  0.91615  1.0000
  C   C523      1.0  0.06492  0.37540  0.92781  1.0000
  H   H788      1.0  0.09539  0.36337  0.91911  1.0000
  H   H789      1.0  0.09034  0.37249  0.89838  1.0000
  H   H790      1.0  0.05293  0.38593  0.91538  1.0000
  H   H791      1.0  0.05778  0.37633  0.93598  1.0000
  C   C524      1.0  0.12837  0.02806  0.82007  1.0000
  C   C525      1.0  0.13867  0.02685  0.82500  1.0000
  C   C526      1.0  0.13918  0.03587  0.83101  1.0000
  C   C527      1.0  0.12950  0.04620  0.83196  1.0000
  C   C528      1.0  0.11945  0.04757  0.82662  1.0000
  C   C529      1.0  0.11880  0.03844  0.82090  1.0000
  H   H792      1.0  0.14618  0.01895  0.82427  1.0000
  H   H793      1.0  0.14703  0.03479  0.83504  1.0000
  H   H794      1.0  0.11198  0.05548  0.82719  1.0000
  H   H795      1.0  0.11069  0.03929  0.81739  1.0000
  N   N32       1.0  0.13631  0.11549  0.78497  1.0000
  C   C530      1.0  0.13791  0.11993  0.77119  1.0000
  C   C531      1.0  0.13835  0.12537  0.79026  1.0000
  C   C532      1.0  0.12355  0.11309  0.79064  1.0000
  C   C533      1.0  0.14549  0.10359  0.78764  1.0000
  C   C534      1.0  0.13423  0.11209  0.76422  1.0000
  H   H796      1.0  0.15603  0.12853  0.77788  1.0000
  C   C535      1.0  0.11293  0.12444  0.78918  1.0000
  C   C536      1.0  0.14578  0.09805  0.80141  1.0000
  H   H797      1.0  0.13256  0.12948  0.76879  1.0000
  H   H798      1.0  0.14767  0.12054  0.76692  1.0000
  H   H799      1.0  0.13464  0.12405  0.80035  1.0000
  H   H800      1.0  0.13305  0.13456  0.78650  1.0000
  H   H801      1.0  0.12174  0.10580  0.78703  1.0000
  H   H802      1.0  0.12264  0.10922  0.80064  1.0000
  H   H803      1.0  0.14359  0.09631  0.78409  1.0000
  H   H804      1.0  0.15500  0.10452  0.78254  1.0000
  H   H805      1.0  0.12411  0.11270  0.76638  1.0000
  H   H806      1.0  0.13677  0.11583  0.75417  1.0000
  H   H807      1.0  0.13911  0.10233  0.76585  1.0000
  H   H808      1.0  0.15189  0.13496  0.79132  1.0000
  H   H809      1.0  0.02513  0.35708  0.87975  1.0000
  N   N33       1.0  0.23712  0.41034  0.81494  1.0000
  H   H810      1.0  0.10401  0.12169  0.79389  1.0000
  H   H811      1.0  0.11256  0.12838  0.77938  1.0000
  H   H812      1.0  0.11353  0.13169  0.79363  1.0000
  H   H813      1.0  0.14109  0.09011  0.80480  1.0000
  H   H814      1.0  0.14134  0.10462  0.80757  1.0000
  H   H815      1.0  0.15549  0.09472  0.80257  1.0000
  N   N34       1.0  0.14459  0.18584  0.85424  1.0000
  C   C537      1.0  0.14604  0.19179  0.84071  1.0000
  C   C538      1.0  0.13772  0.19580  0.86132  1.0000
  C   C539      1.0  0.13711  0.17605  0.85678  1.0000
  C   C540      1.0  0.15729  0.18020  0.85688  1.0000
  C   C541      1.0  0.15153  0.18297  0.83163  1.0000
  C   C542      1.0  0.14433  0.20641  0.85963  1.0000
  C   C543      1.0  0.12993  0.17237  0.87007  1.0000
  H   H816      1.0  0.13697  0.19710  0.83856  1.0000
  H   H817      1.0  0.15207  0.19863  0.83810  1.0000
  H   H818      1.0  0.13544  0.19214  0.87137  1.0000
  H   H819      1.0  0.12856  0.19992  0.85878  1.0000
  H   H820      1.0  0.13000  0.17906  0.85101  1.0000
  H   H821      1.0  0.14302  0.16741  0.85407  1.0000
  H   H822      1.0  0.16174  0.17245  0.85203  1.0000
  H   H823      1.0  0.16364  0.18676  0.85290  1.0000
  H   H824      1.0  0.15164  0.18847  0.82210  1.0000
  H   H825      1.0  0.16121  0.17830  0.83209  1.0000
  H   H826      1.0  0.14590  0.17603  0.83296  1.0000
  H   H827      1.0  0.13878  0.21260  0.86597  1.0000
  H   H828      1.0  0.15356  0.20307  0.86200  1.0000
  H   H829      1.0  0.14502  0.21219  0.85020  1.0000
  H   H830      1.0  0.12198  0.17987  0.87248  1.0000
  H   H831      1.0  0.13577  0.16970  0.87698  1.0000
  H   H832      1.0  0.12600  0.16429  0.87071  1.0000
  N   N35       1.0  0.13158  0.33622  0.84488  1.0000
  C   C544      1.0  0.13007  0.34387  0.85425  1.0000
  C   C545      1.0  0.14411  0.33654  0.83655  1.0000
  C   C546      1.0  0.13085  0.32317  0.85179  1.0000
  C   C547      1.0  0.12132  0.34168  0.83790  1.0000
  C   C548      1.0  0.11812  0.34411  0.86433  1.0000
  C   C549      1.0  0.14651  0.34933  0.82938  1.0000
  C   C550      1.0  0.13781  0.31264  0.84495  1.0000
  C   C551      1.0  0.12134  0.33555  0.82748  1.0000
  H   H833      1.0  0.13801  0.34072  0.85898  1.0000
  H   H834      1.0  0.13012  0.35363  0.84976  1.0000
  H   H835      1.0  0.14617  0.33079  0.82960  1.0000
  H   H836      1.0  0.15138  0.33239  0.84200  1.0000
  H   H837      1.0  0.13469  0.32089  0.86027  1.0000
  H   H838      1.0  0.12107  0.32217  0.85508  1.0000
  H   H839      1.0  0.11222  0.34127  0.84422  1.0000
  H   H840      1.0  0.12062  0.35173  0.83419  1.0000
  H   H841      1.0  0.11692  0.33477  0.86958  1.0000
  H   H842      1.0  0.11860  0.34937  0.87098  1.0000
  H   H843      1.0  0.10983  0.34905  0.86047  1.0000
  H   H844      1.0  0.15564  0.34809  0.82297  1.0000
  H   H845      1.0  0.13955  0.35437  0.82374  1.0000
  H   H846      1.0  0.14718  0.35498  0.83557  1.0000
  H   H847      1.0  0.14797  0.31159  0.84344  1.0000
  H   H848      1.0  0.13511  0.31379  0.83611  1.0000
  H   H849      1.0  0.13565  0.30379  0.85078  1.0000
  H   H850      1.0  0.11722  0.32725  0.83118  1.0000
  H   H851      1.0  0.13058  0.33314  0.82169  1.0000
  H   H852      1.0  0.11582  0.34228  0.82105  1.0000
  H   H853      1.0  0.09885  0.31983  0.92002  1.0000
  S   S185      1.0  0.11593  0.13696  0.74628  1.0000
  S   S186      1.0  0.00990  0.36992  0.81785  1.0000
  H   H854      1.0  0.20190  0.41088  0.86144  1.0000
  H   H855      1.0  0.08451  0.30485  0.91464  1.0000
  H   H856      1.0  0.07204  0.16100  0.85900  1.0000
  H   H857      1.0  0.10969  0.03544  0.79751  1.0000
  H   H858      1.0  0.14214  0.02077  0.85803  1.0000
  H   H859      1.0  0.08955  0.14691  0.82222  1.0000
  C   C552      1.0  0.15180  0.12682  0.78784  1.0000
  N   N36       1.0  0.04824  0.10179  0.81941  1.0000
  C   C553      1.0  0.03733  0.10209  0.83012  1.0000
  C   C554      1.0  0.05661  0.08932  0.82198  1.0000
  C   C555      1.0  0.04357  0.10330  0.80785  1.0000
  C   C556      1.0  0.05431  0.11227  0.81850  1.0000
  C   C557      1.0  0.02686  0.11361  0.82892  1.0000
  C   C558      1.0  0.06174  0.08617  0.83381  1.0000
  C   C559      1.0  0.05287  0.09843  0.79692  1.0000
  C   C560      1.0  0.06660  0.11302  0.80919  1.0000
  H   H860      1.0  0.03313  0.09392  0.83181  1.0000
  H   H861      1.0  0.04021  0.10163  0.83879  1.0000
  H   H862      1.0  0.06463  0.08814  0.81433  1.0000
  H   H863      1.0  0.05173  0.08192  0.82254  1.0000
  H   H864      1.0  0.03574  0.09853  0.80986  1.0000
  H   H865      1.0  0.03977  0.11314  0.80428  1.0000
  H   H866      1.0  0.04810  0.12127  0.81586  1.0000
  H   H867      1.0  0.05566  0.11263  0.82759  1.0000
  H   H868      1.0  0.03003  0.12199  0.82872  1.0000
  H   H869      1.0  0.02286  0.11497  0.82075  1.0000
  H   H870      1.0  0.01928  0.11254  0.83716  1.0000
  H   H871      1.0  0.06886  0.07750  0.83387  1.0000
  H   H872      1.0  0.06625  0.09337  0.83429  1.0000
  H   H873      1.0  0.05452  0.08451  0.84225  1.0000
  H   H874      1.0  0.04861  0.10155  0.78869  1.0000
  H   H875      1.0  0.05510  0.08820  0.79881  1.0000
  H   H876      1.0  0.06151  0.10188  0.79436  1.0000
  H   H877      1.0  0.06502  0.11800  0.79989  1.0000
  H   H878      1.0  0.07278  0.10397  0.80870  1.0000
  H   H879      1.0  0.07183  0.11816  0.81223  1.0000
  N   N37       1.0  0.11427  0.39291  0.89724  1.0000
  C   C561      1.0  0.11769  0.37914  0.90186  1.0000
  C   C562      1.0  0.11400  0.39898  0.90749  1.0000
  C   C563      1.0  0.12405  0.39658  0.88611  1.0000
  C   C564      1.0  0.10183  0.39581  0.89387  1.0000
  C   C565      1.0  0.12060  0.37102  0.89224  1.0000
  C   C566      1.0  0.10497  0.39544  0.91976  1.0000
  C   C567      1.0  0.12618  0.40984  0.88330  1.0000
  C   C568      1.0  0.09639  0.40942  0.88893  1.0000
  H   H880      1.0  0.12589  0.37673  0.90615  1.0000
  H   H881      1.0  0.11016  0.37583  0.90923  1.0000
  H   H882      1.0  0.11169  0.40916  0.90480  1.0000
  H   H883      1.0  0.12338  0.39682  0.90959  1.0000
  H   H884      1.0  0.13327  0.39055  0.88692  1.0000
  H   H885      1.0  0.12207  0.39524  0.87765  1.0000
  H   H886      1.0  0.10215  0.39097  0.88657  1.0000
  H   H887      1.0  0.09480  0.39210  0.90161  1.0000
  H   H888      1.0  0.12342  0.36124  0.89684  1.0000
  H   H889      1.0  0.11242  0.37162  0.88854  1.0000
  H   H890      1.0  0.12840  0.37311  0.88455  1.0000
  H   H891      1.0  0.09529  0.39757  0.91864  1.0000
  H   H892      1.0  0.10764  0.38562  0.92424  1.0000
  H   H893      1.0  0.10535  0.40088  0.92629  1.0000
  H   H894      1.0  0.11766  0.41694  0.88253  1.0000
  H   H895      1.0  0.13273  0.41141  0.87430  1.0000
  H   H896      1.0  0.13054  0.41116  0.89029  1.0000
  H   H897      1.0  0.10026  0.41221  0.87895  1.0000
  H   H898      1.0  0.09762  0.41578  0.89402  1.0000
  H   H899      1.0  0.08622  0.41063  0.89028  1.0000
  C   C569      1.0  0.14177  0.01104  0.85879  1.0000
  H   H900      1.0  0.15000  0.00529  0.86239  1.0000
  H   H901      1.0  0.11771  0.37539  0.97618  1.0000
  C   C570      1.0  0.07009  0.38294  0.96827  1.0000
  H   H902      1.0  0.20476  0.35301  0.92061  1.0000
  H   H903      1.0  0.18174  0.28814  0.90957  1.0000
  H   H904      1.0  0.05145  0.16781  0.79603  1.0000
  N   N38       1.0  0.06616  0.17772  0.79226  1.0000
  H   H905      1.0  0.07388  0.14639  0.82931  1.0000
  H   H906      1.0  0.03976  0.18639  0.79478  1.0000
  C   C571      1.0  0.99893  0.12356  0.88867  1.0000
  C   C572      1.0  0.06750  0.15418  0.79934  1.0000
  H   H907      1.0  0.07536  0.18692  0.76019  1.0000
  H   H908      1.0  0.06284  0.19750  0.79067  1.0000
  H   H909      1.0  0.22982  0.37711  0.88975  1.0000
  H   H910      1.0  0.07581  0.15234  0.80327  1.0000
  H   H911      1.0  0.10180  0.06291  0.78829  1.0000
  H   H912      1.0  0.08280  0.18892  0.77107  1.0000
  H   H913      1.0  0.23561  0.41668  0.79584  1.0000
  H   H914      1.0  0.11600  0.99058  0.88383  1.0000
  H   H915      1.0  0.00632  0.11616  0.89225  1.0000
  H   H916      1.0  0.13189  0.99727  0.86974  1.0000
  H   H917      1.0  0.01543  0.35196  0.84134  1.0000
  C   C573      1.0  0.07570  0.34303  0.98412  1.0000
  C   C574      1.0  0.06803  0.34880  0.90930  1.0000
  C   C575      1.0  0.10658  0.00891  0.84849  1.0000
  C   C576      1.0  0.10445  0.03448  0.85679  1.0000
  H   H918      1.0  0.07678  0.38846  0.96809  1.0000
  H   H919      1.0  0.08190  0.15826  0.83905  1.0000
  H   H920      1.0  0.12417  0.99902  0.85247  1.0000
  H   H921      1.0  0.09310  0.37006  0.98208  1.0000
  H   H922      1.0  0.09590  0.03250  0.86336  1.0000
  C   C577      1.0  0.22608  0.40447  0.81794  1.0000
  H   H923      1.0  0.10447  0.03349  0.84745  1.0000
  H   H924      1.0  0.09534  0.11851  0.84677  1.0000
  H   H925      1.0  0.20668  0.34829  0.88232  1.0000
  H   H926      1.0  0.23574  0.40818  0.83447  1.0000
  H   H927      1.0  0.06546  0.13681  0.84812  1.0000
  C   C578      1.0  0.09131  0.32011  0.90039  1.0000
  C   C579      1.0  0.08709  0.33451  0.92857  1.0000
  H   H928      1.0  0.10107  0.31549  0.90069  1.0000
  C   C580      1.0  0.07473  0.36907  0.97303  1.0000
  H   H929      1.0  0.20993  0.36712  0.91380  1.0000
  H   H930      1.0  0.20617  0.40715  0.82311  1.0000
  H   H931      1.0  0.14279  0.00923  0.84953  1.0000
  H   H932      1.0  0.11653  0.02971  0.86958  1.0000
  H   H933      1.0  0.19355  0.36700  0.91896  1.0000
  C   C581      1.0  0.20043  0.36838  0.88007  1.0000
  C   C582      1.0  0.18414  0.39137  0.88657  1.0000
  C   C583      1.0  0.20963  0.35681  0.87648  1.0000
  H   H934      1.0  0.18095  0.37426  0.89880  1.0000
  H   H935      1.0  0.19117  0.36679  0.88043  1.0000
  H   H936      1.0  0.20191  0.37614  0.87216  1.0000
  H   H937      1.0  0.18341  0.38922  0.87798  1.0000
  H   H938      1.0  0.17477  0.39610  0.89063  1.0000
  C   C584      1.0  0.22407  0.37237  0.88688  1.0000
  N   N39       1.0  0.16823  0.30385  0.90253  1.0000
  C   C585      1.0  0.16891  0.31569  0.89307  1.0000
  C   C586      1.0  0.18096  0.29570  0.90131  1.0000
  C   C587      1.0  0.16402  0.30623  0.91541  1.0000
  C   C588      1.0  0.15912  0.29779  0.90024  1.0000
  C   C589      1.0  0.15708  0.32587  0.89374  1.0000
  C   C590      1.0  0.18542  0.28974  0.88991  1.0000
  C   C591      1.0  0.15703  0.28557  0.90922  1.0000
  H   H939      1.0  0.17653  0.31979  0.89353  1.0000
  H   H940      1.0  0.17125  0.31392  0.88359  1.0000
  H   H941      1.0  0.18798  0.30100  0.90090  1.0000
  H   H942      1.0  0.15416  0.31094  0.91716  1.0000
  H   H943      1.0  0.16439  0.29740  0.92235  1.0000
  H   H944      1.0  0.14990  0.30397  0.90077  1.0000
  H   H945      1.0  0.16146  0.29629  0.89069  1.0000
  H   H946      1.0  0.15381  0.32850  0.90283  1.0000
  H   H947      1.0  0.15918  0.33429  0.88702  1.0000
  H   H948      1.0  0.14957  0.32337  0.89109  1.0000
  H   H949      1.0  0.19526  0.28501  0.88934  1.0000
  H   H950      1.0  0.18021  0.28260  0.89059  1.0000
  H   H951      1.0  0.18482  0.29661  0.88118  1.0000
  H   H952      1.0  0.14938  0.28733  0.91719  1.0000
  H   H953      1.0  0.06784  0.32944  0.91481  1.0000
  H   H954      1.0  0.07288  0.18399  0.81265  1.0000
  H   H955      1.0  0.08715  0.17315  0.81123  1.0000
  S   S187      1.0  0.06302  0.16648  0.75594  1.0000
  H   H956      1.0  0.24527  0.43537  0.79191  1.0000
  C   C592      1.0  0.06577  0.14238  0.85452  1.0000
  H   H957      1.0  0.09523  0.14646  0.84084  1.0000
  H   H958      1.0  0.09299  0.33058  0.93553  1.0000
  N   N40       1.0  0.08706  0.33052  0.90730  1.0000
  N   N41       1.0  0.08995  0.27352  0.85432  1.0000
  C   C593      1.0  0.08630  0.28698  0.84848  1.0000
  C   C594      1.0  0.10337  0.27114  0.85494  1.0000
  C   C595      1.0  0.08208  0.27135  0.86716  1.0000
  C   C596      1.0  0.08764  0.26601  0.84648  1.0000
  C   C597      1.0  0.07245  0.29200  0.84834  1.0000
  C   C598      1.0  0.11256  0.27258  0.84246  1.0000
  C   C599      1.0  0.08687  0.25994  0.87656  1.0000
  C   C600      1.0  0.09218  0.25193  0.84970  1.0000
  H   H959      1.0  0.08894  0.29285  0.85325  1.0000
  H   H960      1.0  0.09129  0.28902  0.83873  1.0000
  H   H961      1.0  0.10659  0.26180  0.86015  1.0000
  H   H962      1.0  0.10472  0.27738  0.86021  1.0000
  H   H963      1.0  0.08079  0.27935  0.87151  1.0000
  H   H964      1.0  0.07267  0.27068  0.86683  1.0000
  H   H965      1.0  0.07760  0.26746  0.84687  1.0000
  H   H966      1.0  0.09149  0.26925  0.83653  1.0000
  H   H967      1.0  0.06665  0.29140  0.85775  1.0000
  H   H968      1.0  0.07112  0.30195  0.84387  1.0000
  H   H969      1.0  0.06909  0.28740  0.84288  1.0000
  H   H970      1.0  0.11208  0.26634  0.83678  1.0000
  H   H971      1.0  0.11137  0.28226  0.83724  1.0000
  H   H972      1.0  0.12208  0.27001  0.84419  1.0000
  H   H973      1.0  0.08926  0.25124  0.87327  1.0000
  H   H974      1.0  0.07958  0.25886  0.88505  1.0000
  H   H975      1.0  0.09494  0.26112  0.87942  1.0000
  H   H976      1.0  0.08480  0.24740  0.85610  1.0000
  H   H977      1.0  0.10046  0.24906  0.85370  1.0000
  H   H978      1.0  0.09498  0.24818  0.84117  1.0000
  C   C601      1.0  0.15819  0.17478  0.87045  1.0000
  H   H979      1.0  0.00853  0.39399  0.84835  1.0000
  H   H980      1.0  0.08521  0.16849  0.79273  1.0000
  C   C602      1.0  0.02210  0.36274  0.87127  1.0000
  H   H981      1.0  0.15462  0.27965  0.90431  1.0000
  H   H982      1.0  0.04690  0.19497  0.78029  1.0000
  H   H983      1.0  0.05198  0.36446  0.98330  1.0000
  C   C603      1.0  0.07759  0.17519  0.80969  1.0000
  H   H984      1.0  0.06256  0.12738  0.87078  1.0000
  H   H985      1.0  0.17077  0.32324  0.91309  1.0000
  C   C604      1.0  0.05821  0.13702  0.86708  1.0000
  Fe  Fe94      1.0  0.13672  0.99712  0.81879  1.0000
  H   H986      1.0  0.08346  0.31858  0.92528  1.0000
  H   H987      1.0  0.09549  0.04457  0.79334  1.0000
  C   C605      1.0  0.17145  0.31380  0.91885  1.0000
  H   H988      1.0  0.07312  0.16766  0.81567  1.0000
  H   H989      1.0  0.16534  0.28008  0.91271  1.0000
  H   H990      1.0  0.15155  0.18010  0.87699  1.0000
  C   C606      1.0  0.08395  0.30971  0.90506  1.0000
  H   H991      1.0  0.04899  0.33206  0.84417  1.0000
  H   H992      1.0  0.04899  0.13683  0.86583  1.0000
  H   H993      1.0  0.18127  0.30913  0.91828  1.0000
  H   H994      1.0  0.10801  0.04039  0.78164  1.0000
  H   H995      1.0  0.21921  0.35651  0.87686  1.0000
  C   C607      1.0  0.11885  0.00870  0.85187  1.0000
  H   H996      1.0  0.15713  0.16503  0.87314  1.0000
  H   H997      1.0  0.16740  0.17509  0.87165  1.0000
  H   H998      1.0  0.08993  0.34325  0.92367  1.0000
  H   H999      1.0  0.08219  0.18465  0.79121  1.0000
  H   H1000     1.0  0.08614  0.13303  0.83214  1.0000
  C   C608      1.0  0.23815  0.41485  0.82577  1.0000
  C   C609      1.0  0.13005  0.00750  0.86781  1.0000
  H   H1001     1.0  0.22814  0.42776  0.80480  1.0000
  H   H1002     1.0  0.03162  0.34598  0.83563  1.0000
  H   H1003     1.0  0.03544  0.32563  0.87281  1.0000
  C   C610      1.0  0.07821  0.17640  0.79588  1.0000
  S   S188      1.0  0.22653  0.41013  0.86331  1.0000
  H   H1004     1.0  0.05552  0.18947  0.80478  1.0000
  C   C611      1.0  0.08514  0.14806  0.84148  1.0000
  H   H1005     1.0  0.16751  0.31484  0.92852  1.0000
  H   H1006     1.0  0.21232  0.41503  0.83067  1.0000
  N   N42       1.0  0.07879  0.14298  0.85440  1.0000
  N   N43       1.0  0.11802  0.01295  0.86348  1.0000
  H   H1007     1.0  0.21076  0.35341  0.89912  1.0000
  C   C612      1.0  0.07344  0.33545  0.90752  1.0000
  H   H1008     1.0  0.23632  0.43468  0.82443  1.0000
  C   C613      1.0  0.07793  0.15198  0.86226  1.0000
  H   H1009     1.0  0.07730  0.33638  0.93345  1.0000
  C   C614      1.0  0.18834  0.37968  0.89603  1.0000
  H   H1010     1.0  0.12958  0.01003  0.87667  1.0000
  C   C615      1.0  0.08935  0.32535  0.92016  1.0000
  H   H1011     1.0  0.07886  0.12000  0.85083  1.0000
  C   C616      1.0  0.05793  0.18973  0.79477  1.0000
  H   H1012     1.0  0.05303  0.32815  0.85919  1.0000
  H   H1013     1.0  0.12491  0.08190  0.79289  1.0000
  H   H1014     1.0  0.01469  0.33500  0.85938  1.0000
  H   H1015     1.0  0.23779  0.38790  0.85328  1.0000
  H   H1016     1.0  0.22737  0.37266  0.87685  1.0000
  H   H1017     1.0  0.09296  0.34332  0.89059  1.0000
  H   H1018     1.0  0.08405  0.36631  0.96739  1.0000
  C   C617      1.0  0.05975  0.16734  0.79953  1.0000
  H   H1019     1.0  0.05610  0.16819  0.80931  1.0000
  C   C618      1.0  0.10571  0.04314  0.79061  1.0000
  C   C619      1.0  0.04557  0.19334  0.79043  1.0000
  H   H1020     1.0  0.08807  0.30267  0.89928  1.0000
  H   H1021     1.0  0.09604  0.14648  0.86778  1.0000
  H   H1022     1.0  0.07416  0.31305  0.90425  1.0000
  C   C620      1.0  0.21333  0.41259  0.82170  1.0000
  Fe  Fe95      1.0  0.10734  0.15035  0.75892  1.0000
  H   H1023     1.0  0.08779  0.11111  0.86159  1.0000
  H   H1024     1.0  0.06176  0.14746  0.80504  1.0000
  Fe  Fe96      1.0  0.24681  0.41157  0.85807  1.0000
  H   H1025     1.0  0.07550  0.16898  0.77678  1.0000
  H   H1026     1.0  0.04023  0.20208  0.79325  1.0000
  H   H1027     1.0  0.06726  0.19731  0.77012  1.0000
  C   C621      1.0  0.10788  0.00880  0.87386  1.0000
  H   H1028     1.0  0.06023  0.17714  0.77615  1.0000
  H   H1029     1.0  0.05645  0.14280  0.87395  1.0000
  H   H1030     1.0  0.13059  0.07313  0.77444  1.0000
  H   H1031     1.0  0.14095  0.05235  0.78267  1.0000
  H   H1032     1.0  0.11210  0.07611  0.76141  1.0000
  H   H1033     1.0  0.10222  0.06498  0.76802  1.0000
  H   H1034     1.0  0.18820  0.38299  0.90434  1.0000
  H   H1035     1.0  0.20946  0.38697  0.88179  1.0000
  Fe  Fe97      1.0  0.08254  0.15586  0.75206  1.0000
  H   H1036     1.0  0.07020  0.15228  0.78992  1.0000
  H   H1037     1.0  0.07020  0.35067  0.91735  1.0000
  C   C622      1.0  0.09026  0.15463  0.86288  1.0000
  C   C623      1.0  0.12195  0.05727  0.76850  1.0000
  S   S189      1.0  0.11844  0.15273  0.77146  1.0000
  H   H1038     1.0  0.10744  0.01240  0.88211  1.0000
  H   H1039     1.0  0.10981  0.05497  0.79977  1.0000
  C   C624      1.0  0.11148  0.06636  0.76267  1.0000
  H   H1040     1.0  0.12176  0.04801  0.76744  1.0000
  H   H1041     1.0  0.14333  0.02971  0.78746  1.0000
  H   H1042     1.0  0.14034  0.03662  0.77243  1.0000
  C   C625      1.0  0.20225  0.36020  0.90178  1.0000
  C   C626      1.0  0.01939  0.35518  0.86335  1.0000
  C   C627      1.0  0.12273  0.07028  0.78177  1.0000
  C   C628      1.0  0.13247  0.04841  0.78613  1.0000
  C   C629      1.0  0.13617  0.03577  0.78240  1.0000
  H   H1043     1.0  0.11436  0.07725  0.77968  1.0000
  H   H1044     1.0  0.11684  0.07013  0.80172  1.0000
  C   C630      1.0  0.21047  0.37908  0.88973  1.0000
  H   H1045     1.0  0.11298  0.32904  0.89509  1.0000
  H   H1046     1.0  0.04050  0.17487  0.77227  1.0000
  C   C631      1.0  0.02403  0.33676  0.85464  1.0000
  C   C632      1.0  0.10961  0.05514  0.79014  1.0000
  N   N44       1.0  0.12159  0.05750  0.78165  1.0000
  C   C633      1.0  0.12459  0.07209  0.79396  1.0000
  H   H1047     1.0  0.13092  0.04656  0.79635  1.0000
  H   H1048     1.0  0.13340  0.06647  0.79641  1.0000
  H   H1049     1.0  0.20920  0.38370  0.89750  1.0000
  C   C634      1.0  0.09431  0.34032  0.90027  1.0000
  H   H1050     1.0  0.09102  0.32370  0.89044  1.0000
  H   H1051     1.0  0.09098  0.34879  0.90403  1.0000
  H   H1052     1.0  0.07128  0.33528  0.89869  1.0000
  H   H1053     1.0  0.11032  0.33450  0.90923  1.0000
  H   H1054     1.0  0.07113  0.35553  0.90089  1.0000
  H   H1055     1.0  0.11249  0.34477  0.89465  1.0000
  H   H1056     1.0  0.11231  0.06479  0.75333  1.0000
  C   C635      1.0  0.10831  0.33675  0.89987  1.0000
  H   H1057     1.0  0.05781  0.35058  0.91073  1.0000
  C   C636      1.0  0.20262  0.36216  0.91443  1.0000
  H   H1058     1.0  0.12847  0.03091  0.78481  1.0000
  H   H1059     1.0  0.15754  0.11873  0.79287  1.0000
  C   C637      1.0  0.11625  0.02679  0.86116  1.0000
  C   C638      1.0  0.02287  0.34357  0.84140  1.0000
  S   S190      1.0  0.09880  0.16508  0.74466  1.0000
  H   H1060     1.0  0.09593  0.13146  0.85873  1.0000
  H   H1061     1.0  0.12390  0.03004  0.85395  1.0000
  H   H1062     1.0  0.11128  0.99000  0.87021  1.0000
  H   H1063     1.0  0.09565  0.15803  0.85370  1.0000
  H   H1064     1.0  0.07346  0.14875  0.87198  1.0000
  H   H1065     1.0  0.01233  0.34153  0.88616  1.0000
  H   H1066     1.0  0.22577  0.40071  0.81004  1.0000
  H   H1067     1.0  0.08824  0.16205  0.86811  1.0000
  H   H1068     1.0  0.06049  0.15176  0.85109  1.0000
  H   H1069     1.0  0.20968  0.35673  0.86683  1.0000
  C   C639      1.0  0.08345  0.14315  0.83087  1.0000
  C   C640      1.0  0.08706  0.11962  0.85427  1.0000
  H   H1070     1.0  0.08294  0.12818  0.86992  1.0000
  H   H1071     1.0  0.22591  0.36276  0.89205  1.0000
  H   H1072     1.0  0.10428  0.04439  0.85595  1.0000
  H   H1073     1.0  0.10468  0.99948  0.85090  1.0000
  H   H1074     1.0  0.03001  0.32749  0.85417  1.0000
  H   H1075     1.0  0.04448  0.35047  0.86101  1.0000
  H   H1076     1.0  0.21120  0.42092  0.81454  1.0000
  H   H1077     1.0  0.22682  0.42742  0.83758  1.0000
  C   C641      1.0  0.04087  0.34649  0.85516  1.0000
  H   H1078     1.0  0.02023  0.33751  0.83684  1.0000
  H   H1079     1.0  0.12419  0.01421  0.84386  1.0000
  H   H1080     1.0  0.03997  0.35387  0.84680  1.0000
  H   H1081     1.0  0.06917  0.38439  0.95857  1.0000
  H   H1082     1.0  0.24416  0.38290  0.82340  1.0000
  H   H1083     1.0  0.14871  0.38181  0.97921  1.0000
  C   C642      1.0  0.02998  0.33492  0.87407  1.0000
  C   C643      1.0  0.05111  0.33569  0.85123  1.0000
  C   C644      1.0  0.10898  0.99471  0.87804  1.0000
  H   H1084     1.0  0.01220  0.32881  0.87964  1.0000
  H   H1085     1.0  0.02926  0.36804  0.86590  1.0000
  N   N45       1.0  0.02855  0.34334  0.86181  1.0000
  H   H1086     1.0  0.01902  0.36152  0.85425  1.0000
  H   H1087     1.0  0.05981  0.33911  0.84702  1.0000
  C   C645      1.0  0.01788  0.33290  0.88330  1.0000
  H   H1088     1.0  0.03547  0.33823  0.87875  1.0000
  S   S191      1.0  0.15324  0.99119  0.82757  1.0000
  H   H1089     1.0  0.01351  0.36925  0.87444  1.0000
  C   C646      1.0  0.23040  0.42773  0.82756  1.0000
  H   H1090     1.0  0.10004  0.99271  0.88383  1.0000
  H   H1091     1.0  0.22673  0.39648  0.82576  1.0000
  H   H1092     1.0  0.09840  0.01529  0.85242  1.0000
  S   S192      1.0  0.08881  0.14336  0.73868  1.0000
  H   H1093     1.0  0.00335  0.13150  0.88386  1.0000
  H   H1094     1.0  0.16023  0.36791  0.97976  1.0000
  H   H1095     1.0  0.06087  0.38650  0.97359  1.0000
  H   H1096     1.0  0.07925  0.34431  0.97402  1.0000
  H   H1097     1.0  0.00232  0.11714  0.87217  1.0000
  C   C647      1.0  0.23649  0.42040  0.80353  1.0000
  H   H1098     1.0  0.18105  0.36979  0.98367  1.0000
  H   H1099     1.0  0.99894  0.38600  0.83575  1.0000
  H   H1100     1.0  0.18650  0.35404  0.98352  1.0000
  H   H1101     1.0  0.04505  0.84518  0.13141  1.0000
  S   S193      1.0  0.23513  0.91062  0.10166  1.0000
  H   H1102     1.0  0.23866  0.88785  0.12225  1.0000
  Fe  Fe98      1.0  0.14112  0.76079  0.09335  1.0000
  S   S194      1.0  0.13040  0.77231  0.10719  1.0000
  S   S195      1.0  0.14459  0.74015  0.10043  1.0000
  Fe  Fe99      1.0  0.14337  0.78308  0.07255  1.0000
  S   S196      1.0  0.13236  0.79627  0.08458  1.0000
  S   S197      1.0  0.15311  0.79003  0.05315  1.0000
  Fe  Fe100     1.0  0.14367  0.78489  0.09832  1.0000
  S   S198      1.0  0.14871  0.79502  0.11008  1.0000
  Fe  Fe101     1.0  0.12002  0.78277  0.09249  1.0000
  S   S199      1.0  0.09972  0.78948  0.09882  1.0000
  S   S200      1.0  0.15561  0.77234  0.08588  1.0000
  S   S201      1.0  0.12975  0.77051  0.07904  1.0000
  H   H1103     1.0  0.10212  0.68005  0.19697  1.0000
  S   S202      1.0  0.15458  0.87850  0.99376  1.0000
  Fe  Fe102     1.0  0.13803  0.85136  0.01012  1.0000
  S   S203      1.0  0.14121  0.86365  0.02070  1.0000
  S   S204      1.0  0.12672  0.83694  0.01928  1.0000
  Fe  Fe103     1.0  0.13546  0.87894  0.00540  1.0000
  S   S205      1.0  0.12248  0.89680  0.00830  1.0000
  Fe  Fe104     1.0  0.15996  0.86220  0.00846  1.0000
  S   S206      1.0  0.17658  0.85867  0.01673  1.0000
  S   S207      1.0  0.13065  0.86679  0.99573  1.0000
  S   S208      1.0  0.15737  0.84835  0.99919  1.0000
  Fe  Fe105     1.0  0.08628  0.86873  0.09870  1.0000
  S   S209      1.0  0.09862  0.86782  0.08021  1.0000
  S   S210      1.0  0.09268  0.86522  0.11640  1.0000
  Fe  Fe106     1.0  0.06261  0.87685  0.08868  1.0000
  S   S211      1.0  0.07301  0.87691  0.06922  1.0000
  S   S212      1.0  0.04189  0.88360  0.09291  1.0000
  Fe  Fe107     1.0  0.08437  0.85912  0.07753  1.0000
  S   S213      1.0  0.09013  0.84361  0.06754  1.0000
  Fe  Fe108     1.0  0.08616  0.88562  0.07377  1.0000
  S   S214      1.0  0.09301  0.90236  0.06192  1.0000
  S   S215      1.0  0.07309  0.85835  0.09666  1.0000
  S   S216      1.0  0.07479  0.88723  0.09253  1.0000
  Fe  Fe109     1.0  0.19122  0.86834  0.09328  1.0000
  S   S217      1.0  0.19292  0.86284  0.07537  1.0000
  S   S218      1.0  0.20910  0.86902  0.09835  1.0000
  Fe  Fe110     1.0  0.16341  0.86858  0.10021  1.0000
  S   S219      1.0  0.16313  0.86321  0.08299  1.0000
  S   S220      1.0  0.14608  0.87283  0.11446  1.0000
  Fe  Fe111     1.0  0.18061  0.84970  0.08619  1.0000
  S   S221      1.0  0.18471  0.83112  0.08113  1.0000
  Fe  Fe112     1.0  0.17536  0.87672  0.07372  1.0000
  S   S222      1.0  0.17115  0.88998  0.05636  1.0000
  S   S223      1.0  0.18010  0.85398  0.10431  1.0000
  S   S224      1.0  0.17440  0.88331  0.09076  1.0000
  H   H1104     1.0  0.23659  0.90286  0.04650  1.0000
  S   S225      1.0  0.12455  0.51345  0.08441  1.0000
  H   H1105     1.0  0.21914  0.90297  0.12469  1.0000
  S   S226      1.0  0.00953  0.64923  0.12060  1.0000
  Fe  Fe113     1.0  0.01490  0.62957  0.15281  1.0000
  S   S227      1.0  0.02957  0.63805  0.13901  1.0000
  S   S228      1.0  0.01743  0.61807  0.17165  1.0000
  Fe  Fe114     1.0  0.01457  0.65468  0.13574  1.0000
  S   S229      1.0  0.01868  0.67288  0.13533  1.0000
  Fe  Fe115     1.0  0.02334  0.63173  0.12525  1.0000
  S   S230      1.0  0.03787  0.62307  0.11096  1.0000
  H   H1106     1.0  0.22448  0.88940  0.07206  1.0000
  S   S231      1.0  0.00960  0.62179  0.13924  1.0000
  Fe  Fe116     1.0  0.09283  0.62995  0.18949  1.0000
  C   C648      1.0  0.12497  0.64926  0.21956  1.0000
  S   S232      1.0  0.10540  0.62893  0.17115  1.0000
  Fe  Fe117     1.0  0.07562  0.64945  0.20237  1.0000
  H   H1107     1.0  0.01432  0.87630  0.08472  1.0000
  S   S233      1.0  0.06896  0.66983  0.20087  1.0000
  H   H1108     1.0  0.10007  0.68859  0.06666  1.0000
  C   C649      1.0  0.07846  0.61520  0.16661  1.0000
  Fe  Fe118     1.0  0.06834  0.62528  0.20538  1.0000
  S   S234      1.0  0.05260  0.61594  0.20729  1.0000
  S   S235      1.0  0.09561  0.64102  0.20151  1.0000
  S   S236      1.0  0.07332  0.63972  0.18888  1.0000
  Fe  Fe119     1.0  0.11553  0.57839  0.13993  1.0000
  S   S237      1.0  0.12891  0.57975  0.12188  1.0000
  S   S238      1.0  0.12038  0.57645  0.15813  1.0000
  Fe  Fe120     1.0  0.09441  0.57877  0.12866  1.0000
  S   S239      1.0  0.10597  0.58001  0.10942  1.0000
  S   S240      1.0  0.07438  0.57810  0.13620  1.0000
  Fe  Fe121     1.0  0.12042  0.56577  0.11839  1.0000
  S   S241      1.0  0.13459  0.54942  0.11253  1.0000
  Fe  Fe122     1.0  0.11364  0.59381  0.11446  1.0000
  S   S242      1.0  0.11699  0.61154  0.10124  1.0000
  S   S243      1.0  0.10818  0.56337  0.13719  1.0000
  S   S244      1.0  0.10086  0.59370  0.13290  1.0000
  Fe  Fe123     1.0  0.10559  0.67221  0.11975  1.0000
  S   S245      1.0  0.08560  0.67224  0.12844  1.0000
  S   S246      1.0  0.12071  0.65542  0.12302  1.0000
  Fe  Fe124     1.0  0.10037  0.69867  0.10540  1.0000
  S   S247      1.0  0.08005  0.70088  0.11266  1.0000
  S   S248      1.0  0.10716  0.71391  0.09038  1.0000
  Fe  Fe125     1.0  0.08498  0.69119  0.13085  1.0000
  S   S249      1.0  0.07385  0.70055  0.14624  1.0000
  Fe  Fe126     1.0  0.08247  0.68194  0.10957  1.0000
  S   S250      1.0  0.07038  0.67683  0.10011  1.0000
  S   S251      1.0  0.10527  0.69043  0.12390  1.0000
  S   S252      1.0  0.10242  0.68044  0.10068  1.0000
  H   H1109     1.0  0.08251  0.62069  0.15769  1.0000
  C   C650      1.0  0.11880  0.62349  0.10714  1.0000
  C   C651      1.0  0.12306  0.62110  0.11805  1.0000
  C   C652      1.0  0.12402  0.63094  0.12267  1.0000
  C   C653      1.0  0.12022  0.64317  0.11671  1.0000
  C   C654      1.0  0.11603  0.64551  0.10578  1.0000
  C   C655      1.0  0.11556  0.63570  0.10089  1.0000
  H   H1110     1.0  0.12571  0.61169  0.12282  1.0000
  H   H1111     1.0  0.12739  0.62910  0.13106  1.0000
  H   H1112     1.0  0.11328  0.65486  0.10099  1.0000
  H   H1113     1.0  0.11239  0.63757  0.09238  1.0000
  C   C656      1.0  0.07103  0.67814  0.18560  1.0000
  C   C657      1.0  0.07770  0.67241  0.17580  1.0000
  C   C658      1.0  0.07878  0.67922  0.16361  1.0000
  C   C659      1.0  0.07320  0.69175  0.16128  1.0000
  C   C660      1.0  0.06667  0.69746  0.17110  1.0000
  C   C661      1.0  0.06561  0.69068  0.18322  1.0000
  H   H1114     1.0  0.08212  0.66277  0.17758  1.0000
  H   H1115     1.0  0.08394  0.67479  0.15606  1.0000
  H   H1116     1.0  0.06235  0.70714  0.16932  1.0000
  H   H1117     1.0  0.06046  0.69514  0.19077  1.0000
  C   C662      1.0  0.11038  0.61424  0.16778  1.0000
  C   C663      1.0  0.11297  0.61317  0.15550  1.0000
  C   C664      1.0  0.11628  0.60154  0.15252  1.0000
  C   C665      1.0  0.11734  0.59092  0.16179  1.0000
  C   C666      1.0  0.11521  0.59195  0.17408  1.0000
  C   C667      1.0  0.11156  0.60363  0.17710  1.0000
  H   H1118     1.0  0.11207  0.62138  0.14833  1.0000
  H   H1119     1.0  0.11791  0.60082  0.14304  1.0000
  H   H1120     1.0  0.11602  0.58373  0.18128  1.0000
  H   H1121     1.0  0.10974  0.60445  0.18659  1.0000
  C   C668      1.0  0.02752  0.61845  0.18089  1.0000
  C   C669      1.0  0.03695  0.62522  0.17681  1.0000
  C   C670      1.0  0.04458  0.62499  0.18485  1.0000
  C   C671      1.0  0.04294  0.61775  0.19686  1.0000
  C   C672      1.0  0.03363  0.61096  0.20073  1.0000
  C   C673      1.0  0.02600  0.61133  0.19286  1.0000
  H   H1122     1.0  0.03847  0.63038  0.16745  1.0000
  H   H1123     1.0  0.05189  0.63009  0.18173  1.0000
  H   H1124     1.0  0.03232  0.60528  0.20991  1.0000
  H   H1125     1.0  0.01886  0.60598  0.19611  1.0000
  C   C674      1.0  0.03274  0.67455  0.12516  1.0000
  C   C675      1.0  0.04004  0.68161  0.12713  1.0000
  C   C676      1.0  0.05172  0.68220  0.11956  1.0000
  C   C677      1.0  0.05577  0.67633  0.10957  1.0000
  C   C678      1.0  0.04816  0.66989  0.10717  1.0000
  C   C679      1.0  0.03683  0.66866  0.11518  1.0000
  H   H1126     1.0  0.03676  0.68644  0.13463  1.0000
  H   H1127     1.0  0.05749  0.68735  0.12136  1.0000
  H   H1128     1.0  0.05103  0.66576  0.09919  1.0000
  H   H1129     1.0  0.03113  0.66336  0.11350  1.0000
  C   C680      1.0  0.04744  0.60986  0.11781  1.0000
  C   C681      1.0  0.04489  0.60551  0.13056  1.0000
  C   C682      1.0  0.05299  0.59543  0.13605  1.0000
  C   C683      1.0  0.06394  0.59002  0.12892  1.0000
  C   C684      1.0  0.06644  0.59425  0.11615  1.0000
  C   C685      1.0  0.05805  0.60400  0.11057  1.0000
  H   H1130     1.0  0.03667  0.60987  0.13620  1.0000
  H   H1131     1.0  0.05082  0.59192  0.14586  1.0000
  H   H1132     1.0  0.07477  0.58993  0.11057  1.0000
  H   H1133     1.0  0.05997  0.60726  0.10069  1.0000
  C   C686      1.0  0.12783  0.52399  0.09127  1.0000
  C   C687      1.0  0.13880  0.52149  0.09547  1.0000
  C   C688      1.0  0.14093  0.52968  0.10149  1.0000
  C   C689      1.0  0.13201  0.54029  0.10364  1.0000
  C   C690      1.0  0.12115  0.54299  0.09920  1.0000
  C   C691      1.0  0.11911  0.53488  0.09296  1.0000
  H   H1134     1.0  0.14568  0.51328  0.09402  1.0000
  H   H1135     1.0  0.14942  0.52762  0.10475  1.0000
  H   H1136     1.0  0.11426  0.55120  0.10071  1.0000
  H   H1137     1.0  0.11065  0.53692  0.08964  1.0000
  C   C692      1.0  0.03220  0.87364  0.10221  1.0000
  C   C693      1.0  0.01976  0.87861  0.10659  1.0000
  H   H1138     1.0  0.08020  0.71597  0.08241  1.0000
  H   H1139     1.0  0.15103  0.58733  0.11968  1.0000
  C   C694      1.0  0.02856  0.85320  0.11252  1.0000
  C   C695      1.0  0.03660  0.86091  0.10519  1.0000
  H   H1140     1.0  0.01633  0.88846  0.10433  1.0000
  H   H1141     1.0  0.08036  0.61330  0.10011  1.0000
  H   H1142     1.0  0.03195  0.84333  0.11466  1.0000
  H   H1143     1.0  0.04612  0.85699  0.10169  1.0000
  C   C696      1.0  0.10765  0.86745  0.11517  1.0000
  C   C697      1.0  0.11701  0.86611  0.10466  1.0000
  C   C698      1.0  0.12902  0.86735  0.10435  1.0000
  C   C699      1.0  0.13154  0.87036  0.11438  1.0000
  C   C700      1.0  0.12213  0.87175  0.12477  1.0000
  C   C701      1.0  0.11032  0.87014  0.12523  1.0000
  H   H1144     1.0  0.11510  0.86384  0.09691  1.0000
  H   H1145     1.0  0.13628  0.86602  0.09638  1.0000
  H   H1146     1.0  0.12400  0.87403  0.13257  1.0000
  H   H1147     1.0  0.10320  0.87111  0.13341  1.0000
  C   C702      1.0  0.17554  0.86821  0.02687  1.0000
  C   C703      1.0  0.18417  0.86502  0.03444  1.0000
  C   C704      1.0  0.18298  0.87184  0.04333  1.0000
  C   C705      1.0  0.17332  0.88208  0.04450  1.0000
  C   C706      1.0  0.16497  0.88560  0.03660  1.0000
  C   C707      1.0  0.16596  0.87856  0.02792  1.0000
  H   H1148     1.0  0.19157  0.85700  0.03368  1.0000
  H   H1149     1.0  0.18947  0.86905  0.04937  1.0000
  H   H1150     1.0  0.15754  0.89357  0.03740  1.0000
  H   H1151     1.0  0.15930  0.88111  0.02207  1.0000
  C   C708      1.0  0.11510  0.89817  0.02349  1.0000
  C   C709      1.0  0.11600  0.88810  0.03343  1.0000
  C   C710      1.0  0.10919  0.88928  0.04530  1.0000
  C   C711      1.0  0.10162  0.90059  0.04725  1.0000
  C   C712      1.0  0.10107  0.91075  0.03742  1.0000
  C   C713      1.0  0.10767  0.90951  0.02556  1.0000
  H   H1152     1.0  0.12166  0.87934  0.03197  1.0000
  H   H1153     1.0  0.10976  0.88143  0.05290  1.0000
  H   H1154     1.0  0.09532  0.91955  0.03892  1.0000
  H   H1155     1.0  0.10695  0.91734  0.01794  1.0000
  C   C714      1.0  0.14558  0.80311  0.04396  1.0000
  C   C715      1.0  0.15257  0.80925  0.03333  1.0000
  C   C716      1.0  0.14689  0.81987  0.02591  1.0000
  C   C717      1.0  0.13411  0.82407  0.02881  1.0000
  C   C718      1.0  0.12708  0.81779  0.03928  1.0000
  C   C719      1.0  0.13283  0.80746  0.04700  1.0000
  H   H1156     1.0  0.16244  0.80589  0.03096  1.0000
  H   H1157     1.0  0.15240  0.82466  0.01788  1.0000
  H   H1158     1.0  0.11718  0.82096  0.04145  1.0000
  H   H1159     1.0  0.12739  0.80271  0.05513  1.0000
  C   C720      1.0  0.15987  0.80408  0.10282  1.0000
  C   C721      1.0  0.16832  0.80177  0.09207  1.0000
  C   C722      1.0  0.17653  0.80968  0.08596  1.0000
  C   C723      1.0  0.17593  0.82023  0.09026  1.0000
  C   C724      1.0  0.16770  0.82235  0.10119  1.0000
  C   C725      1.0  0.15994  0.81408  0.10763  1.0000
  H   H1160     1.0  0.16849  0.79393  0.08842  1.0000
  H   H1161     1.0  0.18297  0.80792  0.07756  1.0000
  H   H1162     1.0  0.16731  0.83037  0.10466  1.0000
  H   H1163     1.0  0.15372  0.81565  0.11618  1.0000
  C   C726      1.0  0.09622  0.80438  0.09006  1.0000
  C   C727      1.0  0.10290  0.80725  0.07803  1.0000
  C   C728      1.0  0.10075  0.81931  0.07117  1.0000
  C   C729      1.0  0.09217  0.82861  0.07640  1.0000
  C   C730      1.0  0.08542  0.82578  0.08843  1.0000
  C   C731      1.0  0.08732  0.81359  0.09521  1.0000
  H   H1164     1.0  0.10969  0.80014  0.07398  1.0000
  H   H1165     1.0  0.10594  0.82147  0.06186  1.0000
  H   H1166     1.0  0.07862  0.83290  0.09242  1.0000
  H   H1167     1.0  0.08211  0.81134  0.10451  1.0000
  C   C732      1.0  0.13440  0.73275  0.09747  1.0000
  C   C733      1.0  0.13062  0.73626  0.08622  1.0000
  C   C734      1.0  0.12226  0.73041  0.08412  1.0000
  C   C735      1.0  0.11753  0.72113  0.09332  1.0000
  C   C736      1.0  0.12120  0.71772  0.10463  1.0000
  C   C737      1.0  0.12976  0.72338  0.10663  1.0000
  H   H1168     1.0  0.13424  0.74341  0.07907  1.0000
  H   H1169     1.0  0.11945  0.73311  0.07536  1.0000
  H   H1170     1.0  0.11741  0.71078  0.11186  1.0000
  H   H1171     1.0  0.13260  0.72071  0.11539  1.0000
  C   C738      1.0  0.22835  0.89922  0.09955  1.0000
  C   C739      1.0  0.21581  0.90222  0.09879  1.0000
  C   C740      1.0  0.20982  0.89321  0.09807  1.0000
  C   C741      1.0  0.21630  0.88106  0.09814  1.0000
  C   C742      1.0  0.22890  0.87814  0.09860  1.0000
  C   C743      1.0  0.23491  0.88715  0.09922  1.0000
  H   H1172     1.0  0.21064  0.91151  0.09905  1.0000
  H   H1173     1.0  0.20010  0.89557  0.09787  1.0000
  H   H1174     1.0  0.23402  0.86878  0.09862  1.0000
  H   H1175     1.0  0.18697  0.90386  0.07717  1.0000
  H   H1176     1.0  0.06142  0.71858  0.09501  1.0000
  H   H1177     1.0  0.07874  0.73298  0.05593  1.0000
  C   C744      1.0  0.14893  0.80904  0.99824  1.0000
  N   N46       1.0  0.11807  0.82601  0.11137  1.0000
  C   C745      1.0  0.12853  0.83268  0.10867  1.0000
  C   C746      1.0  0.11897  0.82123  0.10006  1.0000
  C   C747      1.0  0.11970  0.81541  0.12225  1.0000
  C   C748      1.0  0.10617  0.83507  0.11427  1.0000
  C   C749      1.0  0.13093  0.83633  0.11974  1.0000
  C   C750      1.0  0.11757  0.83105  0.08817  1.0000
  C   C751      1.0  0.11421  0.80416  0.12327  1.0000
  C   C752      1.0  0.09415  0.83038  0.11696  1.0000
  H   H1178     1.0  0.13733  0.82702  0.10454  1.0000
  H   H1179     1.0  0.12702  0.84137  0.10169  1.0000
  H   H1180     1.0  0.11201  0.81562  0.10141  1.0000
  H   H1181     1.0  0.12802  0.81481  0.09817  1.0000
  H   H1182     1.0  0.12968  0.81151  0.12217  1.0000
  H   H1183     1.0  0.11592  0.81868  0.13107  1.0000
  H   H1184     1.0  0.10582  0.83851  0.12255  1.0000
  H   H1185     1.0  0.10555  0.84358  0.10693  1.0000
  H   H1186     1.0  0.12293  0.84277  0.12394  1.0000
  H   H1187     1.0  0.13370  0.82822  0.12691  1.0000
  H   H1188     1.0  0.13876  0.84119  0.11643  1.0000
  H   H1189     1.0  0.10832  0.83723  0.08910  1.0000
  H   H1190     1.0  0.12488  0.83650  0.08514  1.0000
  H   H1191     1.0  0.11848  0.82629  0.08063  1.0000
  H   H1192     1.0  0.11518  0.79772  0.13221  1.0000
  H   H1193     1.0  0.11945  0.79893  0.11599  1.0000
  H   H1194     1.0  0.10432  0.80660  0.12293  1.0000
  H   H1195     1.0  0.09186  0.82561  0.12674  1.0000
  H   H1196     1.0  0.09439  0.82428  0.11089  1.0000
  H   H1197     1.0  0.08651  0.83835  0.11503  1.0000
  N   N47       1.0  0.15936  0.83296  0.05450  1.0000
  C   C753      1.0  0.16929  0.82256  0.05007  1.0000
  C   C754      1.0  0.15484  0.82874  0.06810  1.0000
  C   C755      1.0  0.16531  0.84376  0.05243  1.0000
  C   C756      1.0  0.14927  0.83604  0.04735  1.0000
  C   C757      1.0  0.17627  0.82541  0.03655  1.0000
  C   C758      1.0  0.14982  0.81684  0.07190  1.0000
  C   C759      1.0  0.15692  0.85542  0.05644  1.0000
  C   C760      1.0  0.13633  0.84272  0.05320  1.0000
  H   H1198     1.0  0.17635  0.81930  0.05595  1.0000
  H   H1199     1.0  0.16537  0.81441  0.05087  1.0000
  H   H1200     1.0  0.14752  0.83575  0.07222  1.0000
  H   H1201     1.0  0.16237  0.82732  0.07301  1.0000
  H   H1202     1.0  0.17327  0.84107  0.05715  1.0000
  H   H1203     1.0  0.16916  0.84679  0.04251  1.0000
  H   H1204     1.0  0.15215  0.84156  0.03798  1.0000
  H   H1205     1.0  0.14777  0.82740  0.04597  1.0000
  H   H1206     1.0  0.18186  0.81665  0.03394  1.0000
  H   H1207     1.0  0.16996  0.82960  0.03005  1.0000
  H   H1208     1.0  0.18286  0.83142  0.03531  1.0000
  H   H1209     1.0  0.15725  0.80860  0.07062  1.0000
  H   H1210     1.0  0.14570  0.81542  0.08189  1.0000
  H   H1211     1.0  0.14262  0.81729  0.06687  1.0000
  H   H1212     1.0  0.16274  0.86196  0.05580  1.0000
  H   H1213     1.0  0.15193  0.85375  0.06614  1.0000
  H   H1214     1.0  0.15053  0.86008  0.05008  1.0000
  C   C761      1.0  0.14231  0.82235  0.99363  1.0000
  H   H1215     1.0  0.21136  0.87687  0.05227  1.0000
  H   H1216     1.0  0.00849  0.59046  0.16668  1.0000
  N   N48       1.0  0.09051  0.86921  0.02766  1.0000
  C   C762      1.0  0.07889  0.87899  0.02935  1.0000
  C   C763      1.0  0.08743  0.85821  0.02521  1.0000
  C   C764      1.0  0.10013  0.87379  0.01695  1.0000
  C   C765      1.0  0.09563  0.86584  0.03916  1.0000
  C   C766      1.0  0.08054  0.89151  0.03063  1.0000
  C   C767      1.0  0.07984  0.85058  0.03628  1.0000
  C   C768      1.0  0.09597  0.87915  0.00456  1.0000
  C   C769      1.0  0.10741  0.85565  0.03933  1.0000
  H   H1217     1.0  0.07401  0.88081  0.02168  1.0000
  H   H1218     1.0  0.07223  0.87578  0.03781  1.0000
  H   H1219     1.0  0.09594  0.85175  0.02168  1.0000
  H   H1220     1.0  0.08208  0.86113  0.01777  1.0000
  H   H1221     1.0  0.10383  0.88088  0.01899  1.0000
  H   H1222     1.0  0.10828  0.86620  0.01530  1.0000
  H   H1223     1.0  0.09814  0.87391  0.04062  1.0000
  H   H1224     1.0  0.08857  0.86355  0.04759  1.0000
  H   H1225     1.0  0.08700  0.89578  0.02267  1.0000
  H   H1226     1.0  0.07148  0.89807  0.03113  1.0000
  H   H1227     1.0  0.08354  0.89075  0.03926  1.0000
  H   H1228     1.0  0.07732  0.84340  0.03311  1.0000
  H   H1229     1.0  0.08529  0.84564  0.04343  1.0000
  H   H1230     1.0  0.07115  0.85625  0.04047  1.0000
  H   H1231     1.0  0.09330  0.87215  0.00130  1.0000
  H   H1232     1.0  0.15755  0.60403  0.13946  1.0000
  H   H1233     1.0  0.08838  0.88738  0.00496  1.0000
  H   H1234     1.0  0.11562  0.85902  0.03332  1.0000
  H   H1235     1.0  0.10652  0.84738  0.03670  1.0000
  H   H1236     1.0  0.10896  0.85236  0.04887  1.0000
  H   H1237     1.0  0.15143  0.67827  0.07783  1.0000
  H   H1238     1.0  0.12428  0.69119  0.08591  1.0000
  N   N49       1.0  0.09573  0.75273  0.11718  1.0000
  C   C770      1.0  0.10210  0.75534  0.12590  1.0000
  C   C771      1.0  0.08364  0.76194  0.11726  1.0000
  C   C772      1.0  0.09404  0.73958  0.12156  1.0000
  C   C773      1.0  0.11517  0.74747  0.12657  1.0000
  C   C774      1.0  0.07419  0.76098  0.12960  1.0000
  C   C775      1.0  0.08637  0.73525  0.11494  1.0000
  H   H1239     1.0  0.09667  0.75384  0.13550  1.0000
  H   H1240     1.0  0.07881  0.76138  0.11032  1.0000
  H   H1241     1.0  0.10315  0.73308  0.12057  1.0000
  H   H1242     1.0  0.09020  0.73742  0.13165  1.0000
  H   H1243     1.0  0.12158  0.74828  0.11749  1.0000
  H   H1244     1.0  0.11503  0.73762  0.13066  1.0000
  H   H1245     1.0  0.07729  0.76355  0.13678  1.0000
  H   H1246     1.0  0.06545  0.76763  0.12821  1.0000
  H   H1247     1.0  0.09227  0.73179  0.10672  1.0000
  H   H1248     1.0  0.07842  0.74234  0.11228  1.0000
  H   H1249     1.0  0.08227  0.72758  0.12136  1.0000
  N   N50       1.0  0.07670  0.59267  0.17696  1.0000
  C   C776      1.0  0.07845  0.59521  0.18858  1.0000
  C   C777      1.0  0.08274  0.60139  0.16623  1.0000
  C   C778      1.0  0.08339  0.57961  0.17627  1.0000
  C   C779      1.0  0.06307  0.59430  0.17763  1.0000
  C   C780      1.0  0.07384  0.58660  0.20076  1.0000
  C   C781      1.0  0.08331  0.57506  0.16485  1.0000
  C   C782      1.0  0.05873  0.59764  0.16530  1.0000
  H   H1250     1.0  0.08836  0.59492  0.18805  1.0000
  H   H1251     1.0  0.07344  0.60465  0.18980  1.0000
  H   H1252     1.0  0.08165  0.60041  0.15727  1.0000
  H   H1253     1.0  0.09325  0.57831  0.17676  1.0000
  H   H1254     1.0  0.07937  0.57293  0.18422  1.0000
  H   H1255     1.0  0.05968  0.58590  0.18326  1.0000
  H   H1256     1.0  0.05787  0.60187  0.18246  1.0000
  H   H1257     1.0  0.06414  0.58593  0.20179  1.0000
  H   H1258     1.0  0.07992  0.57730  0.20177  1.0000
  H   H1259     1.0  0.07409  0.59047  0.20857  1.0000
  H   H1260     1.0  0.08930  0.56572  0.16512  1.0000
  H   H1261     1.0  0.08715  0.58090  0.15613  1.0000
  H   H1262     1.0  0.07395  0.57411  0.16480  1.0000
  H   H1263     1.0  0.05028  0.59396  0.16680  1.0000
  H   H1264     1.0  0.06540  0.59383  0.15769  1.0000
  H   H1265     1.0  0.05574  0.60777  0.16237  1.0000
  N   N51       1.0  0.04836  0.86771  0.13618  1.0000
  C   C783      1.0  0.05617  0.85478  0.13742  1.0000
  C   C784      1.0  0.05084  0.87351  0.14541  1.0000
  C   C785      1.0  0.05282  0.87468  0.12336  1.0000
  C   C786      1.0  0.04714  0.86726  0.15907  1.0000
  C   C787      1.0  0.04635  0.88829  0.11997  1.0000
  H   H1266     1.0  0.06617  0.85502  0.13548  1.0000
  H   H1267     1.0  0.05404  0.84942  0.14699  1.0000
  H   H1268     1.0  0.04617  0.88331  0.14461  1.0000
  H   H1269     1.0  0.06085  0.87367  0.14354  1.0000
  H   H1270     1.0  0.06290  0.87442  0.12170  1.0000
  H   H1271     1.0  0.05395  0.85870  0.16162  1.0000
  H   H1272     1.0  0.04713  0.87355  0.16496  1.0000
  H   H1273     1.0  0.03779  0.86522  0.16143  1.0000
  C   C788      1.0  0.04151  0.68174  0.17050  1.0000
  H   H1274     1.0  0.05098  0.89234  0.11059  1.0000
  H   H1275     1.0  0.04699  0.89401  0.12607  1.0000
  H   H1276     1.0  0.02015  0.87592  0.15146  1.0000
  N   N52       1.0  0.12903  0.89984  0.07322  1.0000
  C   C789      1.0  0.11730  0.90688  0.07991  1.0000
  C   C790      1.0  0.13395  0.90828  0.06153  1.0000
  C   C791      1.0  0.13876  0.89529  0.08093  1.0000
  C   C792      1.0  0.12611  0.88890  0.07052  1.0000
  C   C793      1.0  0.11162  0.89995  0.09272  1.0000
  C   C794      1.0  0.12585  0.91274  0.05175  1.0000
  C   C795      1.0  0.14163  0.90507  0.08615  1.0000
  C   C796      1.0  0.13651  0.88158  0.06208  1.0000
  H   H1277     1.0  0.11864  0.91578  0.08094  1.0000
  H   H1278     1.0  0.10994  0.90949  0.07447  1.0000
  H   H1279     1.0  0.14333  0.90387  0.05705  1.0000
  H   H1280     1.0  0.13520  0.91676  0.06359  1.0000
  H   H1281     1.0  0.13632  0.88778  0.08882  1.0000
  H   H1282     1.0  0.14770  0.89108  0.07554  1.0000
  H   H1283     1.0  0.12364  0.88216  0.07919  1.0000
  H   H1284     1.0  0.11783  0.89172  0.06633  1.0000
  H   H1285     1.0  0.10340  0.90625  0.09691  1.0000
  H   H1286     1.0  0.10829  0.89195  0.09206  1.0000
  H   H1287     1.0  0.11802  0.89688  0.09919  1.0000
  H   H1288     1.0  0.12469  0.90506  0.04831  1.0000
  H   H1289     1.0  0.11666  0.91822  0.05513  1.0000
  H   H1290     1.0  0.13046  0.91885  0.04365  1.0000
  H   H1291     1.0  0.14558  0.91219  0.07874  1.0000
  H   H1292     1.0  0.14869  0.90045  0.09183  1.0000
  H   H1293     1.0  0.13349  0.90944  0.09233  1.0000
  H   H1294     1.0  0.13876  0.88703  0.05262  1.0000
  H   H1295     1.0  0.13332  0.87353  0.06130  1.0000
  H   H1296     1.0  0.14501  0.87804  0.06584  1.0000
  C   C797      1.0  0.23670  0.88187  0.13157  1.0000
  C   C798      1.0  0.22896  0.90677  0.13638  1.0000
  H   H1297     1.0  0.15910  0.80764  0.99554  1.0000
  H   H1298     1.0  0.12154  0.84157  0.99348  1.0000
  H   H1299     1.0  0.22023  0.86287  0.15256  1.0000
  H   H1300     1.0  0.12992  0.64272  0.21340  1.0000
  H   H1301     1.0  0.01493  0.83817  0.08475  1.0000
  H   H1302     1.0  0.22629  0.88002  0.04597  1.0000
  N   N53       1.0  0.07627  0.63302  0.11908  1.0000
  C   C799      1.0  0.06473  0.63925  0.12679  1.0000
  C   C800      1.0  0.07999  0.64235  0.10760  1.0000
  C   C801      1.0  0.08667  0.62839  0.12592  1.0000
  C   C802      1.0  0.07358  0.62216  0.11601  1.0000
  C   C803      1.0  0.06027  0.63161  0.13964  1.0000
  C   C804      1.0  0.07249  0.64488  0.09753  1.0000
  C   C805      1.0  0.08986  0.63814  0.13090  1.0000
  C   C806      1.0  0.08412  0.61532  0.10717  1.0000
  H   H1303     1.0  0.06586  0.64813  0.12809  1.0000
  H   H1304     1.0  0.05688  0.64189  0.12196  1.0000
  H   H1305     1.0  0.08988  0.63971  0.10325  1.0000
  H   H1306     1.0  0.07929  0.65136  0.10992  1.0000
  H   H1307     1.0  0.08488  0.62053  0.13371  1.0000
  H   H1308     1.0  0.09525  0.62440  0.11990  1.0000
  H   H1309     1.0  0.07134  0.61512  0.12451  1.0000
  H   H1310     1.0  0.06509  0.62488  0.11214  1.0000
  H   H1311     1.0  0.06737  0.62844  0.14529  1.0000
  H   H1312     1.0  0.05245  0.63754  0.14476  1.0000
  H   H1313     1.0  0.05688  0.62362  0.13902  1.0000
  H   H1314     1.0  0.06246  0.64597  0.10135  1.0000
  H   H1315     1.0  0.07414  0.65348  0.09080  1.0000
  H   H1316     1.0  0.07543  0.63736  0.09233  1.0000
  H   H1317     1.0  0.09791  0.63383  0.13533  1.0000
  H   H1318     1.0  0.08222  0.64179  0.13801  1.0000
  H   H1319     1.0  0.09252  0.64586  0.12340  1.0000
  H   H1320     1.0  0.08869  0.60644  0.11228  1.0000
  H   H1321     1.0  0.09130  0.62061  0.10203  1.0000
  H   H1322     1.0  0.13104  0.68535  0.07225  1.0000
  H   H1323     1.0  0.07194  0.75170  0.13297  1.0000
  C   C807      1.0  0.16476  0.57163  0.11581  1.0000
  H   H1324     1.0  0.09283  0.59911  0.16558  1.0000
  H   H1325     1.0  0.10290  0.76522  0.12341  1.0000
  H   H1326     1.0  0.02835  0.88680  0.14030  1.0000
  H   H1327     1.0  0.16526  0.67341  0.09079  1.0000
  H   H1328     1.0  0.15597  0.69635  0.08146  1.0000
  H   H1329     1.0  0.14516  0.82844  0.99801  1.0000
  C   C808      1.0  0.14316  0.67992  0.08533  1.0000
  C   C809      1.0  0.13303  0.68930  0.07920  1.0000
  C   C810      1.0  0.02506  0.87823  0.14173  1.0000
  H   H1330     1.0  0.13981  0.67111  0.08862  1.0000
  H   H1331     1.0  0.16378  0.65465  0.10749  1.0000
  H   H1332     1.0  0.06829  0.61815  0.16819  1.0000
  H   H1333     1.0  0.05170  0.87030  0.11630  1.0000
  C   C811      1.0  0.23662  0.89530  0.05479  1.0000
  C   C812      1.0  0.00602  0.87706  0.08105  1.0000
  H   H1334     1.0  0.99845  0.61241  0.16361  1.0000
  N   N54       1.0  0.00500  0.86456  0.07995  1.0000
  Fe  Fe127     1.0  0.15025  0.86484  0.98545  1.0000
  H   H1335     1.0  0.08195  0.61748  0.17370  1.0000
  C   C813      1.0  0.15757  0.67386  0.09903  1.0000
  C   C814      1.0  0.14981  0.69596  0.09077  1.0000
  H   H1336     1.0  0.14142  0.70326  0.08952  1.0000
  H   H1337     1.0  0.13596  0.69807  0.07423  1.0000
  C   C815      1.0  0.03500  0.86698  0.13820  1.0000
  N   N55       1.0  0.14651  0.68343  0.09565  1.0000
  C   C816      1.0  0.15530  0.66066  0.10458  1.0000
  H   H1338     1.0  0.14775  0.66030  0.11289  1.0000
  H   H1339     1.0  0.15093  0.70066  0.10791  1.0000
  H   H1340     1.0  0.16612  0.58896  0.11870  1.0000
  H   H1341     1.0  0.16153  0.67625  0.10568  1.0000
  H   H1342     1.0  0.13238  0.82253  0.99779  1.0000
  H   H1343     1.0  0.08533  0.77151  0.11451  1.0000
  H   H1344     1.0  0.11915  0.75081  0.13262  1.0000
  C   C817      1.0  0.15634  0.70032  0.09850  1.0000
  H   H1345     1.0  0.15739  0.70994  0.09409  1.0000
  H   H1346     1.0  0.22520  0.91684  0.13394  1.0000
  H   H1347     1.0  0.09251  0.71689  0.06293  1.0000
  H   H1348     1.0  0.15331  0.65653  0.09780  1.0000
  H   H1349     1.0  0.24457  0.88470  0.09969  1.0000
  H   H1350     1.0  0.24084  0.88635  0.05199  1.0000
  C   C818      1.0  0.10047  0.69780  0.06767  1.0000
  H   H1351     1.0  0.06817  0.73256  0.07075  1.0000
  C   C819      1.0  0.05461  0.84669  0.12933  1.0000
  H   H1352     1.0  0.03298  0.85889  0.14564  1.0000
  C   C820      1.0  0.13543  0.68381  0.10616  1.0000
  H   H1353     1.0  0.12806  0.69191  0.10376  1.0000
  H   H1354     1.0  0.13103  0.67584  0.10758  1.0000
  H   H1355     1.0  0.23668  0.86729  0.12234  1.0000
  C   C821      1.0  0.16942  0.57899  0.14065  1.0000
  H   H1356     1.0  0.99748  0.89191  0.09100  1.0000
  C   C822      1.0  0.00733  0.85552  0.09164  1.0000
  C   C823      1.0  0.21245  0.90185  0.04602  1.0000
  H   H1357     1.0  0.16580  0.69479  0.09872  1.0000
  H   H1358     1.0  0.11085  0.65268  0.20908  1.0000
  H   H1359     1.0  0.05741  0.85042  0.11941  1.0000
  H   H1360     1.0  0.01791  0.88042  0.13610  1.0000
  C   C824      1.0  0.13086  0.50893  0.13146  1.0000
  C   C825      1.0  0.11805  0.50130  0.12190  1.0000
  H   H1361     1.0  0.23815  0.90506  0.13019  1.0000
  H   H1362     1.0  0.10063  0.52104  0.12932  1.0000
  H   H1363     1.0  0.08026  0.70023  0.08745  1.0000
  H   H1364     1.0  0.14133  0.60883  0.14056  1.0000
  H   H1365     1.0  0.17335  0.56555  0.11827  1.0000
  C   C826      1.0  0.13737  0.68421  0.11887  1.0000
  H   H1366     1.0  0.14700  0.68155  0.12005  1.0000
  H   H1367     1.0  0.21066  0.91140  0.04756  1.0000
  H   H1368     1.0  0.03319  0.86521  0.12982  1.0000
  C   C827      1.0  0.11119  0.67764  0.19970  1.0000
  H   H1369     1.0  0.13241  0.67767  0.12616  1.0000
  H   H1370     1.0  0.13345  0.69356  0.12088  1.0000
  H   H1371     1.0  0.11137  0.74625  0.10356  1.0000
  H   H1372     1.0  0.06071  0.83746  0.13129  1.0000
  H   H1373     1.0  0.19312  0.91211  0.06243  1.0000
  C   C828      1.0  0.10396  0.75454  0.10450  1.0000
  C   C829      1.0  0.19571  0.90502  0.07045  1.0000
  C   C830      1.0  0.06212  0.71164  0.08958  1.0000
  H   H1374     1.0  0.10384  0.88224  0.99750  1.0000
  C   C831      1.0  0.09034  0.70813  0.06251  1.0000
  H   H1375     1.0  0.06252  0.73740  0.05681  1.0000
  H   H1376     1.0  0.20113  0.90847  0.07503  1.0000
  H   H1377     1.0  0.20406  0.88603  0.07584  1.0000
  H   H1378     1.0  0.10522  0.75715  0.08486  1.0000
  H   H1379     1.0  0.10424  0.68482  0.21632  1.0000
  S   S253      1.0  0.08785  0.61453  0.20509  1.0000
  C   C832      1.0  0.99950  0.59369  0.16371  1.0000
  C   C833      1.0  0.21999  0.89976  0.13451  1.0000
  H   H1380     1.0  0.24310  0.88315  0.13674  1.0000
  H   H1381     1.0  0.21704  0.86832  0.07324  1.0000
  H   H1382     1.0  0.10965  0.69962  0.06243  1.0000
  H   H1383     1.0  0.03663  0.88916  0.11945  1.0000
  H   H1384     1.0  0.19580  0.88892  0.06406  1.0000
  H   H1385     1.0  0.11917  0.67543  0.21517  1.0000
  C   C834      1.0  0.20245  0.89246  0.06707  1.0000
  N   N56       1.0  0.07717  0.70742  0.06894  1.0000
  H   H1386     1.0  0.01618  0.85585  0.09364  1.0000
  H   H1387     1.0  0.23929  0.86151  0.13788  1.0000
  C   C835      1.0  0.11100  0.53035  0.13550  1.0000
  H   H1388     1.0  0.21735  0.87077  0.13430  1.0000
  H   H1389     1.0  0.13007  0.83611  0.05733  1.0000
  H   H1390     1.0  0.20185  0.90803  0.03155  1.0000
  H   H1391     1.0  0.03069  0.85108  0.07699  1.0000
  C   C836      1.0  0.02800  0.85907  0.06967  1.0000
  H   H1392     1.0  0.11587  0.68543  0.19487  1.0000
  H   H1393     1.0  0.15958  0.55953  0.13756  1.0000
  C   C837      1.0  0.09785  0.75753  0.09331  1.0000
  H   H1394     1.0  0.10880  0.76221  0.10304  1.0000
  C   C838      1.0  0.15351  0.56716  0.14187  1.0000
  C   C839      1.0  0.07546  0.70879  0.08202  1.0000
  N   N57       1.0  0.21436  0.89244  0.05763  1.0000
  H   H1395     1.0  0.10014  0.69766  0.07741  1.0000
  H   H1396     1.0  0.09219  0.75091  0.09382  1.0000
  H   H1397     1.0  0.09182  0.70812  0.05254  1.0000
  H   H1398     1.0  0.14670  0.80697  0.00847  1.0000
  H   H1399     1.0  0.22037  0.90502  0.06489  1.0000
  H   H1400     1.0  0.11233  0.50717  0.15119  1.0000
  S   S254      1.0  0.06902  0.63579  0.21919  1.0000
  C   C840      1.0  0.22358  0.89558  0.06296  1.0000
  H   H1401     1.0  0.09977  0.50923  0.11709  1.0000
  C   C841      1.0  0.08315  0.65862  0.22810  1.0000
  H   H1402     1.0  0.06310  0.65426  0.15079  1.0000
  H   H1403     1.0  0.09224  0.76708  0.09208  1.0000
  H   H1404     1.0  0.00209  0.87478  0.11701  1.0000
  H   H1405     1.0  0.02454  0.65155  0.17389  1.0000
  N   N58       1.0  0.03970  0.66893  0.17148  1.0000
  H   H1406     1.0  0.07930  0.69283  0.05933  1.0000
  C   C842      1.0  0.24097  0.86857  0.12940  1.0000
  H   H1407     1.0  0.00987  0.83633  0.10103  1.0000
  H   H1408     1.0  0.01309  0.85235  0.06708  1.0000
  H   H1409     1.0  0.05977  0.70324  0.09625  1.0000
  C   C843      1.0  0.06978  0.73080  0.06138  1.0000
  H   H1410     1.0  0.07104  0.71642  0.05191  1.0000
  H   H1411     1.0  0.08015  0.68754  0.07510  1.0000
  H   H1412     1.0  0.02098  0.67520  0.16854  1.0000
  C   C844      1.0  0.05761  0.66306  0.15335  1.0000
  H   H1413     1.0  0.03207  0.67418  0.15489  1.0000
  H   H1414     1.0  0.19280  0.90295  0.04626  1.0000
  C   C845      1.0  0.06895  0.71754  0.06163  1.0000
  C   C846      1.0  0.07523  0.69500  0.06864  1.0000
  N   N59       1.0  0.10423  0.66535  0.22169  1.0000
  C   C847      1.0  0.01169  0.87088  0.11376  1.0000
  H   H1415     1.0  0.01298  0.86805  0.06046  1.0000
  C   C848      1.0  0.21890  0.87985  0.05446  1.0000
  C   C849      1.0  0.05176  0.66058  0.16720  1.0000
  C   C850      1.0  0.00767  0.84190  0.09209  1.0000
  H   H1416     1.0  0.13212  0.84938  0.04577  1.0000
  H   H1417     1.0  0.05085  0.66648  0.14731  1.0000
  H   H1418     1.0  0.12994  0.65693  0.21641  1.0000
  H   H1419     1.0  0.12041  0.53211  0.13392  1.0000
  H   H1420     1.0  0.05104  0.65072  0.17007  1.0000
  H   H1421     1.0  0.03561  0.65153  0.15930  1.0000
  H   H1422     1.0  0.22858  0.88534  0.15474  1.0000
  H   H1423     1.0  0.06391  0.66957  0.15118  1.0000
  C   C851      1.0  0.02746  0.65696  0.16455  1.0000
  C   C852      1.0  0.02991  0.66949  0.16466  1.0000
  C   C853      1.0  0.22183  0.88207  0.15162  1.0000
  C   C854      1.0  0.11057  0.52100  0.12819  1.0000
  H   H1424     1.0  0.11374  0.52498  0.11829  1.0000
  H   H1425     1.0  0.19748  0.89453  0.13573  1.0000
  C   C855      1.0  0.06181  0.69322  0.07179  1.0000
  H   H1426     1.0  0.05668  0.69531  0.08082  1.0000
  H   H1427     1.0  0.04458  0.69912  0.15835  1.0000
  H   H1428     1.0  0.19610  0.87989  0.13442  1.0000
  H   H1429     1.0  0.05893  0.66102  0.17189  1.0000
  H   H1430     1.0  0.05910  0.71706  0.06492  1.0000
  H   H1431     1.0  0.01975  0.65856  0.15978  1.0000
  H   H1432     1.0  0.17261  0.58779  0.13639  1.0000
  C   C856      1.0  0.04197  0.69064  0.15783  1.0000
  C   C857      1.0  0.14774  0.58913  0.14155  1.0000
  H   H1433     1.0  0.06196  0.68335  0.07246  1.0000
  H   H1434     1.0  0.05670  0.69857  0.06447  1.0000
  H   H1435     1.0  0.03390  0.68661  0.17692  1.0000
  H   H1436     1.0  0.03278  0.69359  0.15531  1.0000
  C   C858      1.0  0.20114  0.88449  0.13834  1.0000
  H   H1437     1.0  0.10668  0.49440  0.11391  1.0000
  H   H1438     1.0  0.21078  0.90330  0.13994  1.0000
  H   H1439     1.0  0.05217  0.65985  0.19186  1.0000
  H   H1440     1.0  0.03485  0.65374  0.18644  1.0000
  C   C859      1.0  0.03499  0.66368  0.18492  1.0000
  H   H1441     1.0  0.05015  0.68125  0.17344  1.0000
  H   H1442     1.0  0.04893  0.68688  0.15038  1.0000
  C   C860      1.0  0.11134  0.65320  0.21844  1.0000
  C   C861      1.0  0.04237  0.66446  0.19407  1.0000
  H   H1443     1.0  0.04178  0.67411  0.19463  1.0000
  H   H1444     1.0  0.02527  0.66838  0.18809  1.0000
  H   H1445     1.0  0.12265  0.50588  0.11268  1.0000
  C   C862      1.0  0.14967  0.60250  0.13658  1.0000
  H   H1446     1.0  0.03848  0.65965  0.20345  1.0000
  H   H1447     1.0  0.14298  0.49600  0.12005  1.0000
  N   N60       1.0  0.22342  0.88584  0.13781  1.0000
  H   H1448     1.0  0.13379  0.51655  0.12392  1.0000
  C   C863      1.0  0.10533  0.50016  0.12072  1.0000
  H   H1449     1.0  0.14874  0.55371  0.15856  1.0000
  C   C864      1.0  0.01605  0.85815  0.11668  1.0000
  Fe  Fe128     1.0  0.08909  0.62646  0.21742  1.0000
  H   H1450     1.0  0.03399  0.85709  0.06082  1.0000
  C   C865      1.0  0.22348  0.86817  0.15736  1.0000
  H   H1451     1.0  0.21636  0.88420  0.12277  1.0000
  H   H1452     1.0  0.05484  0.71550  0.08418  1.0000
  H   H1453     1.0  0.18603  0.57165  0.12794  1.0000
  H   H1454     1.0  0.21275  0.88681  0.15635  1.0000
  C   C866      1.0  0.14124  0.49755  0.12954  1.0000
  C   C867      1.0  0.10984  0.67602  0.21371  1.0000
  C   C868      1.0  0.01436  0.86093  0.06893  1.0000
  H   H1455     1.0  0.14996  0.49923  0.13062  1.0000
  C   C869      1.0  0.22390  0.86932  0.06451  1.0000
  H   H1456     1.0  0.03008  0.86743  0.07111  1.0000
  H   H1457     1.0  0.16685  0.57547  0.10575  1.0000
  H   H1458     1.0  0.00754  0.88339  0.07190  1.0000
  H   H1459     1.0  0.10155  0.50367  0.14511  1.0000
  C   C870      1.0  0.15981  0.58236  0.12271  1.0000
  H   H1460     1.0  0.19896  0.88131  0.14848  1.0000
  H   H1461     1.0  0.23327  0.86406  0.15794  1.0000
  H   H1462     1.0  0.10509  0.53933  0.13216  1.0000
  S   S255      1.0  0.00606  0.84810  0.12488  1.0000
  H   H1463     1.0  0.23252  0.87047  0.06632  1.0000
  C   C871      1.0  0.20205  0.90099  0.04024  1.0000
  H   H1464     1.0  0.22610  0.86046  0.06143  1.0000
  C   C872      1.0  0.21505  0.88095  0.13294  1.0000
  H   H1465     1.0  0.13125  0.51133  0.14010  1.0000
  C   C873      1.0  0.11169  0.50231  0.14427  1.0000
  H   H1466     1.0  0.22100  0.90106  0.03873  1.0000
  H   H1467     1.0  0.10013  0.49559  0.12952  1.0000
  C   C874      1.0  0.15248  0.56225  0.15587  1.0000
  H   H1468     1.0  0.14601  0.56874  0.16140  1.0000
  H   H1469     1.0  0.16161  0.55977  0.15846  1.0000
  H   H1470     1.0  0.10733  0.52756  0.14549  1.0000
  H   H1471     1.0  0.15075  0.60533  0.12643  1.0000
  S   S256      1.0  0.00012  0.64669  0.15062  1.0000
  H   H1472     1.0  0.13885  0.58893  0.13949  1.0000
  H   H1473     1.0  0.23006  0.90465  0.14605  1.0000
  H   H1474     1.0  0.11698  0.66938  0.19625  1.0000
  H   H1475     1.0  0.09165  0.66658  0.20996  1.0000
  H   H1476     1.0  0.16764  0.57872  0.15070  1.0000
  H   H1477     1.0  0.14433  0.56798  0.13981  1.0000
  N   N61       1.0  0.11790  0.50806  0.13158  1.0000
  H   H1478     1.0  0.14614  0.58762  0.15174  1.0000
  C   C875      1.0  0.18068  0.56877  0.13738  1.0000
  H   H1479     1.0  0.17827  0.55984  0.13821  1.0000
  Fe  Fe129     1.0  0.13572  0.49383  0.08642  1.0000
  H   H1480     1.0  0.21775  0.86688  0.16684  1.0000
  C   C876      1.0  0.09136  0.66745  0.21945  1.0000
  H   H1481     1.0  0.13609  0.84803  0.06000  1.0000
  H   H1482     1.0  0.15766  0.56609  0.11735  1.0000
  H   H1483     1.0  0.18676  0.56684  0.14406  1.0000
  H   H1484     1.0  0.20352  0.89190  0.03784  1.0000
  N   N62       1.0  0.15787  0.57917  0.13663  1.0000
  H   H1485     1.0  0.00018  0.85808  0.09967  1.0000
  H   H1486     1.0  0.24272  0.89678  0.06012  1.0000
  H   H1487     1.0  0.08620  0.67700  0.22016  1.0000
  H   H1488     1.0  0.07385  0.66147  0.22582  1.0000
  S   S257      1.0  0.10067  0.61836  0.23226  1.0000
  H   H1489     1.0  0.14550  0.80220  0.99552  1.0000
  H   H1490     1.0  0.08677  0.64902  0.22681  1.0000
  H   H1491     1.0  0.10697  0.64557  0.22445  1.0000
  H   H1492     1.0  0.00172  0.59553  0.15348  1.0000
  H   H1493     1.0  0.12369  0.49183  0.12330  1.0000
  H   H1494     1.0  0.12580  0.64455  0.22915  1.0000
  H   H1495     1.0  0.99859  0.84041  0.09183  1.0000
  Fe  Fe130     1.0  0.14058  0.53494  0.37133  1.0000
  C   C877      1.0  0.16511  0.57545  0.32308  1.0000
  S   S258      1.0  0.13549  0.53612  0.39137  1.0000
  Fe  Fe131     1.0  0.13316  0.54467  0.34694  1.0000
  S   S259      1.0  0.14860  0.53187  0.33716  1.0000
  S   S260      1.0  0.11894  0.55937  0.33868  1.0000
  H   H1496     1.0  0.11262  0.71481  0.44945  1.0000
  Fe  Fe132     1.0  0.16021  0.53644  0.34779  1.0000
  S   S261      1.0  0.17947  0.54001  0.33905  1.0000
  S   S262      1.0  0.12727  0.53011  0.36297  1.0000
  S   S263      1.0  0.14508  0.55061  0.35596  1.0000
  Fe  Fe133     1.0  0.20915  0.59158  0.34863  1.0000
  S   S264      1.0  0.19683  0.60837  0.34001  1.0000
  H   H1497     1.0  0.10066  0.57814  0.27721  1.0000
  H   H1498     1.0  0.15242  0.60703  0.43577  1.0000
  S   S265      1.0  0.21998  0.62281  0.33396  1.0000
  Fe  Fe134     1.0  0.20419  0.61876  0.34946  1.0000
  S   S266      1.0  0.19152  0.63378  0.35851  1.0000
  Fe  Fe135     1.0  0.21359  0.61079  0.32527  1.0000
  S   S267      1.0  0.21178  0.61674  0.30542  1.0000
  H   H1499     1.0  0.21998  0.63376  0.35496  1.0000
  H   H1500     1.0  0.11206  0.59524  0.35252  1.0000
  Fe  Fe136     1.0  0.14467  0.63397  0.29322  1.0000
  S   S268      1.0  0.12474  0.64283  0.29943  1.0000
  S   S269      1.0  0.16028  0.64356  0.29054  1.0000
  Fe  Fe137     1.0  0.13850  0.61021  0.29289  1.0000
  S   S270      1.0  0.11824  0.61693  0.29916  1.0000
  S   S271      1.0  0.14550  0.59072  0.29043  1.0000
  Fe  Fe138     1.0  0.12108  0.63427  0.28537  1.0000
  S   S272      1.0  0.10659  0.64301  0.27353  1.0000
  Fe  Fe139     1.0  0.12379  0.62458  0.31254  1.0000
  S   S273      1.0  0.11580  0.61908  0.33287  1.0000
  S   S274      1.0  0.14114  0.62697  0.27812  1.0000
  S   S275      1.0  0.14387  0.61650  0.30721  1.0000
  Fe  Fe140     1.0  0.12141  0.60337  0.40879  1.0000
  S   S276      1.0  0.10838  0.62187  0.40797  1.0000
  S   S277      1.0  0.11432  0.58619  0.41059  1.0000
  Fe  Fe141     1.0  0.14288  0.61414  0.40849  1.0000
  S   S278      1.0  0.13194  0.63353  0.40716  1.0000
  S   S279      1.0  0.16284  0.60861  0.40955  1.0000
  Fe  Fe142     1.0  0.11756  0.62503  0.42174  1.0000
  S   S280      1.0  0.10743  0.63158  0.43956  1.0000
  Fe  Fe143     1.0  0.12388  0.62875  0.39349  1.0000
  S   S281      1.0  0.12130  0.64173  0.37533  1.0000
  S   S282      1.0  0.12914  0.60579  0.42387  1.0000
  S   S283      1.0  0.13625  0.61010  0.39357  1.0000
  S   S284      1.0  0.12514  0.66366  0.46691  1.0000
  C   C878      1.0  0.11204  0.64112  0.44674  1.0000
  C   C879      1.0  0.10731  0.64084  0.45938  1.0000
  C   C880      1.0  0.11133  0.64757  0.46567  1.0000
  C   C881      1.0  0.11987  0.65499  0.45932  1.0000
  C   C882      1.0  0.12435  0.65555  0.44661  1.0000
  C   C883      1.0  0.12059  0.64853  0.44038  1.0000
  H   H1501     1.0  0.10067  0.63516  0.46439  1.0000
  H   H1502     1.0  0.11707  0.52251  0.39001  1.0000
  H   H1503     1.0  0.13088  0.66133  0.44158  1.0000
  H   H1504     1.0  0.12419  0.64897  0.43063  1.0000
  C   C884      1.0  0.10512  0.63623  0.26194  1.0000
  C   C885      1.0  0.11528  0.62905  0.25549  1.0000
  C   C886      1.0  0.11381  0.62388  0.24625  1.0000
  C   C887      1.0  0.23103  0.61805  0.37445  1.0000
  C   C888      1.0  0.09351  0.63826  0.25896  1.0000
  H   H1505     1.0  0.12428  0.62751  0.25761  1.0000
  H   H1506     1.0  0.10140  0.52242  0.39744  1.0000
  C   C889      1.0  0.11927  0.62555  0.34357  1.0000
  C   C890      1.0  0.12258  0.61776  0.35431  1.0000
  C   C891      1.0  0.12327  0.62261  0.36406  1.0000
  C   C892      1.0  0.12084  0.63537  0.36307  1.0000
  C   C893      1.0  0.11814  0.64321  0.35204  1.0000
  C   C894      1.0  0.11734  0.63832  0.34231  1.0000
  H   H1507     1.0  0.12442  0.60792  0.35516  1.0000
  H   H1508     1.0  0.12545  0.61648  0.37242  1.0000
  H   H1509     1.0  0.11631  0.65309  0.35118  1.0000
  H   H1510     1.0  0.11466  0.64442  0.33410  1.0000
  C   C895      1.0  0.18376  0.62712  0.37297  1.0000
  C   C896      1.0  0.19013  0.61764  0.38088  1.0000
  C   C897      1.0  0.18378  0.61229  0.39238  1.0000
  C   C898      1.0  0.17097  0.61603  0.39572  1.0000
  C   C899      1.0  0.16461  0.62547  0.38779  1.0000
  C   C900      1.0  0.17104  0.63119  0.37656  1.0000
  H   H1511     1.0  0.19997  0.61448  0.37822  1.0000
  H   H1512     1.0  0.18873  0.60503  0.39850  1.0000
  H   H1513     1.0  0.15473  0.62840  0.39027  1.0000
  H   H1514     1.0  0.16608  0.63856  0.37055  1.0000
  C   C901      1.0  0.19718  0.62383  0.30177  1.0000
  C   C902      1.0  0.18640  0.61967  0.30840  1.0000
  C   C903      1.0  0.17506  0.62513  0.30465  1.0000
  C   C904      1.0  0.17441  0.63517  0.29461  1.0000
  C   C905      1.0  0.18517  0.63941  0.28820  1.0000
  C   C906      1.0  0.19651  0.63361  0.29157  1.0000
  H   H1515     1.0  0.18684  0.61221  0.31633  1.0000
  H   H1516     1.0  0.16678  0.62193  0.30981  1.0000
  H   H1517     1.0  0.18475  0.64719  0.28050  1.0000
  H   H1518     1.0  0.20479  0.63684  0.28635  1.0000
  C   C907      1.0  0.18518  0.55011  0.34438  1.0000
  C   C908      1.0  0.17739  0.55761  0.35227  1.0000
  C   C909      1.0  0.18202  0.56583  0.35610  1.0000
  C   C910      1.0  0.19446  0.56666  0.35219  1.0000
  C   C911      1.0  0.20228  0.55923  0.34420  1.0000
  C   C912      1.0  0.19764  0.55099  0.34030  1.0000
  H   H1519     1.0  0.16779  0.55707  0.35545  1.0000
  H   H1520     1.0  0.17593  0.57151  0.36218  1.0000
  C   C913      1.0  0.16180  0.58343  0.33280  1.0000
  H   H1521     1.0  0.20375  0.54519  0.33421  1.0000
  C   C914      1.0  0.13021  0.55045  0.39601  1.0000
  C   C915      1.0  0.13419  0.56128  0.38910  1.0000
  C   C916      1.0  0.12991  0.57234  0.39360  1.0000
  C   C917      1.0  0.12138  0.57260  0.40485  1.0000
  C   C918      1.0  0.11742  0.56179  0.41156  1.0000
  C   C919      1.0  0.12196  0.55079  0.40730  1.0000
  H   H1522     1.0  0.14062  0.56108  0.38038  1.0000
  H   H1523     1.0  0.13287  0.58069  0.38824  1.0000
  H   H1524     1.0  0.11078  0.56191  0.42019  1.0000
  H   H1525     1.0  0.11887  0.54251  0.41274  1.0000
  C   C920      1.0  0.12682  0.56776  0.32543  1.0000
  C   C921      1.0  0.13465  0.56191  0.31613  1.0000
  C   C922      1.0  0.14056  0.56890  0.30533  1.0000
  C   C923      1.0  0.13889  0.58164  0.30407  1.0000
  C   C924      1.0  0.13158  0.58727  0.31368  1.0000
  C   C925      1.0  0.12534  0.58043  0.32420  1.0000
  H   H1526     1.0  0.13586  0.55206  0.31714  1.0000
  H   H1527     1.0  0.14632  0.56447  0.29797  1.0000
  H   H1528     1.0  0.13066  0.59694  0.31310  1.0000
  H   H1529     1.0  0.11944  0.58499  0.33140  1.0000
  H   H1530     1.0  0.13450  0.49986  0.29612  1.0000
  S   S285      1.0  0.15654  0.52090  0.36390  1.0000
  H   H1531     1.0  0.19684  0.58101  0.32607  1.0000
  C   C926      1.0  0.19088  0.58568  0.31928  1.0000
  C   C927      1.0  0.10969  0.51725  0.39204  1.0000
  C   C928      1.0  0.17902  0.59635  0.29295  1.0000
  C   C929      1.0  0.22325  0.64190  0.35539  1.0000
  H   H1532     1.0  0.19669  0.59118  0.31166  1.0000
  H   H1533     1.0  0.17739  0.59264  0.28565  1.0000
  N   N63       1.0  0.10813  0.70458  0.47852  1.0000
  C   C930      1.0  0.21500  0.65332  0.34890  1.0000
  H   H1534     1.0  0.08411  0.70551  0.47279  1.0000
  H   H1535     1.0  0.18308  0.59190  0.32391  1.0000
  H   H1536     1.0  0.23900  0.65759  0.35148  1.0000
  H   H1537     1.0  0.12171  0.61827  0.24138  1.0000
  C   C931      1.0  0.17089  0.59200  0.30554  1.0000
  H   H1538     1.0  0.20518  0.65444  0.35369  1.0000
  H   H1539     1.0  0.22914  0.61651  0.36607  1.0000
  H   H1540     1.0  0.19463  0.57423  0.30628  1.0000
  H   H1541     1.0  0.18897  0.59388  0.29319  1.0000
  C   C932      1.0  0.10554  0.58034  0.30034  1.0000
  C   C933      1.0  0.16944  0.60425  0.44217  1.0000
  C   C934      1.0  0.10295  0.60712  0.27871  1.0000
  H   H1542     1.0  0.17342  0.59710  0.44949  1.0000
  C   C935      1.0  0.12128  0.49929  0.34742  1.0000
  C   C936      1.0  0.11366  0.58652  0.28857  1.0000
  H   H1543     1.0  0.20283  0.63355  0.39555  1.0000
  H   H1544     1.0  0.18543  0.55330  0.31205  1.0000
  H   H1545     1.0  0.16131  0.59376  0.30414  1.0000
  C   C937      1.0  0.18740  0.57582  0.31463  1.0000
  C   C938      1.0  0.17499  0.57089  0.30286  1.0000
  C   C939      1.0  0.11236  0.49423  0.34507  1.0000
  H   H1546     1.0  0.09787  0.72302  0.47265  1.0000
  H   H1547     1.0  0.15631  0.57576  0.32047  1.0000
  H   H1548     1.0  0.08983  0.58819  0.28612  1.0000
  C   C940      1.0  0.15530  0.60559  0.44466  1.0000
  H   H1549     1.0  0.15357  0.59629  0.44953  1.0000
  H   H1550     1.0  0.20388  0.64828  0.37356  1.0000
  C   C941      1.0  0.09282  0.61008  0.28989  1.0000
  S   S286      1.0  0.21508  0.60187  0.35952  1.0000
  H   H1551     1.0  0.12954  0.70405  0.46001  1.0000
  N   N64       1.0  0.10235  0.58649  0.37014  1.0000
  C   C942      1.0  0.17712  0.55683  0.30794  1.0000
  H   H1552     1.0  0.17051  0.59842  0.31137  1.0000
  H   H1553     1.0  0.13515  0.58815  0.27095  1.0000
  H   H1554     1.0  0.10010  0.70687  0.45698  1.0000
  H   H1555     1.0  0.13094  0.60072  0.46943  1.0000
  C   C943      1.0  0.09037  0.59412  0.26680  1.0000
  C   C944      1.0  0.20977  0.63922  0.39037  1.0000
  H   H1556     1.0  0.18870  0.56705  0.32151  1.0000
  H   H1557     1.0  0.21873  0.66138  0.36758  1.0000
  C   C945      1.0  0.14297  0.61980  0.47368  1.0000
  H   H1558     1.0  0.11062  0.61127  0.27880  1.0000
  H   H1559     1.0  0.09433  0.56498  0.36868  1.0000
  H   H1560     1.0  0.16962  0.58224  0.33723  1.0000
  H   H1561     1.0  0.11836  0.59243  0.29132  1.0000
  H   H1562     1.0  0.13322  0.68777  0.46078  1.0000
  H   H1563     1.0  0.15820  0.59329  0.32913  1.0000
  H   H1564     1.0  0.13595  0.50545  0.39809  1.0000
  C   C946      1.0  0.12946  0.59589  0.26550  1.0000
  H   H1565     1.0  0.17645  0.60655  0.29023  1.0000
  H   H1566     1.0  0.12869  0.60446  0.26858  1.0000
  S   S287      1.0  0.20029  0.57531  0.35920  1.0000
  H   H1567     1.0  0.15045  0.60193  0.46886  1.0000
  Fe  Fe144     1.0  0.23076  0.60519  0.34339  1.0000
  H   H1568     1.0  0.12113  0.57874  0.28578  1.0000
  C   C947      1.0  0.21115  0.64027  0.37643  1.0000
  H   H1569     1.0  0.11965  0.50909  0.34698  1.0000
  H   H1570     1.0  0.08292  0.58922  0.26771  1.0000
  H   H1571     1.0  0.16621  0.57361  0.29949  1.0000
  H   H1572     1.0  0.09701  0.58662  0.30386  1.0000
  H   H1573     1.0  0.13471  0.59704  0.25582  1.0000
  H   H1574     1.0  0.12839  0.62307  0.45758  1.0000
  C   C948      1.0  0.08800  0.69760  0.47955  1.0000
  N   N65       1.0  0.22361  0.64165  0.36848  1.0000
  H   H1575     1.0  0.15428  0.58018  0.34025  1.0000
  H   H1576     1.0  0.10393  0.50025  0.34279  1.0000
  H   H1577     1.0  0.11322  0.59954  0.25816  1.0000
  H   H1578     1.0  0.09622  0.60637  0.29857  1.0000
  H   H1579     1.0  0.16895  0.55413  0.31477  1.0000
  H   H1580     1.0  0.09019  0.62026  0.28892  1.0000
  H   H1581     1.0  0.10248  0.55475  0.37991  1.0000
  H   H1582     1.0  0.11069  0.57106  0.38296  1.0000
  H   H1583     1.0  0.08587  0.60390  0.26687  1.0000
  H   H1584     1.0  0.21197  0.55954  0.34134  1.0000
  H   H1585     1.0  0.14326  0.62969  0.47011  1.0000
  H   H1586     1.0  0.09654  0.59337  0.25771  1.0000
  C   C949      1.0  0.10220  0.62588  0.24328  1.0000
  H   H1587     1.0  0.23942  0.66562  0.36266  1.0000
  C   C950      1.0  0.12952  0.60370  0.45985  1.0000
  N   N66       1.0  0.16225  0.64294  0.33457  1.0000
  C   C951      1.0  0.17152  0.64788  0.32359  1.0000
  C   C952      1.0  0.15117  0.64278  0.32988  1.0000
  C   C953      1.0  0.16809  0.62991  0.33989  1.0000
  C   C954      1.0  0.15924  0.65109  0.34380  1.0000
  C   C955      1.0  0.18450  0.64681  0.32582  1.0000
  C   C956      1.0  0.14508  0.65525  0.32274  1.0000
  C   C957      1.0  0.16002  0.62248  0.35062  1.0000
  C   C958      1.0  0.14685  0.65102  0.35318  1.0000
  H   H1588     1.0  0.17282  0.64322  0.31590  1.0000
  H   H1589     1.0  0.16812  0.65781  0.31983  1.0000
  H   H1590     1.0  0.14379  0.63942  0.33736  1.0000
  H   H1591     1.0  0.15374  0.63613  0.32364  1.0000
  H   H1592     1.0  0.17164  0.62444  0.33253  1.0000
  H   H1593     1.0  0.17619  0.62978  0.34355  1.0000
  H   H1594     1.0  0.16671  0.64877  0.34906  1.0000
  H   H1595     1.0  0.15885  0.66089  0.33892  1.0000
  H   H1596     1.0  0.18982  0.65220  0.31764  1.0000
  H   H1597     1.0  0.18416  0.65048  0.33393  1.0000
  H   H1598     1.0  0.15078  0.65773  0.31340  1.0000
  H   H1599     1.0  0.13609  0.65444  0.32140  1.0000
  H   H1600     1.0  0.14325  0.66278  0.32774  1.0000
  H   H1601     1.0  0.15138  0.62189  0.34841  1.0000
  H   H1602     1.0  0.15807  0.62606  0.35914  1.0000
  H   H1603     1.0  0.16531  0.61287  0.35275  1.0000
  H   H1604     1.0  0.14791  0.65234  0.36205  1.0000
  H   H1605     1.0  0.14344  0.64245  0.35531  1.0000
  H   H1606     1.0  0.13960  0.65895  0.35014  1.0000
  C   C959      1.0  0.10392  0.71489  0.45652  1.0000
  H   H1607     1.0  0.16801  0.56583  0.32807  1.0000
  H   H1608     1.0  0.18238  0.57234  0.29449  1.0000
  H   H1609     1.0  0.09470  0.67164  0.23863  1.0000
  H   H1610     1.0  0.09939  0.61248  0.27038  1.0000
  H   H1611     1.0  0.17855  0.55208  0.30027  1.0000
  H   H1612     1.0  0.11525  0.50554  0.40828  1.0000
  H   H1613     1.0  0.15893  0.62905  0.44727  1.0000
  C   C960      1.0  0.10257  0.56331  0.37266  1.0000
  H   H1614     1.0  0.08434  0.60688  0.29045  1.0000
  Fe  Fe145     1.0  0.14354  0.51741  0.35399  1.0000
  H   H1615     1.0  0.18979  0.63714  0.32682  1.0000
  H   H1616     1.0  0.10772  0.64710  0.47543  1.0000
  H   H1617     1.0  0.10730  0.51710  0.38335  1.0000
  C   C961      1.0  0.09205  0.63308  0.24971  1.0000
  H   H1618     1.0  0.22333  0.61629  0.38237  1.0000
  H   H1619     1.0  0.13323  0.61873  0.47633  1.0000
  N   N67       1.0  0.10745  0.59372  0.27798  1.0000
  H   H1620     1.0  0.11174  0.69148  0.46656  1.0000
  H   H1621     1.0  0.13200  0.61786  0.44370  1.0000
  C   C962      1.0  0.12921  0.69499  0.46635  1.0000
  S   S288      1.0  0.22581  0.59324  0.33323  1.0000
  C   C963      1.0  0.10592  0.71624  0.46888  1.0000
  H   H1622     1.0  0.10308  0.57221  0.29882  1.0000
  H   H1623     1.0  0.08300  0.63443  0.24775  1.0000
  H   H1624     1.0  0.23937  0.61102  0.37649  1.0000
  C   C964      1.0  0.15072  0.63147  0.43170  1.0000
  H   H1625     1.0  0.09731  0.72319  0.45293  1.0000
  H   H1626     1.0  0.15111  0.64138  0.42844  1.0000
  C   C965      1.0  0.09710  0.58807  0.27761  1.0000
  H   H1627     1.0  0.20814  0.63237  0.37506  1.0000
  C   C966      1.0  0.11685  0.59304  0.26607  1.0000
  H   H1628     1.0  0.08559  0.64378  0.26392  1.0000
  C   C967      1.0  0.23365  0.63100  0.37243  1.0000
  H   H1629     1.0  0.10507  0.49999  0.40293  1.0000
  H   H1630     1.0  0.11884  0.58370  0.26397  1.0000
  C   C968      1.0  0.22637  0.65339  0.36957  1.0000
  H   H1631     1.0  0.21533  0.65207  0.33955  1.0000
  H   H1632     1.0  0.23263  0.64113  0.34947  1.0000
  H   H1633     1.0  0.21832  0.63451  0.39378  1.0000
  C   C969      1.0  0.15092  0.61170  0.46447  1.0000
  H   H1634     1.0  0.15542  0.49798  0.38418  1.0000
  H   H1635     1.0  0.11940  0.60563  0.46038  1.0000
  N   N68       1.0  0.17474  0.57871  0.31169  1.0000
  H   H1636     1.0  0.11399  0.72076  0.46640  1.0000
  H   H1637     1.0  0.09282  0.68959  0.47525  1.0000
  N   N69       1.0  0.16770  0.57256  0.39810  1.0000
  C   C970      1.0  0.16721  0.57334  0.41114  1.0000
  C   C971      1.0  0.18104  0.57101  0.39151  1.0000
  C   C972      1.0  0.16287  0.56128  0.39882  1.0000
  C   C973      1.0  0.15965  0.58420  0.39241  1.0000
  C   C974      1.0  0.15441  0.57381  0.41990  1.0000
  C   C975      1.0  0.18731  0.58171  0.39042  1.0000
  C   C976      1.0  0.16581  0.55625  0.38698  1.0000
  C   C977      1.0  0.16127  0.58764  0.37827  1.0000
  H   H1638     1.0  0.17374  0.56540  0.41548  1.0000
  H   H1639     1.0  0.17020  0.58175  0.41131  1.0000
  H   H1640     1.0  0.18226  0.56971  0.38202  1.0000
  H   H1641     1.0  0.18662  0.56240  0.39614  1.0000
  H   H1642     1.0  0.16660  0.55342  0.40582  1.0000
  H   H1643     1.0  0.15266  0.56296  0.40200  1.0000
  H   H1644     1.0  0.14975  0.58386  0.39607  1.0000
  H   H1645     1.0  0.16061  0.59239  0.39527  1.0000
  H   H1646     1.0  0.15107  0.56515  0.42161  1.0000
  H   H1647     1.0  0.15514  0.57498  0.42895  1.0000
  H   H1648     1.0  0.14740  0.58177  0.41649  1.0000
  H   H1649     1.0  0.19660  0.58016  0.38434  1.0000
  H   H1650     1.0  0.18210  0.59069  0.38619  1.0000
  H   H1651     1.0  0.18876  0.58218  0.39943  1.0000
  H   H1652     1.0  0.17581  0.55246  0.38409  1.0000
  H   H1653     1.0  0.16233  0.56316  0.37936  1.0000
  H   H1654     1.0  0.16109  0.54845  0.38880  1.0000
  H   H1655     1.0  0.15569  0.58314  0.37495  1.0000
  H   H1656     1.0  0.17098  0.58608  0.37331  1.0000
  H   H1657     1.0  0.15808  0.59777  0.37547  1.0000
  H   H1658     1.0  0.11311  0.59073  0.38085  1.0000
  H   H1659     1.0  0.13164  0.58031  0.35118  1.0000
  H   H1660     1.0  0.08844  0.58484  0.36145  1.0000
  H   H1661     1.0  0.09748  0.60433  0.39223  1.0000
  H   H1662     1.0  0.15910  0.62621  0.42653  1.0000
  H   H1663     1.0  0.09208  0.59049  0.39481  1.0000
  H   H1664     1.0  0.09096  0.60344  0.34826  1.0000
  N   N70       1.0  0.14771  0.61514  0.45194  1.0000
  C   C978      1.0  0.11209  0.58590  0.35852  1.0000
  C   C979      1.0  0.10473  0.59497  0.37691  1.0000
  H   H1665     1.0  0.12861  0.58629  0.36479  1.0000
  H   H1666     1.0  0.07800  0.60853  0.35996  1.0000
  H   H1667     1.0  0.11665  0.68523  0.48045  1.0000
  C   C980      1.0  0.23858  0.65663  0.36141  1.0000
  H   H1668     1.0  0.09445  0.57425  0.38638  1.0000
  H   H1669     1.0  0.12653  0.57098  0.36574  1.0000
  C   C981      1.0  0.10255  0.57396  0.37857  1.0000
  H   H1670     1.0  0.09283  0.61047  0.35967  1.0000
  C   C982      1.0  0.12543  0.58055  0.36035  1.0000
  H   H1671     1.0  0.11102  0.56135  0.36556  1.0000
  C   C983      1.0  0.08995  0.59111  0.36658  1.0000
  C   C984      1.0  0.08794  0.60407  0.35812  1.0000
  H   H1672     1.0  0.08222  0.59079  0.37478  1.0000
  H   H1673     1.0  0.13271  0.50327  0.31088  1.0000
  H   H1674     1.0  0.13361  0.59610  0.45481  1.0000
  H   H1675     1.0  0.10684  0.60362  0.37060  1.0000
  H   H1676     1.0  0.11089  0.57688  0.30777  1.0000
  H   H1677     1.0  0.14299  0.63500  0.44984  1.0000
  H   H1678     1.0  0.11005  0.58047  0.35284  1.0000
  H   H1679     1.0  0.08591  0.60436  0.38445  1.0000
  H   H1680     1.0  0.13499  0.50938  0.38256  1.0000
  C   C985      1.0  0.13425  0.61557  0.45296  1.0000
  H   H1681     1.0  0.13524  0.69338  0.47300  1.0000
  H   H1682     1.0  0.21829  0.66190  0.34765  1.0000
  H   H1683     1.0  0.17365  0.60158  0.43314  1.0000
  H   H1684     1.0  0.17232  0.61291  0.44149  1.0000
  H   H1685     1.0  0.20668  0.64849  0.39271  1.0000
  H   H1686     1.0  0.23606  0.63170  0.38094  1.0000
  C   C986      1.0  0.09432  0.59863  0.38767  1.0000
  C   C987      1.0  0.15020  0.62781  0.44570  1.0000
  H   H1687     1.0  0.14245  0.63025  0.42930  1.0000
  C   C988      1.0  0.12892  0.49879  0.30563  1.0000
  C   C989      1.0  0.11595  0.69373  0.47311  1.0000
  H   H1688     1.0  0.16069  0.61218  0.46363  1.0000
  S   S289      1.0  0.14365  0.49747  0.35379  1.0000
  H   H1689     1.0  0.22689  0.65292  0.37922  1.0000
  H   H1690     1.0  0.08173  0.65892  0.23793  1.0000
  H   H1691     1.0  0.11927  0.50392  0.30563  1.0000
  H   H1692     1.0  0.11218  0.66640  0.24903  1.0000
  C   C990      1.0  0.11335  0.50421  0.39975  1.0000
  C   C991      1.0  0.13548  0.50140  0.39047  1.0000
  H   H1693     1.0  0.10204  0.65582  0.24078  1.0000
  C   C992      1.0  0.11376  0.66829  0.23881  1.0000
  C   C993      1.0  0.10315  0.66506  0.23515  1.0000
  H   H1694     1.0  0.12292  0.66273  0.23562  1.0000
  C   C994      1.0  0.14798  0.49265  0.38710  1.0000
  H   H1695     1.0  0.12245  0.50287  0.37438  1.0000
  H   H1696     1.0  0.11392  0.67825  0.23552  1.0000
  N   N71       1.0  0.12421  0.49583  0.39347  1.0000
  H   H1697     1.0  0.11381  0.49180  0.29680  1.0000
  C   C995      1.0  0.12207  0.49429  0.38161  1.0000
  H   H1698     1.0  0.24241  0.63119  0.36546  1.0000
  H   H1699     1.0  0.10166  0.49763  0.38504  1.0000
  H   H1700     1.0  0.12386  0.70924  0.48215  1.0000
  C   C996      1.0  0.13225  0.49166  0.35035  1.0000
  H   H1701     1.0  0.14662  0.61688  0.48228  1.0000
  C   C997      1.0  0.10988  0.49052  0.38237  1.0000
  H   H1702     1.0  0.13384  0.49018  0.41416  1.0000
  H   H1703     1.0  0.24674  0.64976  0.36410  1.0000
  H   H1704     1.0  0.05500  0.83232  0.67517  1.0000
  S   S290      1.0  0.22944  0.61827  0.62945  1.0000
  Fe  Fe146     1.0  0.09547  0.86008  0.69831  1.0000
  S   S291      1.0  0.07767  0.86667  0.71111  1.0000
  S   S292      1.0  0.10191  0.84055  0.69532  1.0000
  Fe  Fe147     1.0  0.10238  0.88478  0.69119  1.0000
  S   S293      1.0  0.08511  0.89351  0.70273  1.0000
  S   S294      1.0  0.11718  0.89508  0.68048  1.0000
  Fe  Fe148     1.0  0.08902  0.87655  0.71734  1.0000
  Fe  Fe149     1.0  0.07552  0.88304  0.69539  1.0000
  S   S295      1.0  0.05896  0.89336  0.68679  1.0000
  S   S296      1.0  0.10687  0.86834  0.70597  1.0000
  S   S297      1.0  0.09267  0.87588  0.68247  1.0000
  Fe  Fe150     1.0  0.02505  0.90381  0.62657  1.0000
  S   S298      1.0  0.02949  0.92248  0.62375  1.0000
  Fe  Fe151     1.0  0.03103  0.88053  0.61709  1.0000
  S   S299      1.0  0.01784  0.87133  0.63256  1.0000
  S   S300      1.0  0.04337  0.87163  0.60192  1.0000
  Fe  Fe152     1.0  0.02502  0.87936  0.64459  1.0000
  S   S301      1.0  0.02980  0.86861  0.66293  1.0000
  S   S302      1.0  0.01764  0.89834  0.61294  1.0000
  S   S303      1.0  0.03957  0.88668  0.62930  1.0000
  Fe  Fe153     1.0  0.11810  0.82588  0.62923  1.0000
  S   S304      1.0  0.12864  0.82731  0.60961  1.0000
  S   S305      1.0  0.12781  0.82386  0.64461  1.0000
  Fe  Fe154     1.0  0.09451  0.82587  0.62225  1.0000
  S   S306      1.0  0.10290  0.82762  0.60211  1.0000
  S   S307      1.0  0.07480  0.82448  0.62988  1.0000
  Fe  Fe155     1.0  0.11862  0.81326  0.60840  1.0000
  S   S308      1.0  0.12763  0.79539  0.60160  1.0000
  Fe  Fe156     1.0  0.11186  0.84151  0.60525  1.0000
  S   S309      1.0  0.11159  0.86040  0.59297  1.0000
  S   S310      1.0  0.10957  0.81066  0.62848  1.0000
  S   S311      1.0  0.10204  0.84088  0.62493  1.0000
  Fe  Fe157     1.0  0.11909  0.91720  0.61154  1.0000
  S   S312      1.0  0.09901  0.92082  0.62040  1.0000
  S   S313      1.0  0.12892  0.89715  0.61462  1.0000
  Fe  Fe158     1.0  0.11944  0.94468  0.60135  1.0000
  S   S314      1.0  0.09912  0.95021  0.60885  1.0000
  S   S315      1.0  0.12888  0.96073  0.59093  1.0000
  Fe  Fe159     1.0  0.10308  0.93649  0.62577  1.0000
  S   S316      1.0  0.09408  0.94126  0.64414  1.0000
  Fe  Fe160     1.0  0.09678  0.93411  0.60273  1.0000
  S   S317      1.0  0.08094  0.93554  0.59384  1.0000
  S   S318      1.0  0.12351  0.93167  0.61883  1.0000
  S   S319      1.0  0.11675  0.92975  0.59330  1.0000
  H   H1705     1.0  0.07094  0.85669  0.67635  1.0000
  S   S320      1.0  0.12416  0.64175  0.49946  1.0000
  Fe  Fe161     1.0  0.11146  0.67283  0.51052  1.0000
  S   S321      1.0  0.11378  0.65456  0.52372  1.0000
  S   S322      1.0  0.10227  0.68996  0.51849  1.0000
  Fe  Fe162     1.0  0.13175  0.65006  0.51073  1.0000
  S   S323      1.0  0.14822  0.63953  0.51875  1.0000
  Fe  Fe163     1.0  0.10588  0.64810  0.51129  1.0000
  S   S324      1.0  0.09281  0.63516  0.51760  1.0000
  H   H1706     1.0  0.01545  0.67888  0.60057  1.0000
  S   S325      1.0  0.10187  0.66667  0.49901  1.0000
  Fe  Fe164     1.0  0.11012  0.74965  0.57177  1.0000
  S   S326      1.0  0.11024  0.73627  0.58984  1.0000
  S   S327      1.0  0.10476  0.77031  0.57160  1.0000
  Fe  Fe165     1.0  0.11907  0.72861  0.55713  1.0000
  S   S328      1.0  0.12009  0.71402  0.57438  1.0000
  S   S329      1.0  0.12718  0.72177  0.53917  1.0000
  Fe  Fe166     1.0  0.10191  0.72513  0.58205  1.0000
  S   S330      1.0  0.08737  0.71490  0.59422  1.0000
  Fe  Fe167     1.0  0.12834  0.72660  0.58024  1.0000
  S   S331      1.0  0.14461  0.72093  0.58934  1.0000
  S   S332      1.0  0.10020  0.73918  0.56451  1.0000
  S   S333      1.0  0.12882  0.74052  0.56252  1.0000
  Fe  Fe168     1.0  0.07302  0.63277  0.58533  1.0000
  S   S334      1.0  0.06564  0.62884  0.60573  1.0000
  S   S335      1.0  0.07926  0.61741  0.57515  1.0000
  Fe  Fe169     1.0  0.06949  0.66036  0.58350  1.0000
  S   S336      1.0  0.06162  0.65865  0.60367  1.0000
  S   S337      1.0  0.07257  0.67833  0.57057  1.0000
  Fe  Fe170     1.0  0.07702  0.64209  0.60580  1.0000
  S   S338      1.0  0.09005  0.64082  0.61787  1.0000
  Fe  Fe171     1.0  0.05107  0.64575  0.60134  1.0000
  S   S339      1.0  0.03039  0.64891  0.60796  1.0000
  S   S340      1.0  0.08550  0.64456  0.58572  1.0000
  S   S341      1.0  0.05778  0.64876  0.58087  1.0000
  Fe  Fe172     1.0  0.15736  0.63219  0.58970  1.0000
  S   S342      1.0  0.14939  0.65242  0.58662  1.0000
  S   S343      1.0  0.14439  0.61991  0.59136  1.0000
  Fe  Fe173     1.0  0.18351  0.63591  0.58586  1.0000
  S   S344      1.0  0.17750  0.65651  0.58202  1.0000
  S   S345      1.0  0.20398  0.62842  0.58408  1.0000
  Fe  Fe174     1.0  0.16211  0.65295  0.59813  1.0000
  S   S346      1.0  0.15706  0.66425  0.61254  1.0000
  Fe  Fe175     1.0  0.16549  0.65383  0.57080  1.0000
  S   S347      1.0  0.16149  0.66676  0.55321  1.0000
  S   S348      1.0  0.16879  0.63246  0.60281  1.0000
  S   S349      1.0  0.17281  0.63349  0.57313  1.0000
  H   H1707     1.0  0.02108  0.60920  0.64287  1.0000
  C   C998      1.0  0.02308  0.63681  0.60919  1.0000
  C   C999      1.0  0.01048  0.63950  0.60904  1.0000
  C   C1000     1.0  0.00450  0.63011  0.60952  1.0000
  C   C1001     1.0  0.01108  0.61793  0.61027  1.0000
  C   C1002     1.0  0.02364  0.61518  0.61065  1.0000
  C   C1003     1.0  0.02964  0.62460  0.61013  1.0000
  H   H1708     1.0  0.00533  0.64892  0.60837  1.0000
  C   C1004     1.0  0.22728  0.59711  0.58314  1.0000
  H   H1709     1.0  0.23725  0.62786  0.60338  1.0000
  H   H1710     1.0  0.03931  0.62242  0.61048  1.0000
  C   C1005     1.0  0.10520  0.63441  0.61109  1.0000
  C   C1006     1.0  0.10731  0.62641  0.60311  1.0000
  C   C1007     1.0  0.11939  0.62179  0.59728  1.0000
  C   C1008     1.0  0.12939  0.62541  0.59915  1.0000
  C   C1009     1.0  0.12730  0.63348  0.60708  1.0000
  C   C1010     1.0  0.11523  0.63783  0.61319  1.0000
  H   H1711     1.0  0.09963  0.62358  0.60160  1.0000
  H   H1712     1.0  0.12098  0.61543  0.59130  1.0000
  H   H1713     1.0  0.13500  0.63617  0.60870  1.0000
  H   H1714     1.0  0.11365  0.64394  0.61942  1.0000
  C   C1011     1.0  0.14812  0.70515  0.59558  1.0000
  C   C1012     1.0  0.15158  0.70118  0.60700  1.0000
  C   C1013     1.0  0.15413  0.68858  0.61226  1.0000
  C   C1014     1.0  0.15391  0.67993  0.60579  1.0000
  C   C1015     1.0  0.15080  0.68388  0.59419  1.0000
  C   C1016     1.0  0.14750  0.69653  0.58929  1.0000
  H   H1715     1.0  0.15195  0.70787  0.61193  1.0000
  H   H1716     1.0  0.15633  0.68555  0.62131  1.0000
  H   H1717     1.0  0.15055  0.67723  0.58917  1.0000
  H   H1718     1.0  0.14461  0.69964  0.58059  1.0000
  C   C1017     1.0  0.08301  0.70522  0.58731  1.0000
  C   C1018     1.0  0.07658  0.69624  0.59485  1.0000
  C   C1019     1.0  0.07350  0.68794  0.58974  1.0000
  C   C1020     1.0  0.07639  0.68882  0.57701  1.0000
  C   C1021     1.0  0.08243  0.69811  0.56938  1.0000
  C   C1022     1.0  0.08597  0.70615  0.57455  1.0000
  H   H1719     1.0  0.07414  0.69558  0.60470  1.0000
  H   H1720     1.0  0.06893  0.68084  0.59569  1.0000
  H   H1721     1.0  0.08464  0.69892  0.55950  1.0000
  H   H1722     1.0  0.09088  0.71313  0.56865  1.0000
  C   C1023     1.0  0.10951  0.69808  0.52476  1.0000
  C   C1024     1.0  0.12230  0.69711  0.52191  1.0000
  C   C1025     1.0  0.12757  0.70450  0.52629  1.0000
  C   C1026     1.0  0.12016  0.71264  0.53387  1.0000
  C   C1027     1.0  0.10740  0.71339  0.53695  1.0000
  C   C1028     1.0  0.10210  0.70627  0.53226  1.0000
  H   H1723     1.0  0.12811  0.69087  0.51612  1.0000
  H   H1724     1.0  0.13745  0.70382  0.52389  1.0000
  H   H1725     1.0  0.10158  0.71961  0.54275  1.0000
  H   H1726     1.0  0.09219  0.70712  0.53449  1.0000
  C   C1029     1.0  0.15201  0.64738  0.52799  1.0000
  C   C1030     1.0  0.16052  0.64104  0.53543  1.0000
  C   C1031     1.0  0.16350  0.64700  0.54311  1.0000
  C   C1032     1.0  0.15818  0.65940  0.54320  1.0000
  C   C1033     1.0  0.14991  0.66587  0.53549  1.0000
  C   C1034     1.0  0.14663  0.65980  0.52806  1.0000
  H   H1727     1.0  0.16484  0.63151  0.53525  1.0000
  H   H1728     1.0  0.17019  0.64207  0.54869  1.0000
  H   H1729     1.0  0.14585  0.67551  0.53542  1.0000
  H   H1730     1.0  0.14008  0.66476  0.52228  1.0000
  C   C1035     1.0  0.08850  0.63075  0.53360  1.0000
  C   C1036     1.0  0.08717  0.63887  0.54129  1.0000
  C   C1037     1.0  0.08391  0.63497  0.55412  1.0000
  C   C1038     1.0  0.08241  0.62284  0.55921  1.0000
  C   C1039     1.0  0.08360  0.61481  0.55151  1.0000
  C   C1040     1.0  0.08648  0.61881  0.53873  1.0000
  H   H1731     1.0  0.08852  0.64819  0.53732  1.0000
  H   H1732     1.0  0.08281  0.64127  0.56005  1.0000
  H   H1733     1.0  0.08237  0.60546  0.55544  1.0000
  H   H1734     1.0  0.08745  0.61256  0.53278  1.0000
  C   C1041     1.0  0.12108  0.78861  0.59326  1.0000
  C   C1042     1.0  0.11305  0.79572  0.58553  1.0000
  C   C1043     1.0  0.10825  0.79001  0.57886  1.0000
  C   C1044     1.0  0.11133  0.77714  0.57989  1.0000
  C   C1045     1.0  0.11943  0.77006  0.58755  1.0000
  C   C1046     1.0  0.12433  0.77578  0.59412  1.0000
  H   H1735     1.0  0.11081  0.80563  0.58445  1.0000
  H   H1736     1.0  0.10220  0.79560  0.57277  1.0000
  H   H1737     1.0  0.12198  0.76017  0.58837  1.0000
  H   H1738     1.0  0.13065  0.77020  0.59994  1.0000
  C   C1047     1.0  0.11651  0.87062  0.59886  1.0000
  C   C1048     1.0  0.11415  0.88331  0.59382  1.0000
  C   C1049     1.0  0.11758  0.89161  0.59878  1.0000
  C   C1050     1.0  0.12400  0.88715  0.60839  1.0000
  C   C1051     1.0  0.12683  0.87441  0.61301  1.0000
  C   C1052     1.0  0.12284  0.86619  0.60852  1.0000
  H   H1739     1.0  0.10978  0.88671  0.58600  1.0000
  H   H1740     1.0  0.11558  0.90140  0.59493  1.0000
  H   H1741     1.0  0.13218  0.87084  0.62003  1.0000
  H   H1742     1.0  0.12492  0.85641  0.61231  1.0000
  C   C1053     1.0  0.04409  0.92524  0.61537  1.0000
  C   C1054     1.0  0.04456  0.93601  0.60629  1.0000
  C   C1055     1.0  0.05592  0.93899  0.59984  1.0000
  C   C1056     1.0  0.06697  0.93152  0.60270  1.0000
  C   C1057     1.0  0.06660  0.92075  0.61190  1.0000
  C   C1058     1.0  0.05514  0.91756  0.61820  1.0000
  H   H1743     1.0  0.03609  0.94205  0.60415  1.0000
  H   H1744     1.0  0.05613  0.94724  0.59266  1.0000
  H   H1745     1.0  0.07513  0.91481  0.61401  1.0000
  H   H1746     1.0  0.05484  0.90931  0.62534  1.0000
  C   C1059     1.0  0.05193  0.85804  0.60912  1.0000
  C   C1060     1.0  0.04605  0.85002  0.61892  1.0000
  C   C1061     1.0  0.05306  0.83955  0.62522  1.0000
  C   C1062     1.0  0.06593  0.83736  0.62195  1.0000
  C   C1063     1.0  0.07177  0.84544  0.61222  1.0000
  C   C1064     1.0  0.06477  0.85562  0.60563  1.0000
  H   H1747     1.0  0.03610  0.85185  0.62156  1.0000
  H   H1748     1.0  0.04851  0.83330  0.63273  1.0000
  H   H1749     1.0  0.08167  0.84403  0.60981  1.0000
  H   H1750     1.0  0.06934  0.86182  0.59811  1.0000
  C   C1065     1.0  0.05120  0.88607  0.68020  1.0000
  C   C1066     1.0  0.04922  0.87411  0.68539  1.0000
  C   C1067     1.0  0.04237  0.86894  0.68024  1.0000
  C   C1068     1.0  0.03788  0.87548  0.66959  1.0000
  C   C1069     1.0  0.03984  0.88743  0.66444  1.0000
  C   C1070     1.0  0.04622  0.89274  0.66990  1.0000
  H   H1751     1.0  0.05263  0.86904  0.69361  1.0000
  H   H1752     1.0  0.04050  0.85988  0.68456  1.0000
  H   H1753     1.0  0.03622  0.89268  0.65638  1.0000
  H   H1754     1.0  0.04726  0.90209  0.66614  1.0000
  C   C1071     1.0  0.11078  0.90827  0.67073  1.0000
  C   C1072     1.0  0.11849  0.91480  0.66124  1.0000
  C   C1073     1.0  0.11336  0.92511  0.65314  1.0000
  C   C1074     1.0  0.10054  0.92909  0.65480  1.0000
  C   C1075     1.0  0.09285  0.92278  0.66451  1.0000
  C   C1076     1.0  0.09797  0.91222  0.67231  1.0000
  H   H1755     1.0  0.12841  0.91174  0.65997  1.0000
  H   H1756     1.0  0.11934  0.92995  0.64562  1.0000
  H   H1757     1.0  0.08295  0.92575  0.66575  1.0000
  H   H1758     1.0  0.09195  0.90711  0.67943  1.0000
  C   C1077     1.0  0.10913  0.83680  0.68081  1.0000
  C   C1078     1.0  0.11663  0.82508  0.68063  1.0000
  C   C1079     1.0  0.12218  0.82131  0.66948  1.0000
  C   C1080     1.0  0.11993  0.82899  0.65833  1.0000
  C   C1081     1.0  0.11229  0.84074  0.65839  1.0000
  C   C1082     1.0  0.10707  0.84473  0.66962  1.0000
  H   H1759     1.0  0.11824  0.81889  0.68921  1.0000
  H   H1760     1.0  0.12816  0.81230  0.66954  1.0000
  H   H1761     1.0  0.11063  0.84681  0.64978  1.0000
  H   H1762     1.0  0.10109  0.85372  0.66970  1.0000
  H   H1763     1.0  0.10774  0.92880  0.68416  1.0000
  C   C1083     1.0  0.14841  0.96837  0.61218  1.0000
  C   C1084     1.0  0.14215  0.96215  0.60747  1.0000
  C   C1085     1.0  0.13728  0.96798  0.59695  1.0000
  H   H1764     1.0  0.15214  0.96378  0.62032  1.0000
  H   H1765     1.0  0.14115  0.95283  0.61195  1.0000
  C   C1086     1.0  0.22207  0.62167  0.61694  1.0000
  C   C1087     1.0  0.22815  0.62604  0.60498  1.0000
  C   C1088     1.0  0.22237  0.62835  0.59502  1.0000
  C   C1089     1.0  0.21037  0.62650  0.59695  1.0000
  C   C1090     1.0  0.20404  0.62258  0.60895  1.0000
  C   C1091     1.0  0.20989  0.62016  0.61893  1.0000
  H   H1766     1.0  0.08020  0.88061  0.58206  1.0000
  H   H1767     1.0  0.22724  0.63155  0.58578  1.0000
  H   H1768     1.0  0.19477  0.62110  0.61051  1.0000
  H   H1769     1.0  0.20507  0.61689  0.62818  1.0000
  N   N72       1.0  0.07236  0.80462  0.60431  1.0000
  C   C1092     1.0  0.07739  0.79670  0.61540  1.0000
  C   C1093     1.0  0.05916  0.81056  0.60899  1.0000
  C   C1094     1.0  0.07982  0.81449  0.59864  1.0000
  C   C1095     1.0  0.07364  0.79655  0.59539  1.0000
  C   C1096     1.0  0.09130  0.79081  0.61304  1.0000
  C   C1097     1.0  0.05053  0.80158  0.61601  1.0000
  C   C1098     1.0  0.07584  0.82438  0.58768  1.0000
  C   C1099     1.0  0.06518  0.80125  0.58589  1.0000
  H   H1770     1.0  0.07565  0.80208  0.62268  1.0000
  H   H1771     1.0  0.07260  0.78888  0.61969  1.0000
  H   H1772     1.0  0.05475  0.81684  0.60154  1.0000
  H   H1773     1.0  0.05882  0.81664  0.61527  1.0000
  H   H1774     1.0  0.07985  0.81945  0.60574  1.0000
  H   H1775     1.0  0.08961  0.81038  0.59517  1.0000
  H   H1776     1.0  0.08333  0.79468  0.59016  1.0000
  H   H1777     1.0  0.07179  0.78732  0.60050  1.0000
  H   H1778     1.0  0.09350  0.78417  0.62150  1.0000
  H   H1779     1.0  0.09404  0.78558  0.60557  1.0000
  H   H1780     1.0  0.09707  0.79778  0.61105  1.0000
  H   H1781     1.0  0.05126  0.79433  0.61097  1.0000
  H   H1782     1.0  0.05234  0.79726  0.62537  1.0000
  H   H1783     1.0  0.04082  0.80682  0.61725  1.0000
  H   H1784     1.0  0.07739  0.82043  0.57945  1.0000
  H   H1785     1.0  0.08180  0.83128  0.58507  1.0000
  H   H1786     1.0  0.06625  0.82960  0.58994  1.0000
  H   H1787     1.0  0.07060  0.79915  0.57687  1.0000
  H   H1788     1.0  0.06122  0.81123  0.58418  1.0000
  H   H1789     1.0  0.05760  0.79610  0.58854  1.0000
  N   N73       1.0  0.13482  0.86888  0.65146  1.0000
  C   C1100     1.0  0.13974  0.85534  0.65140  1.0000
  C   C1101     1.0  0.13545  0.87080  0.66374  1.0000
  C   C1102     1.0  0.14301  0.87617  0.64119  1.0000
  C   C1103     1.0  0.12175  0.87215  0.64949  1.0000
  C   C1104     1.0  0.14120  0.85145  0.63913  1.0000
  C   C1105     1.0  0.12841  0.86317  0.67527  1.0000
  C   C1106     1.0  0.14424  0.88866  0.64296  1.0000
  C   C1107     1.0  0.11462  0.88540  0.65003  1.0000
  H   H1790     1.0  0.14892  0.85223  0.65403  1.0000
  H   H1791     1.0  0.13362  0.84961  0.65834  1.0000
  H   H1792     1.0  0.13195  0.88057  0.66442  1.0000
  H   H1793     1.0  0.14524  0.86870  0.66470  1.0000
  H   H1794     1.0  0.15267  0.87079  0.63949  1.0000
  H   H1795     1.0  0.13996  0.87801  0.63236  1.0000
  H   H1796     1.0  0.12150  0.87079  0.64036  1.0000
  H   H1797     1.0  0.11616  0.86589  0.65630  1.0000
  H   H1798     1.0  0.14723  0.85648  0.63135  1.0000
  H   H1799     1.0  0.14559  0.84150  0.64014  1.0000
  H   H1800     1.0  0.13215  0.85245  0.63680  1.0000
  H   H1801     1.0  0.12876  0.86629  0.68351  1.0000
  H   H1802     1.0  0.11855  0.86452  0.67511  1.0000
  H   H1803     1.0  0.13270  0.85320  0.67667  1.0000
  H   H1804     1.0  0.15013  0.88727  0.64969  1.0000
  H   H1805     1.0  0.13531  0.89472  0.64593  1.0000
  H   H1806     1.0  0.14881  0.89376  0.63403  1.0000
  H   H1807     1.0  0.11384  0.88774  0.65896  1.0000
  H   H1808     1.0  0.10505  0.88630  0.64897  1.0000
  H   H1809     1.0  0.11867  0.89220  0.64233  1.0000
  N   N74       1.0  0.10912  0.68773  0.62015  1.0000
  C   C1108     1.0  0.09751  0.68473  0.61885  1.0000
  C   C1109     1.0  0.11915  0.68418  0.60949  1.0000
  C   C1110     1.0  0.10671  0.70146  0.61951  1.0000
  C   C1111     1.0  0.11200  0.68053  0.63242  1.0000
  C   C1112     1.0  0.08551  0.68930  0.62774  1.0000
  C   C1113     1.0  0.12316  0.67026  0.60955  1.0000
  C   C1114     1.0  0.11794  0.70767  0.61535  1.0000
  C   C1115     1.0  0.12434  0.68098  0.63510  1.0000
  H   H1810     1.0  0.09585  0.68870  0.60934  1.0000
  H   H1811     1.0  0.09838  0.67460  0.62027  1.0000
  H   H1812     1.0  0.12766  0.68724  0.60897  1.0000
  H   H1813     1.0  0.11633  0.68904  0.60058  1.0000
  H   H1814     1.0  0.10064  0.70658  0.61290  1.0000
  H   H1815     1.0  0.10156  0.70373  0.62856  1.0000
  H   H1816     1.0  0.10478  0.68385  0.64007  1.0000
  H   H1817     1.0  0.11150  0.67067  0.63395  1.0000
  H   H1818     1.0  0.08600  0.68544  0.63753  1.0000
  H   H1819     1.0  0.08293  0.69952  0.62606  1.0000
  H   H1820     1.0  0.07783  0.68614  0.62609  1.0000
  H   H1821     1.0  0.11558  0.66622  0.60905  1.0000
  H   H1822     1.0  0.13053  0.66889  0.60131  1.0000
  H   H1823     1.0  0.12719  0.66501  0.61765  1.0000
  H   H1824     1.0  0.11493  0.71729  0.61680  1.0000
  H   H1825     1.0  0.12172  0.70836  0.60533  1.0000
  H   H1826     1.0  0.12335  0.68905  0.63916  1.0000
  H   H1827     1.0  0.13200  0.68102  0.62698  1.0000
  H   H1828     1.0  0.12739  0.67243  0.64171  1.0000
  C   C1116     1.0  0.11152  0.62750  0.56578  1.0000
  H   H1829     1.0  0.10726  0.61976  0.57174  1.0000
  H   H1830     1.0  0.11825  0.62910  0.57021  1.0000
  H   H1831     1.0  0.11397  0.93455  0.69370  1.0000
  S   S350      1.0  0.01076  0.89695  0.64266  1.0000
  H   H1832     1.0  0.16475  0.80245  0.60299  1.0000
  H   H1833     1.0  0.17347  0.64699  0.63664  1.0000
  C   C1117     1.0  0.18499  0.66003  0.62592  1.0000
  H   H1834     1.0  0.05465  0.62946  0.54260  1.0000
  H   H1835     1.0  0.07737  0.91618  0.72352  1.0000
  H   H1836     1.0  0.08127  0.98157  0.63624  1.0000
  Fe  Fe176     1.0  0.00473  0.88962  0.62919  1.0000
  H   H1837     1.0  0.02571  0.61658  0.54831  1.0000
  H   H1838     1.0  0.01473  0.84879  0.66955  1.0000
  H   H1839     1.0  0.21418  0.58444  0.59122  1.0000
  H   H1840     1.0  0.09310  0.80899  0.65908  1.0000
  H   H1841     1.0  0.22121  0.65160  0.60346  1.0000
  H   H1842     1.0  0.12580  0.61121  0.52253  1.0000
  H   H1843     1.0  0.12042  0.97508  0.64385  1.0000
  H   H1844     1.0  0.22231  0.58715  0.60804  1.0000
  H   H1845     1.0  0.17827  0.68598  0.61782  1.0000
  H   H1846     1.0  0.04161  0.61376  0.54896  1.0000
  H   H1847     1.0  0.00814  0.84791  0.65751  1.0000
  H   H1848     1.0  0.20684  0.64380  0.62215  1.0000
  C   C1118     1.0  0.23534  0.56875  0.59454  1.0000
  C   C1119     1.0  0.20729  0.65364  0.62046  1.0000
  H   H1849     1.0  0.02151  0.68465  0.61497  1.0000
  H   H1850     1.0  0.19858  0.67715  0.62195  1.0000
  H   H1851     1.0  0.08528  0.92846  0.72052  1.0000
  H   H1852     1.0  0.11650  0.96942  0.61498  1.0000
  C   C1120     1.0  0.11914  0.97113  0.63652  1.0000
  H   H1853     1.0  0.22579  0.60737  0.58078  1.0000
  H   H1854     1.0  0.11450  0.71820  0.49966  1.0000
  C   C1121     1.0  0.01139  0.61443  0.64350  1.0000
  C   C1122     1.0  0.08830  0.97798  0.64207  1.0000
  N   N75       1.0  0.10956  0.91314  0.71470  1.0000
  C   C1123     1.0  0.11942  0.90229  0.71877  1.0000
  C   C1124     1.0  0.11111  0.92415  0.71856  1.0000
  C   C1125     1.0  0.11136  0.91546  0.70082  1.0000
  C   C1126     1.0  0.09719  0.90989  0.72087  1.0000
  C   C1127     1.0  0.12122  0.89067  0.71359  1.0000
  N   N76       1.0  0.19617  0.66186  0.61576  1.0000
  H   H1855     1.0  0.06572  0.89636  0.60891  1.0000
  H   H1856     1.0  0.08409  0.87356  0.60052  1.0000
  H   H1857     1.0  0.12858  0.90495  0.71622  1.0000
  C   C1128     1.0  0.22987  0.59229  0.60474  1.0000
  H   H1858     1.0  0.10408  0.93248  0.71594  1.0000
  H   H1859     1.0  0.12020  0.92652  0.71360  1.0000
  H   H1860     1.0  0.12129  0.91273  0.69648  1.0000
  H   H1861     1.0  0.10649  0.90962  0.69822  1.0000
  H   H1862     1.0  0.09637  0.90150  0.71836  1.0000
  C   C1129     1.0  0.21419  0.59437  0.58796  1.0000
  H   H1863     1.0  0.12503  0.89214  0.70355  1.0000
  H   H1864     1.0  0.12802  0.88317  0.71799  1.0000
  H   H1865     1.0  0.11263  0.88719  0.71565  1.0000
  H   H1866     1.0  0.04629  0.89696  0.58583  1.0000
  H   H1867     1.0  0.20525  0.67726  0.60637  1.0000
  H   H1868     1.0  0.18845  0.69389  0.60574  1.0000
  H   H1869     1.0  0.22519  0.60193  0.60536  1.0000
  N   N77       1.0  0.23634  0.59174  0.59161  1.0000
  H   H1870     1.0  0.22836  0.56959  0.60309  1.0000
  H   H1871     1.0  0.01951  0.58358  0.67111  1.0000
  H   H1872     1.0  0.10770  0.95925  0.65052  1.0000
  C   C1130     1.0  0.19711  0.67515  0.61352  1.0000
  N   N78       1.0  0.16549  0.70947  0.54542  1.0000
  C   C1131     1.0  0.16323  0.70940  0.53310  1.0000
  C   C1132     1.0  0.15753  0.72093  0.54962  1.0000
  C   C1133     1.0  0.16219  0.69838  0.55494  1.0000
  C   C1134     1.0  0.17898  0.70913  0.54409  1.0000
  C   C1135     1.0  0.16982  0.69774  0.52786  1.0000
  C   C1136     1.0  0.16044  0.73330  0.54161  1.0000
  C   C1137     1.0  0.14930  0.69604  0.55602  1.0000
  C   C1138     1.0  0.18265  0.71093  0.55541  1.0000
  H   H1873     1.0  0.15318  0.71082  0.53341  1.0000
  H   H1874     1.0  0.16625  0.71727  0.52599  1.0000
  H   H1875     1.0  0.15778  0.72070  0.55931  1.0000
  H   H1876     1.0  0.14768  0.72148  0.54980  1.0000
  H   H1877     1.0  0.16903  0.68981  0.55329  1.0000
  H   H1878     1.0  0.16255  0.69920  0.56425  1.0000
  H   H1879     1.0  0.18467  0.70012  0.54215  1.0000
  H   H1880     1.0  0.18223  0.71617  0.53601  1.0000
  H   H1881     1.0  0.16738  0.68919  0.53408  1.0000
  H   H1882     1.0  0.16690  0.69855  0.51915  1.0000
  H   H1883     1.0  0.17998  0.69675  0.52559  1.0000
  H   H1884     1.0  0.15828  0.73503  0.53237  1.0000
  H   H1885     1.0  0.15444  0.74090  0.54605  1.0000
  H   H1886     1.0  0.17008  0.73402  0.54070  1.0000
  H   H1887     1.0  0.14760  0.68822  0.56383  1.0000
  H   H1888     1.0  0.14858  0.69344  0.54765  1.0000
  H   H1889     1.0  0.14185  0.70404  0.55789  1.0000
  H   H1890     1.0  0.17841  0.72022  0.55744  1.0000
  H   H1891     1.0  0.19281  0.71004  0.55349  1.0000
  H   H1892     1.0  0.18024  0.70385  0.56375  1.0000
  H   H1893     1.0  0.05606  0.93848  0.62674  1.0000
  H   H1894     1.0  0.16097  0.78947  0.59155  1.0000
  H   H1895     1.0  0.06530  0.90551  0.65199  1.0000
  H   H1896     1.0  0.06616  0.95624  0.61985  1.0000
  C   C1139     1.0  0.06806  0.94931  0.62827  1.0000
  H   H1897     1.0  0.06958  0.95424  0.63466  1.0000
  H   H1898     1.0  0.04442  0.89869  0.60151  1.0000
  H   H1899     1.0  0.08824  0.84368  0.65282  1.0000
  C   C1140     1.0  0.05707  0.94284  0.63388  1.0000
  H   H1900     1.0  0.05959  0.93174  0.66439  1.0000
  H   H1901     1.0  0.07058  0.92114  0.63426  1.0000
  H   H1902     1.0  0.15478  0.80452  0.63558  1.0000
  C   C1141     1.0  0.06961  0.92377  0.64316  1.0000
  C   C1142     1.0  0.17864  0.78760  0.62109  1.0000
  H   H1903     1.0  0.03140  0.94295  0.65237  1.0000
  H   H1904     1.0  0.07662  0.94273  0.62527  1.0000
  N   N79       1.0  0.05795  0.93339  0.64569  1.0000
  H   H1905     1.0  0.05848  0.91358  0.59419  1.0000
  H   H1906     1.0  0.06138  0.88452  0.60477  1.0000
  H   H1907     1.0  0.04870  0.95024  0.63488  1.0000
  H   H1908     1.0  0.04596  0.92254  0.65949  1.0000
  H   H1909     1.0  0.13964  0.62810  0.54874  1.0000
  H   H1910     1.0  0.07792  0.92749  0.64213  1.0000
  H   H1911     1.0  0.14525  0.78054  0.64555  1.0000
  H   H1912     1.0  0.06857  0.91297  0.66248  1.0000
  N   N80       1.0  0.11533  0.66764  0.57034  1.0000
  C   C1143     1.0  0.10904  0.67327  0.58145  1.0000
  C   C1144     1.0  0.12503  0.67487  0.56296  1.0000
  C   C1145     1.0  0.12123  0.65435  0.57484  1.0000
  C   C1146     1.0  0.10569  0.66845  0.56325  1.0000
  C   C1147     1.0  0.09980  0.66636  0.59126  1.0000
  C   C1148     1.0  0.12007  0.68850  0.55762  1.0000
  C   C1149     1.0  0.13221  0.64827  0.56588  1.0000
  C   C1150     1.0  0.11020  0.66494  0.55054  1.0000
  H   H1913     1.0  0.11600  0.67413  0.58618  1.0000
  H   H1914     1.0  0.10376  0.68279  0.57874  1.0000
  H   H1915     1.0  0.13076  0.67089  0.55505  1.0000
  H   H1916     1.0  0.13172  0.67447  0.56863  1.0000
  H   H1917     1.0  0.12480  0.65335  0.58325  1.0000
  H   H1918     1.0  0.11426  0.64842  0.57777  1.0000
  H   H1919     1.0  0.09914  0.66244  0.56863  1.0000
  H   H1920     1.0  0.09962  0.67777  0.56202  1.0000
  H   H1921     1.0  0.09601  0.67121  0.59903  1.0000
  H   H1922     1.0  0.09186  0.66624  0.58758  1.0000
  H   H1923     1.0  0.10417  0.65685  0.59513  1.0000
  H   H1924     1.0  0.12785  0.69257  0.55163  1.0000
  H   H1925     1.0  0.11346  0.68954  0.55175  1.0000
  H   H1926     1.0  0.11583  0.69399  0.56482  1.0000
  H   H1927     1.0  0.14041  0.65227  0.56439  1.0000
  H   H1928     1.0  0.13005  0.64882  0.55691  1.0000
  H   H1929     1.0  0.13500  0.63839  0.57011  1.0000
  H   H1930     1.0  0.11090  0.65495  0.55142  1.0000
  H   H1931     1.0  0.11900  0.66752  0.54526  1.0000
  H   H1932     1.0  0.10341  0.67015  0.54469  1.0000
  H   H1933     1.0  0.07581  0.92174  0.57766  1.0000
  H   H1934     1.0  0.21028  0.66701  0.59208  1.0000
  C   C1151     1.0  0.14334  0.79017  0.62654  1.0000
  H   H1935     1.0  0.11147  0.59280  0.56930  1.0000
  H   H1936     1.0  0.15176  0.60073  0.55720  1.0000
  C   C1152     1.0  0.10047  0.98284  0.61051  1.0000
  H   H1937     1.0  0.13566  0.79671  0.62252  1.0000
  H   H1938     1.0  0.14375  0.81190  0.62633  1.0000
  C   C1153     1.0  0.19462  0.65838  0.60455  1.0000
  H   H1939     1.0  0.20746  0.65529  0.62954  1.0000
  H   H1940     1.0  0.15822  0.61397  0.55427  1.0000
  H   H1941     1.0  0.06778  0.94212  0.65375  1.0000
  C   C1154     1.0  0.20208  0.66381  0.59188  1.0000
  C   C1155     1.0  0.18253  0.64681  0.63011  1.0000
  H   H1942     1.0  0.14412  0.78128  0.62397  1.0000
  C   C1156     1.0  0.15341  0.80664  0.62595  1.0000
  C   C1157     1.0  0.08277  0.91344  0.57548  1.0000
  H   H1943     1.0  0.03919  0.91144  0.59019  1.0000
  C   C1158     1.0  0.13198  0.61292  0.53826  1.0000
  H   H1944     1.0  0.19684  0.64819  0.60561  1.0000
  H   H1945     1.0  0.18475  0.66126  0.60375  1.0000
  H   H1946     1.0  0.18952  0.64038  0.63513  1.0000
  C   C1159     1.0  0.16545  0.78522  0.62618  1.0000
  H   H1947     1.0  0.13807  0.60368  0.53784  1.0000
  C   C1160     1.0  0.15152  0.61021  0.55161  1.0000
  H   H1948     1.0  0.18531  0.77862  0.62138  1.0000
  H   H1949     1.0  0.04082  0.94569  0.66676  1.0000
  N   N81       1.0  0.15515  0.79494  0.62144  1.0000
  H   H1950     1.0  0.07736  0.84293  0.64498  1.0000
  H   H1951     1.0  0.15234  0.78113  0.60469  1.0000
  H   H1952     1.0  0.20543  0.65660  0.58625  1.0000
  C   C1161     1.0  0.18585  0.68479  0.60969  1.0000
  H   H1953     1.0  0.19598  0.67142  0.58670  1.0000
  N   N82       1.0  0.03398  0.69218  0.58903  1.0000
  C   C1162     1.0  0.04095  0.70127  0.57968  1.0000
  C   C1163     1.0  0.03858  0.68000  0.58500  1.0000
  C   C1164     1.0  0.03721  0.69090  0.60128  1.0000
  C   C1165     1.0  0.02032  0.69705  0.58962  1.0000
  C   C1166     1.0  0.03901  0.71403  0.58277  1.0000
  C   C1167     1.0  0.03728  0.68020  0.57193  1.0000
  C   C1168     1.0  0.03164  0.68160  0.61221  1.0000
  C   C1169     1.0  0.01192  0.68747  0.59436  1.0000
  H   H1954     1.0  0.05106  0.69742  0.57812  1.0000
  H   H1955     1.0  0.03848  0.70310  0.57054  1.0000
  H   H1956     1.0  0.03407  0.67265  0.59133  1.0000
  H   H1957     1.0  0.04852  0.67654  0.58530  1.0000
  H   H1958     1.0  0.04741  0.68834  0.60041  1.0000
  H   H1959     1.0  0.03418  0.69983  0.60435  1.0000
  H   H1960     1.0  0.01672  0.70414  0.59540  1.0000
  H   H1961     1.0  0.01864  0.70187  0.58027  1.0000
  H   H1962     1.0  0.04307  0.72034  0.57447  1.0000
  H   H1963     1.0  0.02911  0.71826  0.58545  1.0000
  H   H1964     1.0  0.04451  0.68437  0.56484  1.0000
  H   H1965     1.0  0.03869  0.67059  0.57080  1.0000
  H   H1966     1.0  0.02804  0.68512  0.57012  1.0000
  C   C1170     1.0  0.10742  0.92885  0.69389  1.0000
  C   C1171     1.0  0.10815  0.71693  0.49447  1.0000
  H   H1967     1.0  0.01741  0.59940  0.66359  1.0000
  H   H1968     1.0  0.09782  0.69368  0.49410  1.0000
  H   H1969     1.0  0.09797  0.93339  0.69773  1.0000
  H   H1970     1.0  0.17642  0.66594  0.62308  1.0000
  H   H1971     1.0  0.04396  0.71351  0.59005  1.0000
  C   C1172     1.0  0.07074  0.84761  0.68259  1.0000
  H   H1972     1.0  0.07583  0.84712  0.68977  1.0000
  H   H1973     1.0  0.15991  0.82343  0.62350  1.0000
  H   H1974     1.0  0.18091  0.79290  0.62672  1.0000
  C   C1173     1.0  0.22003  0.65465  0.61214  1.0000
  H   H1975     1.0  0.00894  0.59995  0.63654  1.0000
  H   H1976     1.0  0.02874  0.60575  0.61138  1.0000
  C   C1174     1.0  0.07094  0.91160  0.65289  1.0000
  S   S351      1.0  0.00377  0.60604  0.61077  1.0000
  H   H1977     1.0  0.04455  0.95585  0.65197  1.0000
  H   H1978     1.0  0.03405  0.67214  0.61049  1.0000
  H   H1979     1.0  0.10084  0.98717  0.64567  1.0000
  H   H1980     1.0  0.22204  0.66395  0.61029  1.0000
  H   H1981     1.0  0.12535  0.70299  0.62049  1.0000
  H   H1982     1.0  0.13701  0.79650  0.64426  1.0000
  H   H1983     1.0  0.14882  0.80404  0.60450  1.0000
  C   C1175     1.0  0.04835  0.94943  0.65972  1.0000
  C   C1176     1.0  0.03439  0.93513  0.64764  1.0000
  H   H1984     1.0  0.11699  0.62410  0.52891  1.0000
  C   C1177     1.0  0.15992  0.78625  0.60169  1.0000
  C   C1178     1.0  0.12165  0.61428  0.53137  1.0000
  H   H1985     1.0  0.18029  0.79236  0.61131  1.0000
  H   H1986     1.0  0.07566  0.82828  0.68333  1.0000
  C   C1179     1.0  0.13866  0.61868  0.55416  1.0000
  C   C1180     1.0  0.04709  0.92711  0.64958  1.0000
  H   H1987     1.0  0.09193  0.91577  0.57404  1.0000
  H   H1988     1.0  0.18190  0.64310  0.62235  1.0000
  H   H1989     1.0  0.05590  0.84694  0.64819  1.0000
  H   H1990     1.0  0.13686  0.61917  0.56402  1.0000
  H   H1991     1.0  0.10405  0.63586  0.56533  1.0000
  N   N83       1.0  0.03790  0.62238  0.57071  1.0000
  C   C1181     1.0  0.03931  0.60988  0.57933  1.0000
  C   C1182     1.0  0.02847  0.62292  0.56346  1.0000
  C   C1183     1.0  0.03287  0.63188  0.57866  1.0000
  C   C1184     1.0  0.05036  0.62395  0.56278  1.0000
  C   C1185     1.0  0.04964  0.60657  0.58671  1.0000
  C   C1186     1.0  0.03220  0.61382  0.55469  1.0000
  C   C1187     1.0  0.03026  0.64551  0.57205  1.0000
  C   C1188     1.0  0.05069  0.63388  0.55069  1.0000
  H   H1992     1.0  0.03046  0.60882  0.58602  1.0000
  H   H1993     1.0  0.04151  0.60234  0.57422  1.0000
  H   H1994     1.0  0.02586  0.63220  0.55780  1.0000
  H   H1995     1.0  0.01964  0.62119  0.56985  1.0000
  H   H1996     1.0  0.02408  0.63008  0.58505  1.0000
  H   H1997     1.0  0.03932  0.63135  0.58457  1.0000
  H   H1998     1.0  0.05597  0.62604  0.56825  1.0000
  H   H1999     1.0  0.05563  0.61508  0.56011  1.0000
  H   H2000     1.0  0.05890  0.60492  0.58062  1.0000
  H   H2001     1.0  0.04923  0.61355  0.59192  1.0000
  H   H2002     1.0  0.04883  0.59783  0.59354  1.0000
  H   H2003     1.0  0.03144  0.60432  0.55978  1.0000
  H   H2004     1.0  0.01226  0.58427  0.65329  1.0000
  H   H2005     1.0  0.10646  0.98848  0.60329  1.0000
  H   H2006     1.0  0.02321  0.64764  0.56640  1.0000
  H   H2007     1.0  0.03882  0.64852  0.56652  1.0000
  H   H2008     1.0  0.02649  0.65122  0.57917  1.0000
  H   H2009     1.0  0.01123  0.62258  0.63575  1.0000
  C   C1189     1.0  0.13885  0.98003  0.59115  1.0000
  C   C1190     1.0  0.10770  0.97413  0.62013  1.0000
  H   H2010     1.0  0.17138  0.81199  0.61660  1.0000
  N   N84       1.0  0.12818  0.61488  0.55135  1.0000
  H   H2011     1.0  0.16401  0.78395  0.63634  1.0000
  H   H2012     1.0  0.05708  0.63984  0.55030  1.0000
  C   C1191     1.0  0.14492  0.98634  0.59599  1.0000
  H   H2013     1.0  0.16537  0.77596  0.62489  1.0000
  H   H2014     1.0  0.13761  0.61966  0.53234  1.0000
  C   C1192     1.0  0.15708  0.79759  0.60757  1.0000
  H   H2015     1.0  0.08069  0.90652  0.65124  1.0000
  H   H2016     1.0  0.15489  0.60998  0.54170  1.0000
  H   H2017     1.0  0.08222  0.89307  0.56255  1.0000
  C   C1193     1.0  0.13881  0.78799  0.64067  1.0000
  H   H2018     1.0  0.13410  0.59548  0.55884  1.0000
  H   H2019     1.0  0.05460  0.84817  0.67020  1.0000
  H   H2020     1.0  0.02734  0.92932  0.65144  1.0000
  C   C1194     1.0  0.05910  0.90713  0.58824  1.0000
  C   C1195     1.0  0.04664  0.90313  0.59166  1.0000
  C   C1196     1.0  0.05868  0.83930  0.66727  1.0000
  H   H2021     1.0  0.13519  0.98461  0.58296  1.0000
  H   H2022     1.0  0.03420  0.93856  0.63772  1.0000
  H   H2023     1.0  0.18556  0.66294  0.63424  1.0000
  H   H2024     1.0  0.12986  0.78499  0.64307  1.0000
  H   H2025     1.0  0.05195  0.95525  0.66373  1.0000
  C   C1197     1.0  0.05896  0.93891  0.65583  1.0000
  Fe  Fe177     1.0  0.12077  0.66076  0.48784  1.0000
  C   C1198     1.0  0.07692  0.83674  0.67610  1.0000
  H   H2026     1.0  0.07250  0.81702  0.67032  1.0000
  H   H2027     1.0  0.04275  0.84263  0.65905  1.0000
  C   C1199     1.0  0.08574  0.91967  0.71799  1.0000
  C   C1200     1.0  0.07250  0.89297  0.56740  1.0000
  H   H2028     1.0  0.09015  0.89501  0.58427  1.0000
  H   H2029     1.0  0.08209  0.91174  0.56669  1.0000
  H   H2030     1.0  0.06668  0.90221  0.56511  1.0000
  C   C1201     1.0  0.11481  0.59823  0.56004  1.0000
  C   C1202     1.0  0.06876  0.88988  0.60250  1.0000
  H   H2031     1.0  0.22722  0.64822  0.61695  1.0000
  C   C1203     1.0  0.16140  0.81605  0.61833  1.0000
  H   H2032     1.0  0.07318  0.86373  0.64287  1.0000
  H   H2033     1.0  0.12529  0.60383  0.57001  1.0000
  H   H2034     1.0  0.07927  0.86321  0.65595  1.0000
  C   C1204     1.0  0.05295  0.83989  0.65633  1.0000
  H   H2035     1.0  0.10675  0.60557  0.55814  1.0000
  H   H2036     1.0  0.06115  0.84698  0.68748  1.0000
  H   H2037     1.0  0.04869  0.91967  0.64440  1.0000
  H   H2038     1.0  0.15849  0.82068  0.60947  1.0000
  H   H2039     1.0  0.11732  0.59223  0.55322  1.0000
  C   C1205     1.0  0.08176  0.90221  0.58625  1.0000
  C   C1206     1.0  0.07168  0.88785  0.58132  1.0000
  H   H2040     1.0  0.06894  0.88694  0.56361  1.0000
  H   H2041     1.0  0.10940  0.62403  0.54931  1.0000
  C   C1207     1.0  0.12599  0.60312  0.56035  1.0000
  H   H2042     1.0  0.18237  0.68242  0.60266  1.0000
  H   H2043     1.0  0.20891  0.59940  0.59539  1.0000
  N   N85       1.0  0.07259  0.83658  0.66483  1.0000
  H   H2044     1.0  0.08694  0.83650  0.67385  1.0000
  H   H2045     1.0  0.16869  0.77990  0.60341  1.0000
  H   H2046     1.0  0.06360  0.86183  0.65758  1.0000
  H   H2047     1.0  0.08261  0.90536  0.59433  1.0000
  H   H2048     1.0  0.06421  0.88250  0.58470  1.0000
  H   H2049     1.0  0.08767  0.88527  0.60613  1.0000
  H   H2050     1.0  0.07764  0.87554  0.61589  1.0000
  C   C1208     1.0  0.11711  0.62533  0.55261  1.0000
  C   C1209     1.0  0.07702  0.82360  0.66260  1.0000
  H   H2051     1.0  0.05495  0.83084  0.65373  1.0000
  H   H2052     1.0  0.11469  0.60872  0.53654  1.0000
  N   N86       1.0  0.07034  0.89688  0.58926  1.0000
  H   H2053     1.0  0.11943  0.63409  0.54661  1.0000
  H   H2054     1.0  0.99850  0.57561  0.64823  1.0000
  C   C1210     1.0  0.23805  0.58755  0.61442  1.0000
  C   C1211     1.0  0.00297  0.60640  0.64246  1.0000
  H   H2055     1.0  0.08521  0.92122  0.70820  1.0000
  H   H2056     1.0  0.07440  0.82285  0.65427  1.0000
  H   H2057     1.0  0.09635  0.82393  0.65269  1.0000
  C   C1212     1.0  0.08029  0.88060  0.60627  1.0000
  H   H2058     1.0  0.05967  0.91298  0.57886  1.0000
  C   C1213     1.0  0.07812  0.84516  0.65360  1.0000
  C   C1214     1.0  0.09110  0.81846  0.66082  1.0000
  C   C1215     1.0  0.07321  0.85918  0.65267  1.0000
  H   H2059     1.0  0.09469  0.81769  0.66912  1.0000
  H   H2060     1.0  0.10537  0.72592  0.48837  1.0000
  H   H2061     1.0  0.11499  0.95344  0.63640  1.0000
  H   H2062     1.0  0.12368  0.95270  0.64732  1.0000
  C   C1216     1.0  0.14962  0.98057  0.60663  1.0000
  H   H2063     1.0  0.12843  0.96918  0.63051  1.0000
  H   H2064     1.0  0.00630  0.59410  0.67710  1.0000
  H   H2065     1.0  0.04178  0.64005  0.54941  1.0000
  H   H2066     1.0  0.20903  0.59789  0.58037  1.0000
  C   C1217     1.0  0.00526  0.58887  0.66033  1.0000
  H   H2067     1.0  0.23101  0.59409  0.57420  1.0000
  H   H2068     1.0  0.09746  0.97729  0.60570  1.0000
  H   H2069     1.0  0.00031  0.58162  0.66649  1.0000
  C   C1218     1.0  0.01245  0.59189  0.66841  1.0000
  H   H2070     1.0  0.00841  0.61834  0.65185  1.0000
  N   N87       1.0  0.11025  0.98019  0.62913  1.0000
  H   H2071     1.0  0.00967  0.68512  0.58653  1.0000
  H   H2072     1.0  0.11729  0.69802  0.49405  1.0000
  H   H2073     1.0  0.23208  0.58763  0.62373  1.0000
  S   S352      1.0  0.13012  0.66873  0.49817  1.0000
  C   C1219     1.0  0.11593  0.95851  0.64297  1.0000
  H   H2074     1.0  0.10262  0.96664  0.62478  1.0000
  H   H2075     1.0  0.24155  0.60903  0.58993  1.0000
  H   H2076     1.0  0.03550  0.68106  0.62029  1.0000
  H   H2077     1.0  0.09140  0.96795  0.64278  1.0000
  H   H2078     1.0  0.10003  0.71440  0.50148  1.0000
  C   C1220     1.0  0.09609  0.70136  0.48613  1.0000
  H   H2079     1.0  0.08333  0.97935  0.65145  1.0000
  S   S353      1.0  0.15630  0.98846  0.61375  1.0000
  C   C1221     1.0  0.24583  0.59971  0.58795  1.0000
  H   H2080     1.0  0.09008  0.70923  0.49018  1.0000
  C   C1222     1.0  0.24301  0.57886  0.59018  1.0000
  H   H2081     1.0  0.09618  0.90749  0.73101  1.0000
  H   H2082     1.0  0.00292  0.69171  0.59962  1.0000
  C   C1223     1.0  0.11491  0.70668  0.48720  1.0000
  H   H2083     1.0  0.23085  0.56846  0.58718  1.0000
  H   H2084     1.0  0.11747  0.89918  0.72898  1.0000
  C   C1224     1.0  0.09862  0.98548  0.63746  1.0000
  H   H2085     1.0  0.24157  0.55968  0.59688  1.0000
  H   H2086     1.0  0.09213  0.98892  0.61476  1.0000
  H   H2087     1.0  0.24327  0.57797  0.61436  1.0000
  H   H2088     1.0  0.00529  0.86953  0.65797  1.0000
  H   H2089     1.0  0.24447  0.59368  0.61327  1.0000
  C   C1225     1.0  0.99954  0.86418  0.66581  1.0000
  H   H2090     1.0  0.11148  0.93151  0.73402  1.0000
  C   C1226     1.0  0.00582  0.85044  0.66665  1.0000
  H   H2091     1.0  0.07999  0.69468  0.48651  1.0000
  H   H2092     1.0  0.12431  0.98734  0.61439  1.0000
  H   H2093     1.0  0.00059  0.86663  0.67418  1.0000
  H   H2094     1.0  0.00019  0.84424  0.67352  1.0000
  C   C1227     1.0  0.11042  0.92274  0.73244  1.0000
  H   H2095     1.0  0.24643  0.60583  0.56787  1.0000
  H   H2096     1.0  0.99821  0.58738  0.63419  1.0000
  Fe  Fe178     1.0  0.13453  0.97058  0.82106  1.0000
  H   H2097     1.0  0.12773  0.91217  0.83674  1.0000
  S   S354      1.0  0.12362  0.95740  0.82003  1.0000
  Fe  Fe179     1.0  0.14278  0.97745  0.84086  1.0000
  H   H2098     1.0  0.17166  0.93579  0.77800  1.0000
  S   S355      1.0  0.13994  0.97446  0.86138  1.0000
  Fe  Fe180     1.0  0.15947  0.97693  0.81582  1.0000
  S   S356      1.0  0.17839  0.97045  0.80525  1.0000
  H   H2099     1.0  0.21257  0.94176  0.76900  1.0000
  S   S357      1.0  0.15076  0.96256  0.83006  1.0000
  H   H2100     1.0  0.13021  0.91625  0.94636  1.0000
  H   H2101     1.0  0.08395  0.86167  0.81837  1.0000
  C   C1228     1.0  0.17490  0.96028  0.86359  1.0000
  S   S358      1.0  0.20224  0.90634  0.83238  1.0000
  C   C1229     1.0  0.13094  0.91057  0.93971  1.0000
  Fe  Fe181     1.0  0.21320  0.88846  0.84065  1.0000
  S   S359      1.0  0.20211  0.87530  0.85355  1.0000
  H   H2102     1.0  0.10767  0.88258  0.79936  1.0000
  H   H2103     1.0  0.12120  0.86391  0.78869  1.0000
  H   H2104     1.0  0.08474  0.85602  0.80027  1.0000
  H   H2105     1.0  0.13080  0.84436  0.80101  1.0000
  Fe  Fe182     1.0  0.12415  0.89572  0.80379  1.0000
  S   S360      1.0  0.14114  0.90280  0.80144  1.0000
  S   S361      1.0  0.11072  0.89607  0.82206  1.0000
  Fe  Fe183     1.0  0.13192  0.88898  0.77839  1.0000
  S   S362      1.0  0.14994  0.89531  0.77433  1.0000
  S   S363      1.0  0.12884  0.87932  0.76460  1.0000
  Fe  Fe184     1.0  0.15122  0.88613  0.79387  1.0000
  S   S364      1.0  0.16796  0.87563  0.80171  1.0000
  Fe  Fe185     1.0  0.13843  0.91150  0.78232  1.0000
  S   S365      1.0  0.14270  0.93043  0.77527  1.0000
  S   S366      1.0  0.13437  0.87824  0.79745  1.0000
  S   S367      1.0  0.12027  0.90599  0.78513  1.0000
  Fe  Fe186     1.0  0.13395  0.89011  0.88231  1.0000
  S   S368      1.0  0.13949  0.90828  0.87839  1.0000
  S   S369      1.0  0.13928  0.88091  0.86596  1.0000
  Fe  Fe187     1.0  0.12619  0.88934  0.91010  1.0000
  S   S370      1.0  0.13118  0.90748  0.90806  1.0000
  S   S371      1.0  0.11864  0.88016  0.92958  1.0000
  Fe  Fe188     1.0  0.12214  0.91355  0.89182  1.0000
  S   S372      1.0  0.11019  0.93238  0.88820  1.0000
  Fe  Fe189     1.0  0.14796  0.90031  0.89494  1.0000
  S   S373      1.0  0.16684  0.90254  0.89468  1.0000
  S   S374      1.0  0.11569  0.89596  0.89467  1.0000
  S   S375      1.0  0.14379  0.88163  0.89810  1.0000
  S   S376      1.0  0.15645  0.86405  0.96528  1.0000
  H   H2106     1.0  0.09700  0.84342  0.80199  1.0000
  C   C1230     1.0  0.12909  0.87513  0.93960  1.0000
  C   C1231     1.0  0.12472  0.87506  0.95220  1.0000
  C   C1232     1.0  0.13299  0.87159  0.96024  1.0000
  C   C1233     1.0  0.14564  0.86782  0.95575  1.0000
  C   C1234     1.0  0.14992  0.86742  0.94324  1.0000
  C   C1235     1.0  0.14171  0.87125  0.93515  1.0000
  H   H2107     1.0  0.11496  0.87804  0.95568  1.0000
  H   H2108     1.0  0.12959  0.87202  0.96982  1.0000
  H   H2109     1.0  0.15967  0.86439  0.93973  1.0000
  H   H2110     1.0  0.14514  0.87112  0.92548  1.0000
  C   C1236     1.0  0.11752  0.88106  0.75584  1.0000
  C   C1237     1.0  0.10608  0.88922  0.75754  1.0000
  C   C1238     1.0  0.09689  0.88908  0.75147  1.0000
  H   H2111     1.0  0.13010  0.81806  0.97941  1.0000
  H   H2112     1.0  0.23916  0.92407  0.83555  1.0000
  H   H2113     1.0  0.11473  0.86177  0.80452  1.0000
  H   H2114     1.0  0.10418  0.89537  0.76381  1.0000
  N   N88       1.0  0.10260  0.86089  0.79308  1.0000
  C   C1239     1.0  0.10194  0.92632  0.86033  1.0000
  C   C1240     1.0  0.11843  0.89163  0.83446  1.0000
  C   C1241     1.0  0.11213  0.89392  0.84614  1.0000
  C   C1242     1.0  0.11844  0.89098  0.85588  1.0000
  C   C1243     1.0  0.13098  0.88540  0.85404  1.0000
  C   C1244     1.0  0.13715  0.88289  0.84246  1.0000
  C   C1245     1.0  0.13095  0.88603  0.83270  1.0000
  H   H2115     1.0  0.10237  0.89787  0.84764  1.0000
  H   H2116     1.0  0.11356  0.89266  0.86488  1.0000
  H   H2117     1.0  0.14684  0.87869  0.84093  1.0000
  H   H2118     1.0  0.13587  0.88402  0.82383  1.0000
  C   C1246     1.0  0.19250  0.88297  0.86494  1.0000
  C   C1247     1.0  0.17986  0.88335  0.86757  1.0000
  C   C1248     1.0  0.17202  0.88953  0.87657  1.0000
  C   C1249     1.0  0.17681  0.89514  0.88318  1.0000
  C   C1250     1.0  0.18949  0.89491  0.88045  1.0000
  C   C1251     1.0  0.19732  0.88896  0.87119  1.0000
  H   H2119     1.0  0.17608  0.87906  0.86251  1.0000
  H   H2120     1.0  0.16227  0.88982  0.87838  1.0000
  H   H2121     1.0  0.19326  0.89922  0.88553  1.0000
  H   H2122     1.0  0.20712  0.88871  0.86911  1.0000
  C   C1252     1.0  0.19443  0.89998  0.80005  1.0000
  C   C1253     1.0  0.19576  0.88798  0.80710  1.0000
  C   C1254     1.0  0.18767  0.88053  0.80746  1.0000
  C   C1255     1.0  0.17802  0.88513  0.80106  1.0000
  C   C1256     1.0  0.17647  0.89726  0.79428  1.0000
  C   C1257     1.0  0.18472  0.90462  0.79372  1.0000
  H   H2123     1.0  0.20324  0.88431  0.81199  1.0000
  H   H2124     1.0  0.18903  0.87115  0.81253  1.0000
  H   H2125     1.0  0.16906  0.90090  0.78929  1.0000
  H   H2126     1.0  0.18350  0.91393  0.78845  1.0000
  C   C1258     1.0  0.18742  0.96011  0.81522  1.0000
  C   C1259     1.0  0.19378  0.94867  0.81247  1.0000
  C   C1260     1.0  0.20092  0.94027  0.82046  1.0000
  C   C1261     1.0  0.20202  0.94342  0.83102  1.0000
  C   C1262     1.0  0.19588  0.95498  0.83362  1.0000
  C   C1263     1.0  0.18834  0.96322  0.82588  1.0000
  H   H2127     1.0  0.19307  0.94621  0.80427  1.0000
  H   H2128     1.0  0.20564  0.93141  0.81831  1.0000
  H   H2129     1.0  0.19687  0.95752  0.84167  1.0000
  H   H2130     1.0  0.18350  0.97211  0.82795  1.0000
  C   C1264     1.0  0.13200  0.96249  0.86881  1.0000
  C   C1265     1.0  0.12619  0.96159  0.88123  1.0000
  C   C1266     1.0  0.11955  0.95227  0.88720  1.0000
  C   C1267     1.0  0.11915  0.94352  0.88092  1.0000
  C   C1268     1.0  0.12540  0.94409  0.86865  1.0000
  C   C1269     1.0  0.13156  0.95375  0.86252  1.0000
  H   H2131     1.0  0.12659  0.96824  0.88618  1.0000
  H   H2132     1.0  0.11472  0.95183  0.89669  1.0000
  H   H2133     1.0  0.12510  0.93735  0.86377  1.0000
  H   H2134     1.0  0.13600  0.95436  0.85296  1.0000
  C   C1270     1.0  0.12864  0.95059  0.80713  1.0000
  C   C1271     1.0  0.13778  0.95448  0.79719  1.0000
  C   C1272     1.0  0.14175  0.94858  0.78714  1.0000
  C   C1273     1.0  0.13690  0.93856  0.78723  1.0000
  C   C1274     1.0  0.12772  0.93476  0.79714  1.0000
  C   C1275     1.0  0.12351  0.94085  0.80699  1.0000
  H   H2135     1.0  0.14169  0.96208  0.79719  1.0000
  H   H2136     1.0  0.09279  0.91912  0.84520  1.0000
  H   H2137     1.0  0.12377  0.92717  0.79717  1.0000
  H   H2138     1.0  0.11643  0.93784  0.81462  1.0000
  C   C1276     1.0  0.18276  0.95672  0.76822  1.0000
  H   H2139     1.0  0.10790  0.84708  0.78177  1.0000
  H   H2140     1.0  0.09600  0.85763  0.76596  1.0000
  H   H2141     1.0  0.19059  0.96150  0.76612  1.0000
  C   C1277     1.0  0.17498  0.95850  0.78099  1.0000
  H   H2142     1.0  0.10957  0.96005  0.84636  1.0000
  C   C1278     1.0  0.09320  0.86061  0.77493  1.0000
  H   H2143     1.0  0.14973  0.80741  0.96137  1.0000
  H   H2144     1.0  0.10678  0.92369  0.83693  1.0000
  H   H2145     1.0  0.15597  0.80437  0.97485  1.0000
  H   H2146     1.0  0.10006  0.91121  0.87612  1.0000
  H   H2147     1.0  0.16665  0.95211  0.88199  1.0000
  H   H2148     1.0  0.19936  0.92564  0.87837  1.0000
  H   H2149     1.0  0.14151  0.89716  0.96311  1.0000
  Fe  Fe190     1.0  0.21495  0.90329  0.81464  1.0000
  Fe  Fe191     1.0  0.21655  0.91478  0.83496  1.0000
  H   H2150     1.0  0.15777  0.89136  0.96332  1.0000
  H   H2151     1.0  0.15875  0.82582  0.95557  1.0000
  H   H2152     1.0  0.17192  0.96933  0.86638  1.0000
  C   C1279     1.0  0.09474  0.91662  0.86896  1.0000
  C   C1280     1.0  0.15880  0.93286  0.87588  1.0000
  H   H2153     1.0  0.11842  0.83691  0.98083  1.0000
  S   S377      1.0  0.22625  0.89715  0.84535  1.0000
  C   C1281     1.0  0.09409  0.85336  0.80247  1.0000
  H   H2154     1.0  0.09010  0.84535  0.82208  1.0000
  S   S378      1.0  0.21066  0.93275  0.84122  1.0000
  H   H2155     1.0  0.20002  0.93399  0.75280  1.0000
  H   H2156     1.0  0.15583  0.93096  0.93361  1.0000
  H   H2157     1.0  0.09235  0.89092  0.79915  1.0000
  H   H2158     1.0  0.17306  0.91793  0.85925  1.0000
  H   H2159     1.0  0.14938  0.90428  0.96988  1.0000
  H   H2160     1.0  0.12487  0.84142  0.78948  1.0000
  H   H2161     1.0  0.07100  0.94163  0.87284  1.0000
  C   C1282     1.0  0.11514  0.85850  0.79615  1.0000
  N   N89       1.0  0.15475  0.90441  0.93831  1.0000
  C   C1283     1.0  0.09807  0.88144  0.80076  1.0000
  C   C1284     1.0  0.09200  0.85422  0.81605  1.0000
  H   H2162     1.0  0.18100  0.92791  0.75309  1.0000
  H   H2163     1.0  0.15697  0.92894  0.89611  1.0000
  H   H2164     1.0  0.07908  0.94799  0.84719  1.0000
  C   C1285     1.0  0.09917  0.88120  0.74322  1.0000
  H   H2165     1.0  0.14204  0.92928  0.92993  1.0000
  C   C1286     1.0  0.11981  0.87324  0.74754  1.0000
  H   H2166     1.0  0.15461  0.93335  0.91799  1.0000
  C   C1287     1.0  0.16692  0.95138  0.87245  1.0000
  C   C1288     1.0  0.09058  0.93380  0.82981  1.0000
  C   C1289     1.0  0.19245  0.93394  0.87533  1.0000
  H   H2167     1.0  0.10057  0.95001  0.83512  1.0000
  C   C1290     1.0  0.17247  0.89905  0.83870  1.0000
  H   H2168     1.0  0.18009  0.95391  0.78846  1.0000
  C   C1291     1.0  0.17629  0.93797  0.76815  1.0000
  C   C1292     1.0  0.09692  0.92734  0.84082  1.0000
  N   N90       1.0  0.17038  0.93805  0.87125  1.0000
  C   C1293     1.0  0.15381  0.90885  0.94983  1.0000
  H   H2169     1.0  0.19261  0.94147  0.87965  1.0000
  S   S379      1.0  0.12578  0.98439  0.83303  1.0000
  N   N91       1.0  0.18728  0.94356  0.76667  1.0000
  H   H2170     1.0  0.16764  0.94176  0.85257  1.0000
  H   H2171     1.0  0.16522  0.89368  0.84340  1.0000
  S   S380      1.0  0.14378  0.98393  0.80587  1.0000
  H   H2172     1.0  0.11322  0.94049  0.84143  1.0000
  H   H2173     1.0  0.09212  0.92708  0.82385  1.0000
  H   H2174     1.0  0.17138  0.90164  0.81983  1.0000
  H   H2175     1.0  0.18483  0.95702  0.86368  1.0000
  C   C1294     1.0  0.19552  0.94353  0.75412  1.0000
  H   H2176     1.0  0.11197  0.86137  0.77399  1.0000
  H   H2177     1.0  0.09446  0.94173  0.82385  1.0000
  H   H2178     1.0  0.08561  0.92083  0.87391  1.0000
  H   H2179     1.0  0.17397  0.90417  0.84493  1.0000
  H   H2180     1.0  0.17693  0.96211  0.76145  1.0000
  H   H2181     1.0  0.14058  0.92212  0.84983  1.0000
  H   H2182     1.0  0.11124  0.92124  0.85641  1.0000
  H   H2183     1.0  0.19575  0.93650  0.86528  1.0000
  H   H2184     1.0  0.15046  0.93475  0.83112  1.0000
  H   H2185     1.0  0.11675  0.83888  0.80550  1.0000
  H   H2186     1.0  0.08045  0.93669  0.83278  1.0000
  H   H2187     1.0  0.12311  0.90573  0.94361  1.0000
  H   H2188     1.0  0.08793  0.89512  0.75319  1.0000
  H   H2189     1.0  0.18686  0.91908  0.76662  1.0000
  H   H2190     1.0  0.16896  0.94461  0.76368  1.0000
  H   H2191     1.0  0.17343  0.96205  0.85404  1.0000
  C   C1295     1.0  0.15042  0.89978  0.96211  1.0000
  C   C1296     1.0  0.17959  0.93070  0.87905  1.0000
  H   H2192     1.0  0.07570  0.95562  0.86439  1.0000
  N   N92       1.0  0.15784  0.91659  0.82672  1.0000
  C   C1297     1.0  0.15221  0.92760  0.92732  1.0000
  H   H2193     1.0  0.17790  0.91259  0.82303  1.0000
  H   H2194     1.0  0.10396  0.93141  0.86625  1.0000
  C   C1298     1.0  0.23407  0.91982  0.86124  1.0000
  Fe  Fe192     1.0  0.23760  0.89455  0.82673  1.0000
  H   H2195     1.0  0.10115  0.87951  0.78231  1.0000
  C   C1299     1.0  0.10458  0.85721  0.78089  1.0000
  H   H2196     1.0  0.16543  0.92794  0.83399  1.0000
  H   H2197     1.0  0.08687  0.87616  0.79147  1.0000
  H   H2198     1.0  0.17605  0.93172  0.88877  1.0000
  N   N93       1.0  0.17501  0.85413  0.84503  1.0000
  C   C1300     1.0  0.16568  0.86022  0.85480  1.0000
  C   C1301     1.0  0.17010  0.85883  0.83331  1.0000
  C   C1302     1.0  0.18680  0.85852  0.84318  1.0000
  C   C1303     1.0  0.17677  0.84035  0.84941  1.0000
  C   C1304     1.0  0.16791  0.85576  0.86812  1.0000
  C   C1305     1.0  0.15878  0.85409  0.83301  1.0000
  C   C1306     1.0  0.19825  0.85263  0.83458  1.0000
  C   C1307     1.0  0.18323  0.83228  0.83971  1.0000
  H   H2199     1.0  0.16488  0.87041  0.85230  1.0000
  H   H2200     1.0  0.15629  0.85880  0.85554  1.0000
  H   H2201     1.0  0.17719  0.85672  0.82513  1.0000
  H   H2202     1.0  0.16761  0.86911  0.83125  1.0000
  H   H2203     1.0  0.18530  0.86871  0.83967  1.0000
  H   H2204     1.0  0.18976  0.85686  0.85201  1.0000
  H   H2205     1.0  0.18216  0.83724  0.85685  1.0000
  H   H2206     1.0  0.16767  0.83774  0.85382  1.0000
  H   H2207     1.0  0.16696  0.84606  0.87194  1.0000
  H   H2208     1.0  0.17688  0.85689  0.86906  1.0000
  H   H2209     1.0  0.16071  0.86142  0.87411  1.0000
  H   H2210     1.0  0.15048  0.85701  0.83988  1.0000
  H   H2211     1.0  0.15630  0.85807  0.82385  1.0000
  H   H2212     1.0  0.16072  0.84394  0.83414  1.0000
  H   H2213     1.0  0.20199  0.84304  0.83896  1.0000
  H   H2214     1.0  0.20563  0.85786  0.83299  1.0000
  H   H2215     1.0  0.19668  0.85294  0.82542  1.0000
  H   H2216     1.0  0.19204  0.82642  0.84199  1.0000
  H   H2217     1.0  0.18531  0.83740  0.83012  1.0000
  H   H2218     1.0  0.17735  0.82590  0.83990  1.0000
  H   H2219     1.0  0.10011  0.85558  0.81863  1.0000
  H   H2220     1.0  0.18267  0.94185  0.85340  1.0000
  H   H2221     1.0  0.14723  0.90427  0.84057  1.0000
  H   H2222     1.0  0.16513  0.93702  0.79871  1.0000
  C   C1308     1.0  0.12211  0.84495  0.79811  1.0000
  C   C1309     1.0  0.17907  0.92600  0.76330  1.0000
  C   C1310     1.0  0.19462  0.93595  0.77624  1.0000
  H   H2223     1.0  0.14383  0.89804  0.92942  1.0000
  S   S381      1.0  0.20481  0.90929  0.79898  1.0000
  N   N94       1.0  0.09588  0.93489  0.85017  1.0000
  H   H2224     1.0  0.17080  0.92177  0.76657  1.0000
  H   H2225     1.0  0.15743  0.95556  0.87091  1.0000
  C   C1311     1.0  0.13465  0.91702  0.82997  1.0000
  H   H2226     1.0  0.13307  0.92637  0.83179  1.0000
  H   H2227     1.0  0.13290  0.91787  0.82072  1.0000
  H   H2228     1.0  0.14860  0.95171  0.77932  1.0000
  H   H2229     1.0  0.16081  0.92289  0.87584  1.0000
  C   C1312     1.0  0.17995  0.92384  0.85554  1.0000
  H   H2230     1.0  0.18262  0.92442  0.84544  1.0000
  H   H2231     1.0  0.18842  0.91928  0.85923  1.0000
  H   H2232     1.0  0.15220  0.93733  0.86967  1.0000
  H   H2233     1.0  0.14846  0.92992  0.81311  1.0000
  C   C1313     1.0  0.09688  0.87450  0.79144  1.0000
  C   C1314     1.0  0.15158  0.93420  0.88900  1.0000
  C   C1315     1.0  0.14772  0.90937  0.83089  1.0000
  H   H2234     1.0  0.09488  0.87714  0.81046  1.0000
  H   H2235     1.0  0.15845  0.91701  0.80757  1.0000
  H   H2236     1.0  0.14969  0.90209  0.82543  1.0000
  H   H2237     1.0  0.18083  0.92065  0.87971  1.0000
  H   H2238     1.0  0.14835  0.94396  0.88990  1.0000
  S   S382      1.0  0.22504  0.88453  0.82272  1.0000
  C   C1316     1.0  0.15750  0.92349  0.81365  1.0000
  C   C1317     1.0  0.17500  0.93704  0.85793  1.0000
  H   H2239     1.0  0.14319  0.93029  0.89105  1.0000
  H   H2240     1.0  0.18857  0.93438  0.78554  1.0000
  H   H2241     1.0  0.16626  0.95525  0.78304  1.0000
  C   C1318     1.0  0.16726  0.93151  0.80764  1.0000
  C   C1319     1.0  0.15636  0.92575  0.83460  1.0000
  C   C1320     1.0  0.15051  0.92217  0.84837  1.0000
  H   H2242     1.0  0.17670  0.92588  0.80566  1.0000
  S   S383      1.0  0.22877  0.91302  0.81660  1.0000
  C   C1321     1.0  0.17012  0.90766  0.82643  1.0000
  H   H2243     1.0  0.16707  0.93818  0.81316  1.0000
  H   H2244     1.0  0.18120  0.89220  0.83678  1.0000
  H   H2245     1.0  0.15102  0.92921  0.85312  1.0000
  H   H2246     1.0  0.15524  0.91314  0.85297  1.0000
  C   C1322     1.0  0.20527  0.94115  0.77748  1.0000
  H   H2247     1.0  0.19881  0.92655  0.77437  1.0000
  C   C1323     1.0  0.10324  0.94477  0.84392  1.0000
  H   H2248     1.0  0.17145  0.83067  0.95778  1.0000
  C   C1324     1.0  0.07886  0.94545  0.86648  1.0000
  H   H2249     1.0  0.09360  0.90996  0.86414  1.0000
  C   C1325     1.0  0.10220  0.95475  0.85108  1.0000
  C   C1326     1.0  0.08245  0.94032  0.85453  1.0000
  H   H2250     1.0  0.20346  0.94783  0.75313  1.0000
  H   H2251     1.0  0.16228  0.88520  0.94552  1.0000
  H   H2252     1.0  0.20200  0.95020  0.78023  1.0000
  H   H2253     1.0  0.09332  0.96148  0.85094  1.0000
  H   H2254     1.0  0.20971  0.93474  0.78492  1.0000
  H   H2255     1.0  0.16161  0.88660  0.92291  1.0000
  H   H2256     1.0  0.08575  0.85582  0.78063  1.0000
  H   H2257     1.0  0.08954  0.87068  0.77280  1.0000
  H   H2258     1.0  0.07673  0.93337  0.85596  1.0000
  H   H2259     1.0  0.10343  0.95103  0.86065  1.0000
  H   H2260     1.0  0.08622  0.94323  0.87175  1.0000
  C   C1327     1.0  0.14305  0.90085  0.93817  1.0000
  H   H2261     1.0  0.16272  0.91111  0.94972  1.0000
  H   H2262     1.0  0.14154  0.89244  0.94522  1.0000
  H   H2263     1.0  0.17244  0.96849  0.78112  1.0000
  H   H2264     1.0  0.12949  0.91658  0.93072  1.0000
  C   C1328     1.0  0.16928  0.88822  0.92605  1.0000
  H   H2265     1.0  0.17336  0.89464  0.94019  1.0000
  H   H2266     1.0  0.16840  0.91362  0.92488  1.0000
  H   H2267     1.0  0.17431  0.89451  0.91857  1.0000
  H   H2268     1.0  0.14693  0.91757  0.95040  1.0000
  C   C1329     1.0  0.16499  0.89303  0.93816  1.0000
  H   H2269     1.0  0.17586  0.87924  0.92757  1.0000
  H   H2270     1.0  0.15636  0.91201  0.91871  1.0000
  C   C1330     1.0  0.15827  0.91399  0.92695  1.0000
  H   H2271     1.0  0.24120  0.94519  0.82966  1.0000
  H   H2272     1.0  0.22926  0.91864  0.85460  1.0000
  C   C1331     1.0  0.16128  0.83154  0.96053  1.0000
  H   H2273     1.0  0.23109  0.92931  0.86297  1.0000
  C   C1332     1.0  0.11076  0.87337  0.74120  1.0000
  H   H2274     1.0  0.15721  0.84135  0.95731  1.0000
  H   H2275     1.0  0.10138  0.92102  0.73813  1.0000
  H   H2276     1.0  0.23983  0.95410  0.84068  1.0000
  H   H2277     1.0  0.13802  0.84429  0.96762  1.0000
  C   C1333     1.0  0.15772  0.82738  0.97466  1.0000
  C   C1334     1.0  0.13921  0.81986  0.97383  1.0000
  H   H2278     1.0  0.19082  0.96025  0.74022  1.0000
  H   H2279     1.0  0.13725  0.82543  0.96477  1.0000
  C   C1335     1.0  0.14732  0.80728  0.97140  1.0000
  N   N95       1.0  0.14424  0.82713  0.97988  1.0000
  H   H2280     1.0  0.16384  0.81835  0.97713  1.0000
  H   H2281     1.0  0.19357  0.94594  0.73518  1.0000
  H   H2282     1.0  0.23197  0.94168  0.84485  1.0000
  H   H2283     1.0  0.14198  0.79990  0.97576  1.0000
  H   H2284     1.0  0.12860  0.86686  0.74616  1.0000
  C   C1336     1.0  0.24062  0.94459  0.83958  1.0000
  H   H2285     1.0  0.16070  0.83361  0.97878  1.0000
  H   H2286     1.0  0.14133  0.84625  0.98114  1.0000
  S   S384      1.0  0.08708  0.88094  0.73625  1.0000
  H   H2287     1.0  0.17940  0.95090  0.74494  1.0000
  C   C1337     1.0  0.18942  0.95061  0.74307  1.0000
  C   C1338     1.0  0.13727  0.84036  0.97764  1.0000
  H   H2288     1.0  0.23101  0.91362  0.87010  1.0000
  H   H2289     1.0  0.11799  0.91548  0.73581  1.0000
  H   H2290     1.0  0.11915  0.85248  0.97974  1.0000
  C   C1339     1.0  0.12331  0.84273  0.98333  1.0000
  H   H2291     1.0  0.11263  0.86714  0.73501  1.0000
  H   H2292     1.0  0.33627  0.14806  0.12438  1.0000
  S   S385      1.0  0.47666  0.38286  0.13651  1.0000
  H   H2293     1.0  0.40266  0.34405  0.04016  1.0000
  Fe  Fe193     1.0  0.47704  0.11546  0.11273  1.0000
  S   S386      1.0  0.46497  0.12465  0.09903  1.0000
  Fe  Fe194     1.0  0.45521  0.11281  0.13387  1.0000
  S   S387      1.0  0.44114  0.12222  0.12228  1.0000
  S   S388      1.0  0.45057  0.10356  0.15373  1.0000
  Fe  Fe195     1.0  0.45312  0.11085  0.10883  1.0000
  S   S389      1.0  0.44296  0.10443  0.09817  1.0000
  Fe  Fe196     1.0  0.45391  0.13530  0.11333  1.0000
  S   S390      1.0  0.44701  0.15534  0.10647  1.0000
  S   S391      1.0  0.46639  0.10029  0.12107  1.0000
  S   S392      1.0  0.46672  0.12724  0.12644  1.0000
  Fe  Fe197     1.0  0.39264  0.11999  0.19825  1.0000
  S   S393      1.0  0.38264  0.11603  0.18587  1.0000
  S   S394      1.0  0.40626  0.13215  0.18832  1.0000
  Fe  Fe198     1.0  0.37890  0.10532  0.22140  1.0000
  S   S395      1.0  0.36788  0.10021  0.21068  1.0000
  H   H2294     1.0  0.35128  0.07728  0.21167  1.0000
  Fe  Fe199     1.0  0.38558  0.09691  0.19705  1.0000
  S   S396      1.0  0.39218  0.08102  0.18748  1.0000
  Fe  Fe200     1.0  0.36590  0.11980  0.20054  1.0000
  S   S397      1.0  0.34708  0.12987  0.19746  1.0000
  S   S398      1.0  0.39696  0.10034  0.20846  1.0000
  S   S399      1.0  0.37551  0.12540  0.21225  1.0000
  Fe  Fe201     1.0  0.37446  0.05481  0.12020  1.0000
  S   S400      1.0  0.38101  0.05426  0.13727  1.0000
  S   S401      1.0  0.37443  0.03568  0.11753  1.0000
  Fe  Fe202     1.0  0.37389  0.08260  0.11166  1.0000
  S   S402      1.0  0.38047  0.08395  0.12777  1.0000
  S   S403      1.0  0.36975  0.09942  0.09688  1.0000
  Fe  Fe203     1.0  0.39375  0.06636  0.12499  1.0000
  S   S404      1.0  0.41301  0.06310  0.12824  1.0000
  Fe  Fe204     1.0  0.36719  0.07193  0.13862  1.0000
  S   S405      1.0  0.35586  0.07814  0.15585  1.0000
  S   S406      1.0  0.38836  0.06583  0.10775  1.0000
  S   S407      1.0  0.35945  0.07168  0.12265  1.0000
  Fe  Fe205     1.0  0.38031  0.16916  0.12881  1.0000
  S   S408      1.0  0.38197  0.17780  0.10873  1.0000
  S   S409      1.0  0.39434  0.16741  0.13984  1.0000
  Fe  Fe206     1.0  0.35486  0.16484  0.13170  1.0000
  S   S410      1.0  0.35399  0.17347  0.11202  1.0000
  S   S411      1.0  0.33858  0.15808  0.14448  1.0000
  Fe  Fe207     1.0  0.37332  0.16246  0.10831  1.0000
  S   S412      1.0  0.37958  0.15233  0.09280  1.0000
  Fe  Fe208     1.0  0.36259  0.18796  0.11442  1.0000
  S   S413      1.0  0.35543  0.20853  0.10934  1.0000
  S   S414      1.0  0.37362  0.15282  0.12785  1.0000
  S   S415      1.0  0.36153  0.18023  0.13461  1.0000
  H   H2295     1.0  0.39711  0.33510  0.03364  1.0000
  C   C1340     1.0  0.32212  0.13446  0.14241  1.0000
  S   S416      1.0  0.33970  0.01336  0.09733  1.0000
  H   H2296     1.0  0.36568  0.14703  0.18628  1.0000
  H   H2297     1.0  0.35225  0.15215  0.20700  1.0000
  S   S417      1.0  0.25634  0.38872  0.06787  1.0000
  Fe  Fe209     1.0  0.39116  0.34338  0.00571  1.0000
  S   S418      1.0  0.37999  0.35380  0.02029  1.0000
  S   S419      1.0  0.40053  0.32366  0.01162  1.0000
  S   S420      1.0  0.37651  0.37785  0.99790  1.0000
  Fe  Fe210     1.0  0.39032  0.36860  0.00985  1.0000
  S   S421      1.0  0.39519  0.38042  0.02009  1.0000
  Fe  Fe211     1.0  0.36713  0.36214  0.00730  1.0000
  S   S422      1.0  0.34669  0.36673  0.01434  1.0000
  S   S423      1.0  0.40258  0.35766  0.99603  1.0000
  S   S424      1.0  0.37723  0.35032  0.99355  1.0000
  Fe  Fe212     1.0  0.38829  0.26378  0.08935  1.0000
  S   S425      1.0  0.39356  0.26902  0.10443  1.0000
  S   S426      1.0  0.39319  0.24414  0.08656  1.0000
  Fe  Fe213     1.0  0.37914  0.29042  0.07773  1.0000
  S   S427      1.0  0.38366  0.29809  0.09169  1.0000
  S   S428      1.0  0.36917  0.30248  0.06306  1.0000
  Fe  Fe214     1.0  0.40115  0.28386  0.08975  1.0000
  S   S429      1.0  0.41971  0.28667  0.09014  1.0000
  Fe  Fe215     1.0  0.37565  0.28287  0.10526  1.0000
  S   S430      1.0  0.36461  0.28577  0.12388  1.0000
  S   S431      1.0  0.39746  0.27751  0.07443  1.0000
  S   S432      1.0  0.36956  0.27625  0.09154  1.0000
  Fe  Fe216     1.0  0.31197  0.36982  0.10034  1.0000
  S   S433      1.0  0.32096  0.34977  0.10213  1.0000
  S   S434      1.0  0.29120  0.37494  0.10618  1.0000
  Fe  Fe217     1.0  0.33663  0.37782  0.09228  1.0000
  S   S435      1.0  0.34767  0.35857  0.09327  1.0000
  S   S436      1.0  0.34513  0.39451  0.08736  1.0000
  Fe  Fe218     1.0  0.33356  0.35604  0.08441  1.0000
  S   S437      1.0  0.34003  0.34350  0.07112  1.0000
  Fe  Fe219     1.0  0.33424  0.35389  0.11087  1.0000
  S   S438      1.0  0.34046  0.34119  0.12763  1.0000
  S   S439      1.0  0.32352  0.37579  0.08172  1.0000
  S   S440      1.0  0.32423  0.37348  0.11079  1.0000
  Fe  Fe220     1.0  0.44168  0.36709  0.09174  1.0000
  S   S441      1.0  0.44301  0.34934  0.08608  1.0000
  S   S442      1.0  0.45859  0.37398  0.09212  1.0000
  Fe  Fe221     1.0  0.41393  0.37449  0.09266  1.0000
  S   S443      1.0  0.41285  0.35756  0.08719  1.0000
  S   S444      1.0  0.39798  0.38970  0.09768  1.0000
  Fe  Fe222     1.0  0.42550  0.34778  0.10014  1.0000
  S   S445      1.0  0.42168  0.33022  0.11309  1.0000
  Fe  Fe223     1.0  0.43025  0.36047  0.07341  1.0000
  S   S446      1.0  0.43381  0.35599  0.05466  1.0000
  S   S447      1.0  0.42518  0.36447  0.10700  1.0000
  S   S448      1.0  0.43031  0.37839  0.07775  1.0000
  C   C1341     1.0  0.36009  0.39283  0.08970  1.0000
  C   C1342     1.0  0.36981  0.38325  0.08627  1.0000
  C   C1343     1.0  0.38163  0.38223  0.08843  1.0000
  C   C1344     1.0  0.38368  0.39082  0.09401  1.0000
  C   C1345     1.0  0.37400  0.40047  0.09717  1.0000
  C   C1346     1.0  0.36231  0.40154  0.09493  1.0000
  H   H2298     1.0  0.36821  0.37669  0.08191  1.0000
  H   H2299     1.0  0.38910  0.37487  0.08576  1.0000
  H   H2300     1.0  0.37551  0.40717  0.10141  1.0000
  H   H2301     1.0  0.35489  0.40905  0.09741  1.0000
  C   C1347     1.0  0.42043  0.29946  0.09544  1.0000
  C   C1348     1.0  0.41121  0.31023  0.09480  1.0000
  C   C1349     1.0  0.41202  0.32012  0.09946  1.0000
  C   C1350     1.0  0.42182  0.31907  0.10509  1.0000
  C   C1351     1.0  0.43101  0.30834  0.10566  1.0000
  C   C1352     1.0  0.43041  0.29865  0.10068  1.0000
  H   H2302     1.0  0.40357  0.31097  0.09063  1.0000
  H   H2303     1.0  0.40495  0.32843  0.09895  1.0000
  H   H2304     1.0  0.43855  0.30746  0.11006  1.0000
  H   H2305     1.0  0.43759  0.29038  0.10113  1.0000
  C   C1353     1.0  0.35692  0.30109  0.12450  1.0000
  C   C1354     1.0  0.35557  0.31016  0.11380  1.0000
  C   C1355     1.0  0.35015  0.32249  0.11466  1.0000
  C   C1356     1.0  0.34632  0.32577  0.12619  1.0000
  C   C1357     1.0  0.34762  0.31669  0.13683  1.0000
  C   C1358     1.0  0.35270  0.30437  0.13600  1.0000
  H   H2306     1.0  0.35857  0.30768  0.10489  1.0000
  H   H2307     1.0  0.34906  0.32946  0.10641  1.0000
  H   H2308     1.0  0.34458  0.31917  0.14576  1.0000
  H   H2309     1.0  0.35359  0.29740  0.14430  1.0000
  C   C1359     1.0  0.39192  0.31686  0.02554  1.0000
  C   C1360     1.0  0.37904  0.32006  0.02788  1.0000
  C   C1361     1.0  0.37217  0.31517  0.03928  1.0000
  C   C1362     1.0  0.37812  0.30755  0.04858  1.0000
  C   C1363     1.0  0.39102  0.30428  0.04625  1.0000
  C   C1364     1.0  0.39791  0.30875  0.03464  1.0000
  H   H2310     1.0  0.37439  0.32625  0.02086  1.0000
  H   H2311     1.0  0.36221  0.31747  0.04093  1.0000
  H   H2312     1.0  0.39570  0.29847  0.05339  1.0000
  H   H2313     1.0  0.40788  0.30637  0.03287  1.0000
  C   C1365     1.0  0.40577  0.37340  0.02980  1.0000
  C   C1366     1.0  0.40544  0.37867  0.03964  1.0000
  C   C1367     1.0  0.41384  0.37326  0.04750  1.0000
  C   C1368     1.0  0.42285  0.36279  0.04530  1.0000
  C   C1369     1.0  0.42326  0.35762  0.03537  1.0000
  C   C1370     1.0  0.41466  0.36284  0.02771  1.0000
  H   H2314     1.0  0.39858  0.38687  0.04127  1.0000
  H   H2315     1.0  0.41347  0.37732  0.05512  1.0000
  H   H2316     1.0  0.43020  0.34950  0.03365  1.0000
  H   H2317     1.0  0.41500  0.35873  0.02013  1.0000
  C   C1371     1.0  0.34441  0.36040  0.03016  1.0000
  C   C1372     1.0  0.35065  0.34844  0.03432  1.0000
  C   C1373     1.0  0.34924  0.34343  0.04695  1.0000
  C   C1374     1.0  0.34183  0.35042  0.05546  1.0000
  C   C1375     1.0  0.33573  0.36248  0.05135  1.0000
  C   C1376     1.0  0.33686  0.36741  0.03866  1.0000
  H   H2318     1.0  0.35649  0.34299  0.02779  1.0000
  H   H2319     1.0  0.35400  0.33416  0.05021  1.0000
  H   H2320     1.0  0.33004  0.36797  0.05788  1.0000
  H   H2321     1.0  0.33216  0.37674  0.03544  1.0000
  C   C1377     1.0  0.26611  0.38436  0.07850  1.0000
  C   C1378     1.0  0.26167  0.38019  0.09104  1.0000
  C   C1379     1.0  0.26949  0.37733  0.09940  1.0000
  C   C1380     1.0  0.28185  0.37843  0.09529  1.0000
  C   C1381     1.0  0.28638  0.38247  0.08272  1.0000
  C   C1382     1.0  0.27850  0.38546  0.07436  1.0000
  H   H2322     1.0  0.26966  0.42001  0.08142  1.0000
  H   H2323     1.0  0.26598  0.37414  0.10911  1.0000
  H   H2324     1.0  0.29588  0.38345  0.07948  1.0000
  H   H2325     1.0  0.28195  0.38880  0.06467  1.0000
  C   C1383     1.0  0.36574  0.21854  0.10229  1.0000
  C   C1384     1.0  0.37757  0.21435  0.09578  1.0000
  C   C1385     1.0  0.38577  0.22243  0.09068  1.0000
  C   C1386     1.0  0.38226  0.23467  0.09221  1.0000
  C   C1387     1.0  0.37037  0.23893  0.09854  1.0000
  C   C1388     1.0  0.36209  0.23090  0.10347  1.0000
  H   H2326     1.0  0.38037  0.20491  0.09464  1.0000
  H   H2327     1.0  0.39493  0.21912  0.08568  1.0000
  H   H2328     1.0  0.36757  0.24836  0.09976  1.0000
  H   H2329     1.0  0.35291  0.23421  0.10844  1.0000
  C   C1389     1.0  0.36446  0.02976  0.11201  1.0000
  C   C1390     1.0  0.36697  0.01702  0.11231  1.0000
  C   C1391     1.0  0.35950  0.01184  0.10790  1.0000
  C   C1392     1.0  0.34941  0.01937  0.10308  1.0000
  C   C1393     1.0  0.34687  0.03211  0.10281  1.0000
  C   C1394     1.0  0.35432  0.03728  0.10725  1.0000
  H   H2330     1.0  0.37475  0.01109  0.11599  1.0000
  H   H2331     1.0  0.36159  0.00205  0.10818  1.0000
  H   H2332     1.0  0.33914  0.03804  0.09905  1.0000
  H   H2333     1.0  0.35228  0.04709  0.10691  1.0000
  C   C1395     1.0  0.37291  0.11380  0.09640  1.0000
  C   C1396     1.0  0.37565  0.11665  0.10641  1.0000
  C   C1397     1.0  0.37726  0.12863  0.10570  1.0000
  C   C1398     1.0  0.37651  0.13759  0.09481  1.0000
  C   C1399     1.0  0.37415  0.13456  0.08477  1.0000
  C   C1400     1.0  0.37215  0.12283  0.08563  1.0000
  H   H2334     1.0  0.37631  0.10973  0.11472  1.0000
  H   H2335     1.0  0.37929  0.13085  0.11343  1.0000
  H   H2336     1.0  0.37368  0.14137  0.07630  1.0000
  H   H2337     1.0  0.37006  0.12072  0.07785  1.0000
  C   C1401     1.0  0.34509  0.13667  0.18238  1.0000
  C   C1402     1.0  0.33324  0.14276  0.18062  1.0000
  C   C1403     1.0  0.33132  0.14904  0.16887  1.0000
  C   C1404     1.0  0.34129  0.14947  0.15886  1.0000
  C   C1405     1.0  0.35315  0.14313  0.16050  1.0000
  C   C1406     1.0  0.35504  0.13665  0.17227  1.0000
  H   H2338     1.0  0.32552  0.14276  0.18839  1.0000
  H   H2339     1.0  0.32213  0.15385  0.16762  1.0000
  H   H2340     1.0  0.36085  0.14329  0.15275  1.0000
  H   H2341     1.0  0.36419  0.13190  0.17354  1.0000
  C   C1407     1.0  0.38178  0.08004  0.17914  1.0000
  C   C1408     1.0  0.36969  0.08698  0.18070  1.0000
  C   C1409     1.0  0.36163  0.08620  0.17373  1.0000
  C   C1410     1.0  0.36574  0.07874  0.16497  1.0000
  C   C1411     1.0  0.37788  0.07195  0.16334  1.0000
  C   C1412     1.0  0.38580  0.07242  0.17056  1.0000
  H   H2342     1.0  0.36654  0.09295  0.18726  1.0000
  H   H2343     1.0  0.35227  0.09152  0.17498  1.0000
  H   H2344     1.0  0.38115  0.06620  0.15660  1.0000
  H   H2345     1.0  0.39517  0.06710  0.16926  1.0000
  H   H2346     1.0  0.49220  0.08761  0.17110  1.0000
  H   H2347     1.0  0.37505  0.07765  0.22837  1.0000
  C   C1413     1.0  0.43834  0.11181  0.16310  1.0000
  C   C1414     1.0  0.43499  0.12468  0.16016  1.0000
  C   C1415     1.0  0.42531  0.13098  0.16807  1.0000
  C   C1416     1.0  0.41870  0.12437  0.17866  1.0000
  C   C1417     1.0  0.42198  0.11151  0.18142  1.0000
  C   C1418     1.0  0.43191  0.10527  0.17380  1.0000
  H   H2348     1.0  0.43996  0.12979  0.15192  1.0000
  H   H2349     1.0  0.42282  0.14094  0.16591  1.0000
  H   H2350     1.0  0.41705  0.10634  0.18958  1.0000
  H   H2351     1.0  0.43448  0.09531  0.17613  1.0000
  C   C1419     1.0  0.43268  0.15931  0.11598  1.0000
  C   C1420     1.0  0.42331  0.16814  0.11107  1.0000
  C   C1421     1.0  0.41149  0.17053  0.11841  1.0000
  C   C1422     1.0  0.40914  0.16443  0.13073  1.0000
  C   C1423     1.0  0.41861  0.15587  0.13575  1.0000
  C   C1424     1.0  0.43034  0.15314  0.12830  1.0000
  H   H2352     1.0  0.42510  0.17285  0.10152  1.0000
  H   H2353     1.0  0.40425  0.17722  0.11455  1.0000
  H   H2354     1.0  0.41681  0.15113  0.14529  1.0000
  H   H2355     1.0  0.43759  0.14631  0.13211  1.0000
  C   C1425     1.0  0.43484  0.09278  0.10651  1.0000
  C   C1426     1.0  0.43818  0.08486  0.11717  1.0000
  C   C1427     1.0  0.43161  0.07555  0.12361  1.0000
  C   C1428     1.0  0.42146  0.07441  0.11967  1.0000
  C   C1429     1.0  0.41810  0.08235  0.10905  1.0000
  C   C1430     1.0  0.42488  0.09142  0.10240  1.0000
  H   H2356     1.0  0.44591  0.08578  0.12034  1.0000
  H   H2357     1.0  0.43430  0.06933  0.13177  1.0000
  H   H2358     1.0  0.41032  0.08148  0.10592  1.0000
  H   H2359     1.0  0.42234  0.09745  0.09412  1.0000
  H   H2360     1.0  0.38782  0.16778  0.16751  1.0000
  C   C1431     1.0  0.47124  0.38107  0.12409  1.0000
  C   C1432     1.0  0.47682  0.38513  0.11184  1.0000
  C   C1433     1.0  0.47253  0.38323  0.10219  1.0000
  C   C1434     1.0  0.46274  0.37710  0.10465  1.0000
  C   C1435     1.0  0.45699  0.37325  0.11689  1.0000
  C   C1436     1.0  0.46116  0.37533  0.12655  1.0000
  H   H2361     1.0  0.48442  0.38976  0.10980  1.0000
  H   H2362     1.0  0.47694  0.38639  0.09275  1.0000
  H   H2363     1.0  0.44953  0.36843  0.11894  1.0000
  H   H2364     1.0  0.45675  0.37220  0.13601  1.0000
  H   H2365     1.0  0.42955  0.04551  0.08780  1.0000
  H   H2366     1.0  0.38920  0.15751  0.18189  1.0000
  C   C1437     1.0  0.30979  0.03167  0.10221  1.0000
  H   H2367     1.0  0.42647  0.04117  0.11174  1.0000
  H   H2368     1.0  0.42685  0.05832  0.09488  1.0000
  C   C1438     1.0  0.34943  0.11455  0.15066  1.0000
  H   H2369     1.0  0.47713  0.18573  0.09244  1.0000
  H   H2370     1.0  0.40971  0.01524  0.09487  1.0000
  H   H2371     1.0  0.34636  0.17672  0.16294  1.0000
  H   H2372     1.0  0.37321  0.18359  0.17600  1.0000
  H   H2373     1.0  0.30160  0.03849  0.10554  1.0000
  H   H2374     1.0  0.38242  0.04173  0.21990  1.0000
  C   C1439     1.0  0.31172  0.99917  0.13478  1.0000
  H   H2375     1.0  0.42897  0.02537  0.08638  1.0000
  H   H2376     1.0  0.41251  0.33776  0.05654  1.0000
  C   C1440     1.0  0.36931  0.17669  0.18382  1.0000
  H   H2377     1.0  0.29232  0.02378  0.13979  1.0000
  H   H2378     1.0  0.33997  0.11508  0.15636  1.0000
  C   C1441     1.0  0.34238  0.35198  0.99063  1.0000
  N   N96       1.0  0.37486  0.35459  0.12065  1.0000
  C   C1442     1.0  0.38291  0.34717  0.11129  1.0000
  C   C1443     1.0  0.38244  0.36265  0.12247  1.0000
  C   C1444     1.0  0.36377  0.36245  0.11556  1.0000
  C   C1445     1.0  0.37096  0.34559  0.13233  1.0000
  C   C1446     1.0  0.37613  0.34089  0.10547  1.0000
  C   C1447     1.0  0.39448  0.35586  0.12694  1.0000
  C   C1448     1.0  0.35722  0.37437  0.12033  1.0000
  C   C1449     1.0  0.36278  0.35104  0.14336  1.0000
  H   H2379     1.0  0.38815  0.35310  0.10349  1.0000
  H   H2380     1.0  0.39003  0.33978  0.11539  1.0000
  H   H2381     1.0  0.37714  0.36860  0.12907  1.0000
  H   H2382     1.0  0.38503  0.36921  0.11367  1.0000
  H   H2383     1.0  0.36640  0.36553  0.10544  1.0000
  H   H2384     1.0  0.35665  0.35699  0.11699  1.0000
  H   H2385     1.0  0.36558  0.33966  0.13065  1.0000
  H   H2386     1.0  0.37899  0.33878  0.13543  1.0000
  H   H2387     1.0  0.37244  0.34750  0.09772  1.0000
  H   H2388     1.0  0.38271  0.33317  0.10164  1.0000
  H   H2389     1.0  0.36845  0.33707  0.11203  1.0000
  H   H2390     1.0  0.39900  0.36278  0.12818  1.0000
  H   H2391     1.0  0.39275  0.34943  0.13594  1.0000
  H   H2392     1.0  0.40117  0.35094  0.12004  1.0000
  H   H2393     1.0  0.35385  0.37274  0.13040  1.0000
  H   H2394     1.0  0.34901  0.37869  0.11612  1.0000
  H   H2395     1.0  0.36320  0.38125  0.11739  1.0000
  H   H2396     1.0  0.35290  0.35322  0.14277  1.0000
  H   H2397     1.0  0.36536  0.35927  0.14438  1.0000
  H   H2398     1.0  0.36395  0.34417  0.15201  1.0000
  N   N97       1.0  0.37680  0.26285  0.05309  1.0000
  C   C1450     1.0  0.37139  0.25317  0.06324  1.0000
  C   C1451     1.0  0.37053  0.27518  0.05638  1.0000
  C   C1452     1.0  0.39037  0.26048  0.05309  1.0000
  C   C1453     1.0  0.37481  0.26180  0.04096  1.0000
  C   C1454     1.0  0.37722  0.23962  0.06237  1.0000
  C   C1455     1.0  0.35633  0.27834  0.05821  1.0000
  C   C1456     1.0  0.39778  0.26971  0.04399  1.0000
  C   C1457     1.0  0.37479  0.27347  0.03047  1.0000
  H   H2399     1.0  0.37197  0.25426  0.07242  1.0000
  H   H2400     1.0  0.36140  0.25424  0.06357  1.0000
  H   H2401     1.0  0.37390  0.28290  0.04944  1.0000
  H   H2402     1.0  0.37283  0.27574  0.06502  1.0000
  H   H2403     1.0  0.39167  0.26013  0.06245  1.0000
  H   H2404     1.0  0.39522  0.25135  0.05090  1.0000
  H   H2405     1.0  0.38185  0.25415  0.03739  1.0000
  H   H2406     1.0  0.36571  0.25932  0.04234  1.0000
  H   H2407     1.0  0.37750  0.23777  0.05331  1.0000
  H   H2408     1.0  0.38660  0.23679  0.06446  1.0000
  H   H2409     1.0  0.37155  0.23357  0.06947  1.0000
  H   H2410     1.0  0.35298  0.28834  0.05819  1.0000
  H   H2411     1.0  0.35308  0.27640  0.05080  1.0000
  H   H2412     1.0  0.35200  0.27336  0.06730  1.0000
  H   H2413     1.0  0.39397  0.27932  0.04517  1.0000
  H   H2414     1.0  0.39874  0.26903  0.03433  1.0000
  H   H2415     1.0  0.40728  0.26734  0.04575  1.0000
  H   H2416     1.0  0.37879  0.27058  0.02151  1.0000
  H   H2417     1.0  0.38019  0.27997  0.03089  1.0000
  H   H2418     1.0  0.36520  0.27848  0.02992  1.0000
  N   N98       1.0  0.30151  0.34268  0.07567  1.0000
  C   C1458     1.0  0.31072  0.33233  0.08159  1.0000
  C   C1459     1.0  0.29497  0.35066  0.08494  1.0000
  C   C1460     1.0  0.30875  0.35015  0.06471  1.0000
  C   C1461     1.0  0.29284  0.33720  0.07183  1.0000
  C   C1462     1.0  0.31908  0.32333  0.07344  1.0000
  C   C1463     1.0  0.28841  0.34403  0.09745  1.0000
  C   C1464     1.0  0.30130  0.36113  0.05696  1.0000
  C   C1465     1.0  0.27996  0.34537  0.07055  1.0000
  H   H2419     1.0  0.31688  0.33609  0.08505  1.0000
  H   H2420     1.0  0.30595  0.32645  0.08979  1.0000
  H   H2421     1.0  0.28795  0.35843  0.08135  1.0000
  H   H2422     1.0  0.30156  0.35517  0.08688  1.0000
  H   H2423     1.0  0.31522  0.35385  0.06779  1.0000
  H   H2424     1.0  0.31453  0.34440  0.05806  1.0000
  H   H2425     1.0  0.29725  0.33424  0.06292  1.0000
  H   H2426     1.0  0.29099  0.32870  0.07871  1.0000
  H   H2427     1.0  0.31376  0.31949  0.06913  1.0000
  H   H2428     1.0  0.32618  0.32761  0.06628  1.0000
  H   H2429     1.0  0.32428  0.31546  0.07928  1.0000
  H   H2430     1.0  0.29514  0.33868  0.10330  1.0000
  H   H2431     1.0  0.28206  0.35101  0.10254  1.0000
  H   H2432     1.0  0.28287  0.33792  0.09644  1.0000
  H   H2433     1.0  0.30785  0.36619  0.04979  1.0000
  H   H2434     1.0  0.29524  0.36782  0.06246  1.0000
  H   H2435     1.0  0.29596  0.35803  0.05201  1.0000
  H   H2436     1.0  0.27685  0.34302  0.06323  1.0000
  H   H2437     1.0  0.27950  0.35542  0.06797  1.0000
  H   H2438     1.0  0.27297  0.34322  0.07908  1.0000
  N   N99       1.0  0.41637  0.14084  0.08400  1.0000
  C   C1466     1.0  0.41006  0.13622  0.07660  1.0000
  C   C1467     1.0  0.41304  0.15474  0.08103  1.0000
  C   C1468     1.0  0.41165  0.13593  0.09753  1.0000
  C   C1469     1.0  0.43005  0.13604  0.08037  1.0000
  C   C1470     1.0  0.41031  0.12223  0.07990  1.0000
  C   C1471     1.0  0.41714  0.16097  0.06747  1.0000
  C   C1472     1.0  0.41209  0.14336  0.10676  1.0000
  C   C1473     1.0  0.43847  0.14024  0.08620  1.0000
  H   H2439     1.0  0.40020  0.14099  0.07744  1.0000
  H   H2440     1.0  0.41423  0.13836  0.06660  1.0000
  H   H2441     1.0  0.41684  0.15890  0.08653  1.0000
  H   H2442     1.0  0.40288  0.15797  0.08364  1.0000
  H   H2443     1.0  0.40176  0.13545  0.09925  1.0000
  H   H2444     1.0  0.41666  0.12629  0.10046  1.0000
  H   H2445     1.0  0.43222  0.12582  0.08289  1.0000
  H   H2446     1.0  0.43341  0.13791  0.07021  1.0000
  H   H2447     1.0  0.40535  0.12012  0.07384  1.0000
  H   H2448     1.0  0.41983  0.11666  0.07834  1.0000
  H   H2449     1.0  0.40542  0.11914  0.08948  1.0000
  H   H2450     1.0  0.41454  0.17113  0.06662  1.0000
  H   H2451     1.0  0.42729  0.15861  0.06423  1.0000
  H   H2452     1.0  0.41238  0.15878  0.06131  1.0000
  H   H2453     1.0  0.40537  0.15230  0.10590  1.0000
  H   H2454     1.0  0.42139  0.14494  0.10590  1.0000
  H   H2455     1.0  0.40933  0.13816  0.11626  1.0000
  H   H2456     1.0  0.43915  0.13435  0.09543  1.0000
  H   H2457     1.0  0.43562  0.15002  0.08691  1.0000
  H   H2458     1.0  0.44785  0.13943  0.08023  1.0000
  N   N100      1.0  0.42470  0.40944  0.09937  1.0000
  C   C1474     1.0  0.41142  0.41466  0.10470  1.0000
  C   C1475     1.0  0.42717  0.39584  0.10494  1.0000
  C   C1476     1.0  0.42591  0.41118  0.08566  1.0000
  C   C1477     1.0  0.43295  0.41620  0.10222  1.0000
  C   C1478     1.0  0.40636  0.42830  0.09929  1.0000
  C   C1479     1.0  0.42492  0.39242  0.11913  1.0000
  C   C1480     1.0  0.43879  0.40660  0.07818  1.0000
  C   C1481     1.0  0.44648  0.40935  0.10243  1.0000
  H   H2459     1.0  0.40515  0.40921  0.10366  1.0000
  H   H2460     1.0  0.41001  0.41400  0.11478  1.0000
  H   H2461     1.0  0.43669  0.39116  0.10147  1.0000
  H   H2462     1.0  0.42127  0.39123  0.10210  1.0000
  H   H2463     1.0  0.41933  0.40658  0.08378  1.0000
  H   H2464     1.0  0.42343  0.42108  0.08132  1.0000
  H   H2465     1.0  0.43318  0.42519  0.09559  1.0000
  H   H2466     1.0  0.42909  0.41845  0.11150  1.0000
  H   H2467     1.0  0.39735  0.43150  0.10524  1.0000
  H   H2468     1.0  0.41256  0.43440  0.09893  1.0000
  H   H2469     1.0  0.40447  0.42944  0.09002  1.0000
  H   H2470     1.0  0.42926  0.39772  0.12296  1.0000
  H   H2471     1.0  0.41491  0.39365  0.12327  1.0000
  H   H2472     1.0  0.42897  0.38250  0.12206  1.0000
  H   H2473     1.0  0.43806  0.40752  0.06852  1.0000
  H   H2474     1.0  0.44261  0.39676  0.08153  1.0000
  H   H2475     1.0  0.44533  0.41235  0.07783  1.0000
  H   H2476     1.0  0.45250  0.41622  0.09933  1.0000
  H   H2477     1.0  0.45034  0.40261  0.09642  1.0000
  H   H2478     1.0  0.44762  0.40480  0.11198  1.0000
  C   C1482     1.0  0.33952  0.10543  0.11909  1.0000
  H   H2479     1.0  0.40450  0.02646  0.14024  1.0000
  H   H2480     1.0  0.39781  0.04125  0.10043  1.0000
  H   H2481     1.0  0.39502  0.39286  0.99546  1.0000
  H   H2482     1.0  0.25326  0.41120  0.11447  1.0000
  H   H2483     1.0  0.42961  0.39614  0.99750  1.0000
  N   N101      1.0  0.30276  0.01175  0.11576  1.0000
  H   H2484     1.0  0.41923  0.01942  0.13253  1.0000
  H   H2485     1.0  0.47587  0.34670  0.10353  1.0000
  H   H2486     1.0  0.40583  0.32747  0.04541  1.0000
  H   H2487     1.0  0.40754  0.34859  0.06661  1.0000
  H   H2488     1.0  0.34452  0.17464  0.17914  1.0000
  C   C1483     1.0  0.49536  0.08953  0.13464  1.0000
  C   C1484     1.0  0.49237  0.35423  0.09302  1.0000
  C   C1485     1.0  0.39259  0.06714  0.23184  1.0000
  C   C1486     1.0  0.40006  0.40011  0.98958  1.0000
  N   N102      1.0  0.25284  0.41741  0.09504  1.0000
  H   H2489     1.0  0.35209  0.18658  0.16879  1.0000
  H   H2490     1.0  0.25821  0.42063  0.06807  1.0000
  H   H2491     1.0  0.31430  0.13255  0.15020  1.0000
  H   H2492     1.0  0.34563  0.15697  0.19355  1.0000
  H   H2493     1.0  0.35959  0.18128  0.18680  1.0000
  C   C1487     1.0  0.29304  0.02782  0.12980  1.0000
  H   H2494     1.0  0.30164  0.03135  0.12615  1.0000
  C   C1488     1.0  0.29127  0.01857  0.12304  1.0000
  C   C1489     1.0  0.27531  0.41155  0.09856  1.0000
  H   H2495     1.0  0.31853  0.14221  0.13532  1.0000
  N   N103      1.0  0.34136  0.12142  0.13042  1.0000
  H   H2496     1.0  0.31660  0.01588  0.12320  1.0000
  C   C1490     1.0  0.40619  0.03391  0.09862  1.0000
  N   N104      1.0  0.40563  0.10608  0.14535  1.0000
  C   C1491     1.0  0.41726  0.10118  0.15045  1.0000
  C   C1492     1.0  0.40457  0.11981  0.14084  1.0000
  C   C1493     1.0  0.40707  0.10003  0.13471  1.0000
  C   C1494     1.0  0.39498  0.10276  0.15550  1.0000
  C   C1495     1.0  0.42065  0.08706  0.15492  1.0000
  C   C1496     1.0  0.40255  0.12727  0.15079  1.0000
  C   C1497     1.0  0.39896  0.10671  0.12516  1.0000
  C   C1498     1.0  0.38183  0.10847  0.15320  1.0000
  H   H2497     1.0  0.42538  0.10401  0.14352  1.0000
  H   H2498     1.0  0.41657  0.10508  0.15854  1.0000
  H   H2499     1.0  0.39690  0.12409  0.13591  1.0000
  H   H2500     1.0  0.41303  0.12174  0.13392  1.0000
  H   H2501     1.0  0.41674  0.09901  0.12933  1.0000
  H   H2502     1.0  0.40531  0.09050  0.13809  1.0000
  H   H2503     1.0  0.39564  0.09264  0.15767  1.0000
  H   H2504     1.0  0.39551  0.10463  0.16436  1.0000
  H   H2505     1.0  0.42173  0.08200  0.14761  1.0000
  H   H2506     1.0  0.42968  0.08467  0.15776  1.0000
  H   H2507     1.0  0.41385  0.08371  0.16313  1.0000
  H   H2508     1.0  0.40104  0.13724  0.14641  1.0000
  H   H2509     1.0  0.39429  0.12583  0.15810  1.0000
  H   H2510     1.0  0.41074  0.12523  0.15492  1.0000
  H   H2511     1.0  0.40223  0.11503  0.11925  1.0000
  H   H2512     1.0  0.38910  0.10919  0.12939  1.0000
  H   H2513     1.0  0.39972  0.10051  0.11892  1.0000
  H   H2514     1.0  0.37862  0.10233  0.14921  1.0000
  H   H2515     1.0  0.38076  0.11784  0.14740  1.0000
  H   H2516     1.0  0.37547  0.10953  0.16216  1.0000
  N   N105      1.0  0.39725  0.29221  0.13516  1.0000
  C   C1499     1.0  0.40001  0.28526  0.12492  1.0000
  C   C1500     1.0  0.38476  0.30063  0.13492  1.0000
  C   C1501     1.0  0.39662  0.28283  0.14712  1.0000
  C   C1502     1.0  0.40739  0.29910  0.13314  1.0000
  C   C1503     1.0  0.41207  0.27536  0.12401  1.0000
  C   C1504     1.0  0.38355  0.30999  0.12273  1.0000
  C   C1505     1.0  0.39327  0.28780  0.15903  1.0000
  C   C1506     1.0  0.40419  0.31060  0.13890  1.0000
  H   H2517     1.0  0.39229  0.28069  0.12572  1.0000
  H   H2518     1.0  0.40076  0.29165  0.11576  1.0000
  H   H2519     1.0  0.38182  0.30601  0.14225  1.0000
  H   H2520     1.0  0.37758  0.29507  0.13694  1.0000
  H   H2521     1.0  0.38982  0.27712  0.14792  1.0000
  H   H2522     1.0  0.40566  0.27633  0.14745  1.0000
  H   H2523     1.0  0.41564  0.29281  0.13636  1.0000
  H   H2524     1.0  0.41053  0.30247  0.12312  1.0000
  H   H2525     1.0  0.42022  0.27907  0.12355  1.0000
  H   H2526     1.0  0.41141  0.26715  0.13159  1.0000
  H   H2527     1.0  0.41379  0.27204  0.11535  1.0000
  H   H2528     1.0  0.37488  0.31697  0.12431  1.0000
  H   H2529     1.0  0.39129  0.31488  0.11912  1.0000
  H   H2530     1.0  0.38278  0.30547  0.11562  1.0000
  H   H2531     1.0  0.40069  0.29195  0.15978  1.0000
  H   H2532     1.0  0.39248  0.27994  0.16702  1.0000
  H   H2533     1.0  0.38424  0.29432  0.16008  1.0000
  H   H2534     1.0  0.41261  0.31150  0.14138  1.0000
  H   H2535     1.0  0.39687  0.31049  0.14731  1.0000
  H   H2536     1.0  0.40185  0.31914  0.13199  1.0000
  N   N106      1.0  0.39045  0.20967  0.13075  1.0000
  C   C1507     1.0  0.40238  0.20230  0.12474  1.0000
  C   C1508     1.0  0.39116  0.20903  0.14383  1.0000
  C   C1509     1.0  0.38834  0.22297  0.12413  1.0000
  C   C1510     1.0  0.37993  0.20430  0.13034  1.0000
  C   C1511     1.0  0.40438  0.20345  0.11072  1.0000
  C   C1512     1.0  0.39036  0.19648  0.15272  1.0000
  C   C1513     1.0  0.39871  0.22979  0.12271  1.0000
  C   C1514     1.0  0.36690  0.21061  0.13636  1.0000
  H   H2537     1.0  0.41049  0.20473  0.12641  1.0000
  H   H2538     1.0  0.40315  0.19231  0.12892  1.0000
  H   H2539     1.0  0.38390  0.21620  0.14795  1.0000
  H   H2540     1.0  0.39998  0.21121  0.14408  1.0000
  H   H2541     1.0  0.38669  0.22383  0.11483  1.0000
  H   H2542     1.0  0.37973  0.22840  0.12889  1.0000
  H   H2543     1.0  0.37948  0.20490  0.12068  1.0000
  H   H2544     1.0  0.38141  0.19420  0.13418  1.0000
  H   H2545     1.0  0.40470  0.21298  0.10548  1.0000
  H   H2546     1.0  0.41345  0.19762  0.10751  1.0000
  H   H2547     1.0  0.39733  0.20005  0.10828  1.0000
  H   H2548     1.0  0.38117  0.19423  0.15427  1.0000
  H   H2549     1.0  0.39763  0.18887  0.14944  1.0000
  H   H2550     1.0  0.39172  0.19689  0.16181  1.0000
  H   H2551     1.0  0.40765  0.22547  0.11750  1.0000
  H   H2552     1.0  0.39982  0.23057  0.13175  1.0000
  H   H2553     1.0  0.39620  0.23933  0.11735  1.0000
  H   H2554     1.0  0.36262  0.21809  0.12946  1.0000
  H   H2555     1.0  0.36678  0.21453  0.14420  1.0000
  H   H2556     1.0  0.36091  0.20375  0.14013  1.0000
  H   H2557     1.0  0.48240  0.12520  0.14376  1.0000
  H   H2558     1.0  0.41504  0.03599  0.13147  1.0000
  H   H2559     1.0  0.40069  0.40531  0.99616  1.0000
  H   H2560     1.0  0.28800  0.99262  0.10772  1.0000
  C   C1515     1.0  0.24969  0.40895  0.10738  1.0000
  H   H2561     1.0  0.32946  0.10615  0.12256  1.0000
  H   H2562     1.0  0.24795  0.40618  0.08534  1.0000
  H   H2563     1.0  0.28181  0.00824  0.10933  1.0000
  C   C1516     1.0  0.48213  0.12287  0.15375  1.0000
  C   C1517     1.0  0.40585  0.02918  0.12056  1.0000
  H   H2564     1.0  0.25224  0.37910  0.09431  1.0000
  C   C1518     1.0  0.30009  0.00006  0.11428  1.0000
  H   H2565     1.0  0.48828  0.35244  0.13432  1.0000
  H   H2566     1.0  0.29672  0.99434  0.12339  1.0000
  H   H2567     1.0  0.31941  0.36430  0.98952  1.0000
  H   H2568     1.0  0.38444  0.14088  0.17531  1.0000
  H   H2569     1.0  0.34938  0.06680  0.22624  1.0000
  H   H2570     1.0  0.32667  0.11461  0.14487  1.0000
  H   H2571     1.0  0.47465  0.15145  0.09381  1.0000
  H   H2572     1.0  0.49037  0.12492  0.15550  1.0000
  H   H2573     1.0  0.28497  0.40929  0.09337  1.0000
  H   H2574     1.0  0.48849  0.34224  0.11852  1.0000
  H   H2575     1.0  0.30869  0.99417  0.11011  1.0000
  C   C1519     1.0  0.29045  0.00167  0.10650  1.0000
  H   H2576     1.0  0.25541  0.43629  0.08799  1.0000
  H   H2577     1.0  0.37231  0.16836  0.20274  1.0000
  N   N107      1.0  0.37027  0.16506  0.17956  1.0000
  H   H2578     1.0  0.32208  0.12253  0.13111  1.0000
  H   H2579     1.0  0.39584  0.07569  0.23103  1.0000
  N   N108      1.0  0.37680  0.05986  0.22427  1.0000
  C   C1520     1.0  0.38232  0.07038  0.22444  1.0000
  C   C1521     1.0  0.36835  0.06455  0.21519  1.0000
  C   C1522     1.0  0.38665  0.04925  0.22036  1.0000
  H   H2580     1.0  0.48082  0.10777  0.16942  1.0000
  C   C1523     1.0  0.39519  0.05235  0.20770  1.0000
  H   H2581     1.0  0.33562  0.35478  0.99877  1.0000
  H   H2582     1.0  0.38616  0.07502  0.21495  1.0000
  H   H2583     1.0  0.30297  0.00245  0.14096  1.0000
  H   H2584     1.0  0.46965  0.15503  0.11410  1.0000
  H   H2585     1.0  0.37280  0.07021  0.20655  1.0000
  H   H2586     1.0  0.49478  0.08016  0.14019  1.0000
  H   H2587     1.0  0.31418  0.37506  0.99929  1.0000
  H   H2588     1.0  0.49164  0.16984  0.07339  1.0000
  H   H2589     1.0  0.27418  0.40360  0.10640  1.0000
  H   H2590     1.0  0.36049  0.04473  0.23009  1.0000
  H   H2591     1.0  0.27438  0.41997  0.10199  1.0000
  H   H2592     1.0  0.40040  0.05936  0.20731  1.0000
  C   C1524     1.0  0.40186  0.02252  0.09789  1.0000
  H   H2593     1.0  0.47761  0.09931  0.14281  1.0000
  H   H2594     1.0  0.47927  0.07368  0.17154  1.0000
  H   H2595     1.0  0.47029  0.16854  0.11859  1.0000
  H   H2596     1.0  0.41438  0.39550  0.00735  1.0000
  H   H2597     1.0  0.41399  0.33287  0.07214  1.0000
  N   N109      1.0  0.38549  0.34262  0.06249  1.0000
  C   C1525     1.0  0.37280  0.34240  0.07055  1.0000
  C   C1526     1.0  0.38649  0.35596  0.05793  1.0000
  C   C1527     1.0  0.39498  0.33580  0.07023  1.0000
  C   C1528     1.0  0.38665  0.33634  0.05214  1.0000
  C   C1529     1.0  0.37049  0.32970  0.07824  1.0000
  C   C1530     1.0  0.37644  0.36443  0.05111  1.0000
  C   C1531     1.0  0.40789  0.33904  0.06595  1.0000
  C   C1532     1.0  0.39882  0.33571  0.04248  1.0000
  H   H2598     1.0  0.37069  0.34863  0.07710  1.0000
  H   H2599     1.0  0.36557  0.34598  0.06491  1.0000
  H   H2600     1.0  0.39546  0.35697  0.05171  1.0000
  H   H2601     1.0  0.38621  0.36007  0.06580  1.0000
  H   H2602     1.0  0.39170  0.33759  0.07972  1.0000
  H   H2603     1.0  0.39634  0.32565  0.07121  1.0000
  H   H2604     1.0  0.38578  0.32659  0.05586  1.0000
  H   H2605     1.0  0.37882  0.34023  0.04728  1.0000
  H   H2606     1.0  0.37132  0.32316  0.07236  1.0000
  H   H2607     1.0  0.37657  0.32560  0.08495  1.0000
  H   H2608     1.0  0.36087  0.33087  0.08366  1.0000
  H   H2609     1.0  0.36728  0.36597  0.05739  1.0000
  H   H2610     1.0  0.37886  0.37362  0.04719  1.0000
  H   H2611     1.0  0.37572  0.36088  0.04333  1.0000
  H   H2612     1.0  0.43058  0.02005  0.11351  1.0000
  H   H2613     1.0  0.44112  0.02578  0.09352  1.0000
  C   C1533     1.0  0.41939  0.38516  0.99231  1.0000
  C   C1534     1.0  0.31359  0.00793  0.12205  1.0000
  H   H2614     1.0  0.28461  0.02365  0.11699  1.0000
  Fe  Fe224     1.0  0.34080  0.99331  0.09666  1.0000
  C   C1535     1.0  0.30638  0.01933  0.10303  1.0000
  H   H2615     1.0  0.47040  0.08906  0.16943  1.0000
  H   H2616     1.0  0.41650  0.41380  0.99034  1.0000
  H   H2617     1.0  0.38212  0.15083  0.16069  1.0000
  H   H2618     1.0  0.35022  0.16775  0.19959  1.0000
  H   H2619     1.0  0.37365  0.18408  0.19740  1.0000
  H   H2620     1.0  0.25505  0.43105  0.10373  1.0000
  H   H2621     1.0  0.39683  0.14699  0.16479  1.0000
  H   H2622     1.0  0.31733  0.03067  0.10698  1.0000
  C   C1536     1.0  0.36349  0.16787  0.16918  1.0000
  C   C1537     1.0  0.36576  0.15507  0.18991  1.0000
  H   H2623     1.0  0.25433  0.39923  0.10684  1.0000
  H   H2624     1.0  0.32182  0.00317  0.11619  1.0000
  H   H2625     1.0  0.40237  0.02063  0.12207  1.0000
  H   H2626     1.0  0.39594  0.02537  0.09094  1.0000
  C   C1538     1.0  0.38673  0.14915  0.16850  1.0000
  C   C1539     1.0  0.48342  0.34549  0.09538  1.0000
  H   H2627     1.0  0.47391  0.12908  0.15808  1.0000
  H   H2628     1.0  0.31431  0.01383  0.09749  1.0000
  C   C1540     1.0  0.35568  0.07253  0.21968  1.0000
  N   N110      1.0  0.41405  0.03181  0.10796  1.0000
  C   C1541     1.0  0.26644  0.41335  0.08988  1.0000
  C   C1542     1.0  0.48490  0.14884  0.09242  1.0000
  H   H2629     1.0  0.28533  0.03601  0.12920  1.0000
  H   H2630     1.0  0.37232  0.15104  0.19625  1.0000
  H   H2631     1.0  0.40209  0.04391  0.20583  1.0000
  H   H2632     1.0  0.35643  0.07972  0.22409  1.0000
  C   C1543     1.0  0.42467  0.02094  0.10691  1.0000
  H   H2633     1.0  0.36923  0.17177  0.16028  1.0000
  C   C1544     1.0  0.25064  0.43058  0.09637  1.0000
  C   C1545     1.0  0.48745  0.09980  0.14146  1.0000
  C   C1546     1.0  0.42262  0.05099  0.09402  1.0000
  H   H2634     1.0  0.35947  0.12162  0.13259  1.0000
  H   H2635     1.0  0.35075  0.12674  0.11143  1.0000
  C   C1547     1.0  0.42259  0.39040  0.00185  1.0000
  H   H2636     1.0  0.26823  0.40446  0.08696  1.0000
  H   H2637     1.0  0.48220  0.35817  0.11431  1.0000
  H   H2638     1.0  0.41129  0.04989  0.11186  1.0000
  C   C1548     1.0  0.35092  0.17697  0.17028  1.0000
  C   C1549     1.0  0.32808  0.12271  0.13722  1.0000
  H   H2639     1.0  0.41453  0.05581  0.08976  1.0000
  H   H2640     1.0  0.32828  0.13733  0.14655  1.0000
  H   H2641     1.0  0.42678  0.38258  0.00854  1.0000
  H   H2642     1.0  0.34428  0.10147  0.13675  1.0000
  H   H2643     1.0  0.39750  0.03671  0.12144  1.0000
  C   C1550     1.0  0.35271  0.15836  0.19775  1.0000
  H   H2644     1.0  0.38591  0.17247  0.19180  1.0000
  H   H2645     1.0  0.38997  0.05549  0.20017  1.0000
  H   H2646     1.0  0.35584  0.10655  0.12425  1.0000
  H   H2647     1.0  0.34329  0.14922  0.10845  1.0000
  H   H2648     1.0  0.47622  0.08125  0.15667  1.0000
  H   H2649     1.0  0.34347  0.09576  0.11813  1.0000
  C   C1551     1.0  0.41861  0.04333  0.10699  1.0000
  H   H2650     1.0  0.41094  0.03744  0.08914  1.0000
  C   C1552     1.0  0.38376  0.16038  0.17453  1.0000
  C   C1553     1.0  0.43354  0.02108  0.09426  1.0000
  H   H2651     1.0  0.35283  0.14343  0.11951  1.0000
  C   C1554     1.0  0.47835  0.08272  0.16498  1.0000
  H   H2652     1.0  0.31327  0.03561  0.09237  1.0000
  C   C1555     1.0  0.34249  0.13034  0.11808  1.0000
  H   H2653     1.0  0.39608  0.01862  0.10664  1.0000
  H   H2654     1.0  0.47886  0.34784  0.08739  1.0000
  C   C1556     1.0  0.34972  0.12305  0.13780  1.0000
  C   C1557     1.0  0.34373  0.14346  0.11780  1.0000
  H   H2655     1.0  0.34767  0.13259  0.13929  1.0000
  H   H2656     1.0  0.34140  0.11117  0.10969  1.0000
  H   H2657     1.0  0.36186  0.15927  0.16780  1.0000
  H   H2658     1.0  0.42140  0.01209  0.10986  1.0000
  C   C1558     1.0  0.41170  0.02770  0.13168  1.0000
  C   C1559     1.0  0.37573  0.17512  0.19454  1.0000
  C   C1560     1.0  0.34573  0.10848  0.12804  1.0000
  H   H2659     1.0  0.33449  0.13135  0.11384  1.0000
  H   H2660     1.0  0.35482  0.11750  0.15569  1.0000
  H   H2661     1.0  0.35378  0.10486  0.15003  1.0000
  H   H2662     1.0  0.49175  0.12900  0.12297  1.0000
  H   H2663     1.0  0.28643  0.01188  0.13029  1.0000
  H   H2664     1.0  0.47632  0.17030  0.08177  1.0000
  H   H2665     1.0  0.47153  0.10882  0.15910  1.0000
  H   H2666     1.0  0.43766  0.01144  0.09317  1.0000
  H   H2667     1.0  0.29876  0.02185  0.09795  1.0000
  N   N111      1.0  0.49058  0.09972  0.15343  1.0000
  H   H2668     1.0  0.29430  0.00449  0.09652  1.0000
  C   C1561     1.0  0.48573  0.17043  0.08267  1.0000
  H   H2669     1.0  0.40076  0.06049  0.22821  1.0000
  H   H2670     1.0  0.31941  0.99853  0.13927  1.0000
  H   H2671     1.0  0.49563  0.36405  0.12394  1.0000
  H   H2672     1.0  0.36661  0.05688  0.21207  1.0000
  H   H2673     1.0  0.42840  0.38024  0.98771  1.0000
  H   H2674     1.0  0.41405  0.37791  0.99751  1.0000
  H   H2675     1.0  0.48670  0.36377  0.09173  1.0000
  H   H2676     1.0  0.39252  0.04494  0.22732  1.0000
  C   C1562     1.0  0.49104  0.35144  0.11514  1.0000
  C   C1563     1.0  0.24867  0.42383  0.07302  1.0000
  H   H2677     1.0  0.33320  0.37978  0.99309  1.0000
  C   C1564     1.0  0.49048  0.08737  0.16208  1.0000
  C   C1565     1.0  0.47247  0.16406  0.11060  1.0000
  H   H2678     1.0  0.49184  0.09038  0.12626  1.0000
  H   H2679     1.0  0.48838  0.10865  0.13485  1.0000
  C   C1566     1.0  0.48098  0.10938  0.15941  1.0000
  H   H2680     1.0  0.35227  0.36570  0.98893  1.0000
  H   H2681     1.0  0.48821  0.33569  0.09627  1.0000
  H   H2682     1.0  0.46683  0.16990  0.10387  1.0000
  C   C1567     1.0  0.31806  0.37415  0.98957  1.0000
  H   H2683     1.0  0.34968  0.34453  0.99433  1.0000
  H   H2684     1.0  0.38346  0.41402  0.98692  1.0000
  H   H2685     1.0  0.48946  0.17048  0.10552  1.0000
  H   H2686     1.0  0.49105  0.15457  0.11157  1.0000
  H   H2687     1.0  0.48267  0.19035  0.07633  1.0000
  C   C1568     1.0  0.48479  0.18345  0.08469  1.0000
  C   C1569     1.0  0.48643  0.16222  0.10507  1.0000
  H   H2688     1.0  0.48357  0.13701  0.08097  1.0000
  N   N112      1.0  0.49029  0.15958  0.09228  1.0000
  H   H2689     1.0  0.48685  0.14113  0.10032  1.0000
  C   C1570     1.0  0.49525  0.35418  0.12566  1.0000
  C   C1571     1.0  0.48945  0.14340  0.08069  1.0000
  H   H2690     1.0  0.48893  0.15061  0.07219  1.0000
  H   H2691     1.0  0.49341  0.18475  0.08627  1.0000
  Fe  Fe225     1.0  0.49611  0.38548  0.13511  1.0000
  H   H2692     1.0  0.33821  0.34790  0.98541  1.0000
  Fe  Fe226     1.0  0.38769  0.36555  0.98492  1.0000
  C   C1572     1.0  0.32983  0.37963  0.98488  1.0000
  H   H2693     1.0  0.30269  0.03682  0.41207  1.0000
  S   S449      1.0  0.35191  0.99058  0.38802  1.0000
  H   H2694     1.0  0.29700  0.10826  0.34795  1.0000
  Fe  Fe227     1.0  0.32086  0.03110  0.37943  1.0000
  S   S450      1.0  0.33004  0.04629  0.37871  1.0000
  S   S451      1.0  0.30243  0.03326  0.37498  1.0000
  Fe  Fe228     1.0  0.34260  0.01076  0.38625  1.0000
  S   S452      1.0  0.35336  0.02432  0.38685  1.0000
  Fe  Fe229     1.0  0.33533  0.03452  0.39623  1.0000
  S   S453      1.0  0.33106  0.04384  0.41232  1.0000
  Fe  Fe230     1.0  0.34709  0.03474  0.36944  1.0000
  S   S454      1.0  0.36089  0.04148  0.35300  1.0000
  S   S455      1.0  0.32507  0.01982  0.39751  1.0000
  S   S456      1.0  0.33735  0.02078  0.36833  1.0000
  C   C1573     1.0  0.33783  0.15866  0.47753  1.0000
  S   S457      1.0  0.26044  0.12119  0.39312  1.0000
  Fe  Fe231     1.0  0.26676  0.09830  0.37178  1.0000
  S   S458      1.0  0.28184  0.10608  0.37389  1.0000
  S   S459      1.0  0.27011  0.08591  0.35862  1.0000
  Fe  Fe232     1.0  0.27291  0.10249  0.39395  1.0000
  S   S460      1.0  0.28562  0.09247  0.40695  1.0000
  Fe  Fe233     1.0  0.26800  0.12395  0.37282  1.0000
  S   S461      1.0  0.27033  0.14274  0.36191  1.0000
  S   S462      1.0  0.25864  0.09335  0.39194  1.0000
  H   H2695     1.0  0.36078  0.03046  0.32066  1.0000
  Fe  Fe234     1.0  0.35708  0.12123  0.30098  1.0000
  S   S463      1.0  0.33713  0.12070  0.30410  1.0000
  S   S464      1.0  0.36843  0.12743  0.28213  1.0000
  Fe  Fe235     1.0  0.35721  0.11405  0.32847  1.0000
  S   S465      1.0  0.33730  0.11281  0.33390  1.0000
  S   S466      1.0  0.36900  0.10881  0.34274  1.0000
  Fe  Fe236     1.0  0.34164  0.10339  0.31803  1.0000
  S   S467      1.0  0.33266  0.08749  0.32042  1.0000
  Fe  Fe237     1.0  0.33448  0.13016  0.31961  1.0000
  S   S468      1.0  0.31917  0.14668  0.32158  1.0000
  S   S469      1.0  0.36194  0.10306  0.31371  1.0000
  S   S470      1.0  0.35411  0.13229  0.31539  1.0000
  Fe  Fe238     1.0  0.35402  0.11934  0.43062  1.0000
  S   S471      1.0  0.34241  0.10513  0.43392  1.0000
  S   S472      1.0  0.36166  0.11840  0.44752  1.0000
  Fe  Fe239     1.0  0.35166  0.12798  0.40347  1.0000
  S   S473      1.0  0.34011  0.11456  0.40511  1.0000
  S   S474      1.0  0.35362  0.14004  0.38443  1.0000
  Fe  Fe240     1.0  0.33030  0.12012  0.42287  1.0000
  S   S475      1.0  0.30965  0.12570  0.42594  1.0000
  Fe  Fe241     1.0  0.35334  0.10096  0.41564  1.0000
  S   S476      1.0  0.36235  0.08286  0.40966  1.0000
  S   S477      1.0  0.34096  0.13462  0.42077  1.0000
  S   S478      1.0  0.36584  0.11401  0.41294  1.0000
  C   C1574     1.0  0.36474  0.11776  0.35409  1.0000
  C   C1575     1.0  0.35650  0.12917  0.35270  1.0000
  C   C1576     1.0  0.35328  0.13609  0.36195  1.0000
  C   C1577     1.0  0.35791  0.13143  0.37279  1.0000
  C   C1578     1.0  0.36595  0.11992  0.37424  1.0000
  C   C1579     1.0  0.36952  0.11321  0.36482  1.0000
  H   H2696     1.0  0.35277  0.13275  0.34445  1.0000
  H   H2697     1.0  0.34713  0.14503  0.36073  1.0000
  H   H2698     1.0  0.36955  0.11625  0.38257  1.0000
  H   H2699     1.0  0.37583  0.10437  0.36598  1.0000
  C   C1580     1.0  0.29227  0.10183  0.41207  1.0000
  C   C1581     1.0  0.28609  0.11384  0.41317  1.0000
  C   C1582     1.0  0.29140  0.12105  0.41764  1.0000
  C   C1583     1.0  0.30304  0.11641  0.42067  1.0000
  C   C1584     1.0  0.30933  0.10450  0.41933  1.0000
  C   C1585     1.0  0.30384  0.09713  0.41526  1.0000
  H   H2700     1.0  0.27708  0.11744  0.41092  1.0000
  H   H2701     1.0  0.28647  0.13023  0.41876  1.0000
  H   H2702     1.0  0.31828  0.10084  0.42174  1.0000
  H   H2703     1.0  0.30856  0.08779  0.41461  1.0000
  C   C1586     1.0  0.28416  0.14344  0.35104  1.0000
  C   C1587     1.0  0.29432  0.13354  0.35120  1.0000
  C   C1588     1.0  0.30518  0.13433  0.34215  1.0000
  C   C1589     1.0  0.30586  0.14508  0.33302  1.0000
  C   C1590     1.0  0.29576  0.15501  0.33305  1.0000
  C   C1591     1.0  0.28495  0.15420  0.34203  1.0000
  H   H2704     1.0  0.29385  0.12533  0.35832  1.0000
  H   H2705     1.0  0.31301  0.12671  0.34229  1.0000
  H   H2706     1.0  0.29629  0.16336  0.32607  1.0000
  H   H2707     1.0  0.27717  0.16191  0.34193  1.0000
  C   C1592     1.0  0.29429  0.04819  0.36987  1.0000
  C   C1593     1.0  0.29694  0.05867  0.37183  1.0000
  C   C1594     1.0  0.28948  0.07035  0.36852  1.0000
  C   C1595     1.0  0.27966  0.07155  0.36287  1.0000
  C   C1596     1.0  0.27732  0.06112  0.36055  1.0000
  C   C1597     1.0  0.28448  0.04946  0.36423  1.0000
  H   H2708     1.0  0.30449  0.05775  0.37620  1.0000
  H   H2709     1.0  0.29135  0.07842  0.37027  1.0000
  H   H2710     1.0  0.26977  0.06201  0.35617  1.0000
  H   H2711     1.0  0.28240  0.04139  0.36269  1.0000
  C   C1598     1.0  0.33967  0.05488  0.41123  1.0000
  C   C1599     1.0  0.33436  0.06468  0.41737  1.0000
  C   C1600     1.0  0.34112  0.07351  0.41673  1.0000
  C   C1601     1.0  0.35336  0.07234  0.41026  1.0000
  C   C1602     1.0  0.35872  0.06248  0.40422  1.0000
  C   C1603     1.0  0.35183  0.05387  0.40454  1.0000
  H   H2712     1.0  0.32498  0.06548  0.42262  1.0000
  H   H2713     1.0  0.33693  0.08108  0.42144  1.0000
  H   H2714     1.0  0.36820  0.06151  0.39922  1.0000
  H   H2715     1.0  0.35602  0.04629  0.39986  1.0000
  C   C1604     1.0  0.35324  0.05345  0.34302  1.0000
  C   C1605     1.0  0.34057  0.05495  0.34383  1.0000
  C   C1606     1.0  0.33436  0.06511  0.33637  1.0000
  C   C1607     1.0  0.34077  0.07391  0.32833  1.0000
  C   C1608     1.0  0.35347  0.07223  0.32737  1.0000
  C   C1609     1.0  0.35973  0.06194  0.33461  1.0000
  H   H2716     1.0  0.33552  0.04837  0.35029  1.0000
  H   H2717     1.0  0.32452  0.06640  0.33718  1.0000
  H   H2718     1.0  0.35850  0.07881  0.32101  1.0000
  H   H2719     1.0  0.36953  0.06077  0.33396  1.0000
  H   H2720     1.0  0.36527  0.16070  0.44669  1.0000
  H   H2721     1.0  0.35184  0.00598  0.35112  1.0000
  C   C1610     1.0  0.37336  0.10526  0.25269  1.0000
  C   C1611     1.0  0.36864  0.10050  0.26509  1.0000
  C   C1612     1.0  0.36687  0.10733  0.27416  1.0000
  C   C1613     1.0  0.37002  0.11889  0.27089  1.0000
  C   C1614     1.0  0.37481  0.12363  0.25850  1.0000
  H   H2722     1.0  0.36630  0.09151  0.26770  1.0000
  H   H2723     1.0  0.36317  0.10359  0.28368  1.0000
  H   H2724     1.0  0.37727  0.13257  0.25592  1.0000
  C   C1615     1.0  0.37091  0.14778  0.46256  1.0000
  C   C1616     1.0  0.37258  0.13540  0.46866  1.0000
  C   C1617     1.0  0.36992  0.12656  0.46376  1.0000
  C   C1618     1.0  0.36527  0.12999  0.45289  1.0000
  C   C1619     1.0  0.36356  0.14237  0.44681  1.0000
  C   C1620     1.0  0.36650  0.15118  0.45155  1.0000
  H   H2725     1.0  0.38873  0.10378  0.44232  1.0000
  H   H2726     1.0  0.37145  0.11699  0.46845  1.0000
  H   H2727     1.0  0.36006  0.14516  0.43841  1.0000
  N   N113      1.0  0.34509  0.08333  0.37022  1.0000
  C   C1621     1.0  0.35859  0.07793  0.37036  1.0000
  C   C1622     1.0  0.34321  0.09694  0.36962  1.0000
  C   C1623     1.0  0.34253  0.08137  0.35873  1.0000
  C   C1624     1.0  0.33746  0.07696  0.38167  1.0000
  C   C1625     1.0  0.36335  0.06439  0.36899  1.0000
  C   C1626     1.0  0.34501  0.10037  0.38103  1.0000
  C   C1627     1.0  0.32920  0.08610  0.35670  1.0000
  C   C1628     1.0  0.32360  0.08288  0.38498  1.0000
  H   H2728     1.0  0.36458  0.08344  0.36288  1.0000
  H   H2729     1.0  0.36079  0.07830  0.37911  1.0000
  H   H2730     1.0  0.33404  0.10215  0.36802  1.0000
  H   H2731     1.0  0.34957  0.10110  0.36147  1.0000
  H   H2732     1.0  0.34875  0.08565  0.35042  1.0000
  H   H2733     1.0  0.34455  0.07139  0.35864  1.0000
  H   H2734     1.0  0.33804  0.06730  0.38117  1.0000
  H   H2735     1.0  0.34137  0.07605  0.38982  1.0000
  H   H2736     1.0  0.35738  0.05816  0.37520  1.0000
  H   H2737     1.0  0.36453  0.06361  0.35931  1.0000
  H   H2738     1.0  0.37263  0.06099  0.37130  1.0000
  H   H2739     1.0  0.35458  0.09698  0.38252  1.0000
  H   H2740     1.0  0.34321  0.11056  0.37953  1.0000
  H   H2741     1.0  0.33851  0.09704  0.38951  1.0000
  H   H2742     1.0  0.32919  0.08591  0.34714  1.0000
  H   H2743     1.0  0.32518  0.09572  0.35764  1.0000
  H   H2744     1.0  0.32309  0.07987  0.36267  1.0000
  H   H2745     1.0  0.31798  0.07697  0.38373  1.0000
  H   H2746     1.0  0.32068  0.09221  0.37967  1.0000
  H   H2747     1.0  0.32107  0.08361  0.39481  1.0000
  H   H2748     1.0  0.31249  0.10340  0.33948  1.0000
  N   N114      1.0  0.37969  0.07779  0.43956  1.0000
  C   C1629     1.0  0.37856  0.09057  0.44155  1.0000
  C   C1630     1.0  0.36673  0.07601  0.44121  1.0000
  C   C1631     1.0  0.38645  0.07749  0.42646  1.0000
  C   C1632     1.0  0.39225  0.11464  0.30091  1.0000
  H   H2749     1.0  0.37619  0.03194  0.31354  1.0000
  C   C1633     1.0  0.35828  0.07713  0.45390  1.0000
  C   C1634     1.0  0.38824  0.06548  0.42203  1.0000
  C   C1635     1.0  0.38675  0.06855  0.44860  1.0000
  H   H2750     1.0  0.37244  0.09750  0.43579  1.0000
  H   H2751     1.0  0.37411  0.09127  0.45124  1.0000
  H   H2752     1.0  0.36651  0.06705  0.43949  1.0000
  H   H2753     1.0  0.36204  0.08290  0.43420  1.0000
  H   H2754     1.0  0.38171  0.08513  0.41996  1.0000
  C   C1636     1.0  0.27080  0.05632  0.39891  1.0000
  H   H2755     1.0  0.34760  0.01840  0.32502  1.0000
  C   C1637     1.0  0.37472  0.99989  0.34735  1.0000
  N   N115      1.0  0.29446  0.10974  0.32345  1.0000
  H   H2756     1.0  0.26737  0.12447  0.34089  1.0000
  H   H2757     1.0  0.29246  0.02547  0.40116  1.0000
  H   H2758     1.0  0.34972  0.07394  0.45464  1.0000
  H   H2759     1.0  0.36265  0.07145  0.46162  1.0000
  H   H2760     1.0  0.35534  0.08688  0.45493  1.0000
  H   H2761     1.0  0.36912  0.03578  0.24158  1.0000
  H   H2762     1.0  0.38152  0.05252  0.44471  1.0000
  H   H2763     1.0  0.39593  0.07910  0.42490  1.0000
  C   C1638     1.0  0.38741  0.12513  0.31803  1.0000
  H   H2764     1.0  0.37946  0.06266  0.42299  1.0000
  H   H2765     1.0  0.36322  0.06313  0.24093  1.0000
  C   C1639     1.0  0.37637  0.11689  0.24940  1.0000
  H   H2766     1.0  0.30052  0.07154  0.39805  1.0000
  C   C1640     1.0  0.29462  0.04087  0.40753  1.0000
  H   H2767     1.0  0.37813  0.00064  0.36487  1.0000
  H   H2768     1.0  0.31349  0.16381  0.36113  1.0000
  H   H2769     1.0  0.29862  0.04367  0.39755  1.0000
  H   H2770     1.0  0.37612  0.13261  0.47703  1.0000
  H   H2771     1.0  0.31188  0.12536  0.29801  1.0000
  H   H2772     1.0  0.38416  0.07149  0.45760  1.0000
  H   H2773     1.0  0.35418  0.02120  0.34437  1.0000
  C   C1641     1.0  0.30328  0.10104  0.34325  1.0000
  S   S479      1.0  0.37572  0.09627  0.24163  1.0000
  H   H2774     1.0  0.32835  0.14925  0.37876  1.0000
  H   H2775     1.0  0.28192  0.14959  0.37975  1.0000
  H   H2776     1.0  0.28322  0.11367  0.30969  1.0000
  H   H2777     1.0  0.35451  0.04607  0.24563  1.0000
  H   H2778     1.0  0.27489  0.06947  0.40688  1.0000
  C   C1642     1.0  0.38494  0.05510  0.45161  1.0000
  H   H2779     1.0  0.27626  0.10992  0.34674  1.0000
  C   C1643     1.0  0.28857  0.14157  0.38374  1.0000
  C   C1644     1.0  0.27381  0.11609  0.33818  1.0000
  H   H2780     1.0  0.29845  0.15988  0.36433  1.0000
  C   C1645     1.0  0.28528  0.11988  0.32898  1.0000
  C   C1646     1.0  0.31924  0.14971  0.39754  1.0000
  H   H2781     1.0  0.30352  0.08973  0.31092  1.0000
  H   H2782     1.0  0.30997  0.11759  0.32258  1.0000
  H   H2783     1.0  0.38855  0.14552  0.29939  1.0000
  H   H2784     1.0  0.29012  0.09410  0.33798  1.0000
  H   H2785     1.0  0.30985  0.15652  0.35109  1.0000
  H   H2786     1.0  0.30082  0.05227  0.42213  1.0000
  H   H2787     1.0  0.27104  0.04396  0.42314  1.0000
  C   C1647     1.0  0.28865  0.10568  0.31522  1.0000
  C   C1648     1.0  0.29765  0.09793  0.30618  1.0000
  H   H2788     1.0  0.32372  0.14155  0.36400  1.0000
  H   H2789     1.0  0.31048  0.05637  0.39922  1.0000
  H   H2790     1.0  0.29232  0.13558  0.37698  1.0000
  H   H2791     1.0  0.28183  0.12750  0.32165  1.0000
  H   H2792     1.0  0.28305  0.13632  0.39187  1.0000
  H   H2793     1.0  0.32354  0.15713  0.39804  1.0000
  H   H2794     1.0  0.32671  0.14481  0.46797  1.0000
  H   H2795     1.0  0.39393  0.04870  0.45246  1.0000
  H   H2796     1.0  0.38096  0.20745  0.48431  1.0000
  H   H2797     1.0  0.30241  0.11944  0.38937  1.0000
  H   H2798     1.0  0.32523  0.14091  0.40106  1.0000
  C   C1649     1.0  0.31707  0.12943  0.38741  1.0000
  H   H2799     1.0  0.31543  0.12812  0.39758  1.0000
  H   H2800     1.0  0.31458  0.16068  0.38067  1.0000
  C   C1650     1.0  0.30581  0.11466  0.31638  1.0000
  C   C1651     1.0  0.29817  0.14606  0.38785  1.0000
  H   H2801     1.0  0.31716  0.11008  0.39006  1.0000
  C   C1652     1.0  0.30849  0.15684  0.36094  1.0000
  C   C1653     1.0  0.28825  0.03006  0.40910  1.0000
  C   C1654     1.0  0.27998  0.06101  0.40329  1.0000
  H   H2802     1.0  0.28644  0.06421  0.39474  1.0000
  C   C1655     1.0  0.40778  0.12420  0.30356  1.0000
  N   N116      1.0  0.28686  0.05197  0.41260  1.0000
  H   H2803     1.0  0.27195  0.05724  0.42742  1.0000
  H   H2804     1.0  0.39764  0.11390  0.29148  1.0000
  H   H2805     1.0  0.29089  0.03278  0.43269  1.0000
  H   H2806     1.0  0.37075  0.01962  0.31134  1.0000
  H   H2807     1.0  0.37582  0.14366  0.31855  1.0000
  C   C1656     1.0  0.34227  0.14488  0.48302  1.0000
  C   C1657     1.0  0.29806  0.09865  0.33324  1.0000
  C   C1658     1.0  0.31231  0.11899  0.38522  1.0000
  H   H2808     1.0  0.30361  0.10352  0.29889  1.0000
  H   H2809     1.0  0.29569  0.12678  0.30195  1.0000
  H   H2810     1.0  0.29524  0.15629  0.38644  1.0000
  H   H2811     1.0  0.30447  0.09243  0.35039  1.0000
  H   H2812     1.0  0.29227  0.09454  0.30149  1.0000
  H   H2813     1.0  0.31330  0.10736  0.31273  1.0000
  H   H2814     1.0  0.26877  0.11161  0.33419  1.0000
  H   H2815     1.0  0.28176  0.10005  0.32082  1.0000
  H   H2816     1.0  0.31001  0.15071  0.40374  1.0000
  C   C1659     1.0  0.41203  0.13497  0.30577  1.0000
  H   H2817     1.0  0.34425  0.16139  0.46870  1.0000
  H   H2818     1.0  0.41139  0.11597  0.31024  1.0000
  H   H2819     1.0  0.31429  0.11851  0.37538  1.0000
  H   H2820     1.0  0.28987  0.06641  0.41982  1.0000
  H   H2821     1.0  0.39683  0.06832  0.44537  1.0000
  C   C1660     1.0  0.30486  0.06353  0.40438  1.0000
  C   C1661     1.0  0.39070  0.09514  0.43885  1.0000
  H   H2822     1.0  0.37984  0.13523  0.33279  1.0000
  C   C1662     1.0  0.31862  0.15083  0.38402  1.0000
  H   H2823     1.0  0.41308  0.12216  0.29447  1.0000
  H   H2824     1.0  0.39290  0.11828  0.32446  1.0000
  H   H2825     1.0  0.26342  0.05314  0.40653  1.0000
  H   H2826     1.0  0.30973  0.13739  0.36542  1.0000
  H   H2827     1.0  0.32843  0.16072  0.47566  1.0000
  C   C1663     1.0  0.28345  0.04054  0.43534  1.0000
  S   S480      1.0  0.37447  0.15922  0.46820  1.0000
  H   H2828     1.0  0.31126  0.06687  0.40789  1.0000
  H   H2829     1.0  0.37861  0.13730  0.29731  1.0000
  C   C1664     1.0  0.27775  0.04869  0.42439  1.0000
  C   C1665     1.0  0.37026  0.02509  0.31815  1.0000
  H   H2830     1.0  0.39240  0.06703  0.41202  1.0000
  H   H2831     1.0  0.39117  0.14202  0.32109  1.0000
  H   H2832     1.0  0.40460  0.13927  0.28116  1.0000
  C   C1666     1.0  0.31365  0.14392  0.36802  1.0000
  H   H2833     1.0  0.40655  0.14415  0.30249  1.0000
  H   H2834     1.0  0.41204  0.13379  0.31567  1.0000
  H   H2835     1.0  0.32727  0.12756  0.38407  1.0000
  H   H2836     1.0  0.37632  0.05185  0.24359  1.0000
  C   C1667     1.0  0.39570  0.10184  0.30923  1.0000
  H   H2837     1.0  0.34571  0.14009  0.47520  1.0000
  H   H2838     1.0  0.39442  0.09760  0.42880  1.0000
  C   C1668     1.0  0.34526  0.01346  0.33467  1.0000
  C   C1669     1.0  0.29530  0.05853  0.41542  1.0000
  H   H2839     1.0  0.38243  0.11586  0.30046  1.0000
  H   H2840     1.0  0.42157  0.13519  0.30039  1.0000
  H   H2841     1.0  0.33636  0.01878  0.33904  1.0000
  H   H2842     1.0  0.30276  0.13464  0.30899  1.0000
  C   C1670     1.0  0.30380  0.12601  0.30580  1.0000
  N   N117      1.0  0.31157  0.14246  0.38179  1.0000
  H   H2843     1.0  0.28972  0.12431  0.33367  1.0000
  H   H2844     1.0  0.39371  0.09480  0.30540  1.0000
  C   C1671     1.0  0.38349  0.13730  0.32268  1.0000
  H   H2845     1.0  0.30523  0.09146  0.32906  1.0000
  H   H2846     1.0  0.33451  0.99539  0.37224  1.0000
  N   N118      1.0  0.39413  0.12550  0.30480  1.0000
  H   H2847     1.0  0.37869  0.12190  0.31965  1.0000
  C   C1672     1.0  0.39478  0.13876  0.28276  1.0000
  H   H2848     1.0  0.39008  0.10119  0.31874  1.0000
  C   C1673     1.0  0.40365  0.21149  0.47645  1.0000
  H   H2849     1.0  0.29691  0.14280  0.39802  1.0000
  H   H2850     1.0  0.40565  0.09924  0.30945  1.0000
  C   C1674     1.0  0.35507  0.01205  0.34222  1.0000
  H   H2851     1.0  0.37873  0.05308  0.46075  1.0000
  H   H2852     1.0  0.29021  0.02282  0.41729  1.0000
  H   H2853     1.0  0.38501  0.01337  0.32675  1.0000
  H   H2854     1.0  0.39479  0.05789  0.42663  1.0000
  H   H2855     1.0  0.38919  0.06380  0.24181  1.0000
  H   H2856     1.0  0.28715  0.04609  0.43957  1.0000
  H   H2857     1.0  0.37864  0.01476  0.35383  1.0000
  H   H2858     1.0  0.40278  0.20202  0.47692  1.0000
  H   H2859     1.0  0.26618  0.06405  0.39245  1.0000
  C   C1675     1.0  0.32449  0.13647  0.47479  1.0000
  C   C1676     1.0  0.36321  0.04488  0.23859  1.0000
  H   H2860     1.0  0.38006  0.12061  0.23988  1.0000
  H   H2861     1.0  0.35020  0.12011  0.48159  1.0000
  N   N119      1.0  0.36836  0.00686  0.33684  1.0000
  H   H2862     1.0  0.27824  0.03265  0.40935  1.0000
  H   H2863     1.0  0.27617  0.03662  0.44260  1.0000
  H   H2864     1.0  0.39777  0.08843  0.44352  1.0000
  C   C1677     1.0  0.38856  0.13702  0.29654  1.0000
  S   S481      1.0  0.25367  0.11649  0.36882  1.0000
  H   H2865     1.0  0.24890  0.15121  0.34730  1.0000
  H   H2866     1.0  0.37434  0.02365  0.33551  1.0000
  H   H2867     1.0  0.34359  0.00432  0.33480  1.0000
  C   C1678     1.0  0.37373  0.00701  0.35739  1.0000
  H   H2868     1.0  0.41243  0.21255  0.46974  1.0000
  H   H2869     1.0  0.31599  0.13489  0.47307  1.0000
  H   H2870     1.0  0.36441  0.00229  0.32123  1.0000
  H   H2871     1.0  0.36407  0.01049  0.36178  1.0000
  H   H2872     1.0  0.27563  0.04907  0.39356  1.0000
  H   H2873     1.0  0.39391  0.13151  0.27848  1.0000
  H   H2874     1.0  0.38997  0.14762  0.27778  1.0000
  H   H2875     1.0  0.33194  0.12850  0.47280  1.0000
  H   H2876     1.0  0.39596  0.21819  0.47262  1.0000
  C   C1679     1.0  0.37498  0.01709  0.32965  1.0000
  H   H2877     1.0  0.38477  0.99668  0.34395  1.0000
  H   H2878     1.0  0.33803  0.16454  0.48371  1.0000
  C   C1680     1.0  0.36893  0.99780  0.32917  1.0000
  H   H2879     1.0  0.38789  0.99738  0.31800  1.0000
  H   H2880     1.0  0.37102  0.99143  0.35208  1.0000
  H   H2881     1.0  0.24834  0.16610  0.33832  1.0000
  C   C1681     1.0  0.36991  0.05541  0.23709  1.0000
  C   C1682     1.0  0.38191  0.99096  0.32381  1.0000
  H   H2882     1.0  0.36365  0.99059  0.33475  1.0000
  H   H2883     1.0  0.37118  0.35972  0.63610  1.0000
  S   S482      1.0  0.36884  0.15807  0.52318  1.0000
  H   H2884     1.0  0.44978  0.07772  0.56860  1.0000
  S   S483      1.0  0.38249  0.14183  0.50172  1.0000
  Fe  Fe242     1.0  0.36373  0.14595  0.51377  1.0000
  S   S484      1.0  0.35302  0.13134  0.52436  1.0000
  Fe  Fe243     1.0  0.38692  0.15567  0.50992  1.0000
  S   S485      1.0  0.40280  0.15712  0.51745  1.0000
  C   C1683     1.0  0.46137  0.11011  0.56973  1.0000
  Fe  Fe244     1.0  0.36533  0.24106  0.57538  1.0000
  S   S486      1.0  0.35500  0.23075  0.59270  1.0000
  S   S487      1.0  0.37261  0.25832  0.57380  1.0000
  Fe  Fe245     1.0  0.36890  0.22016  0.56138  1.0000
  S   S488      1.0  0.35929  0.20832  0.57791  1.0000
  S   S489      1.0  0.37843  0.21167  0.54470  1.0000
  Fe  Fe246     1.0  0.34569  0.22579  0.58021  1.0000
  S   S490      1.0  0.32552  0.22526  0.58510  1.0000
  Fe  Fe247     1.0  0.36953  0.21422  0.58869  1.0000
  S   S491      1.0  0.37726  0.20055  0.60412  1.0000
  S   S492      1.0  0.35464  0.23762  0.56297  1.0000
  S   S493      1.0  0.38045  0.22460  0.57205  1.0000
  Fe  Fe248     1.0  0.33078  0.13655  0.59531  1.0000
  S   S494      1.0  0.32640  0.15625  0.58533  1.0000
  S   S495      1.0  0.35102  0.12710  0.59327  1.0000
  Fe  Fe249     1.0  0.30352  0.13456  0.60347  1.0000
  S   S496      1.0  0.29704  0.15430  0.59465  1.0000
  S   S497      1.0  0.28912  0.12305  0.61389  1.0000
  Fe  Fe250     1.0  0.31248  0.15025  0.57890  1.0000
  S   S498      1.0  0.30906  0.15825  0.55989  1.0000
  Fe  Fe251     1.0  0.31140  0.15865  0.60190  1.0000
  S   S499      1.0  0.30673  0.17549  0.61016  1.0000
  S   S500      1.0  0.31823  0.13023  0.58707  1.0000
  S   S501      1.0  0.31658  0.13925  0.61252  1.0000
  Fe  Fe252     1.0  0.42312  0.12924  0.58043  1.0000
  S   S502      1.0  0.42224  0.11713  0.59938  1.0000
  S   S503      1.0  0.41929  0.12182  0.56563  1.0000
  Fe  Fe253     1.0  0.42697  0.15049  0.58930  1.0000
  S   S504      1.0  0.42589  0.14029  0.60888  1.0000
  S   S505      1.0  0.42923  0.17005  0.58330  1.0000
  Fe  Fe254     1.0  0.43818  0.12470  0.60039  1.0000
  S   S506      1.0  0.45646  0.11366  0.60523  1.0000
  Fe  Fe255     1.0  0.41007  0.13392  0.60591  1.0000
  S   S507      1.0  0.39100  0.13504  0.61807  1.0000
  S   S508      1.0  0.44005  0.13538  0.58079  1.0000
  S   S509      1.0  0.41029  0.14550  0.58703  1.0000
  C   C1684     1.0  0.46401  0.17132  0.59388  1.0000
  Fe  Fe256     1.0  0.38115  0.35874  0.71766  1.0000
  S   S510      1.0  0.37056  0.35333  0.70666  1.0000
  Fe  Fe257     1.0  0.40077  0.36584  0.69526  1.0000
  S   S511      1.0  0.39211  0.36097  0.68234  1.0000
  S   S512      1.0  0.41724  0.37470  0.68810  1.0000
  Fe  Fe258     1.0  0.37437  0.37037  0.69277  1.0000
  S   S513      1.0  0.36100  0.38239  0.68127  1.0000
  Fe  Fe259     1.0  0.38913  0.34435  0.69715  1.0000
  S   S514      1.0  0.39336  0.32563  0.69249  1.0000
  S   S515      1.0  0.38322  0.37669  0.70460  1.0000
  S   S516      1.0  0.39954  0.34828  0.70924  1.0000
  Fe  Fe260     1.0  0.45643  0.35576  0.61210  1.0000
  S   S517      1.0  0.47016  0.34144  0.62178  1.0000
  S   S518      1.0  0.44143  0.35365  0.60389  1.0000
  Fe  Fe261     1.0  0.46491  0.37679  0.61630  1.0000
  S   S519      1.0  0.47917  0.36456  0.62666  1.0000
  S   S520      1.0  0.46230  0.39733  0.61173  1.0000
  Fe  Fe262     1.0  0.48367  0.35367  0.61192  1.0000
  Fe  Fe263     1.0  0.46475  0.35332  0.63577  1.0000
  S   S521      1.0  0.46182  0.34409  0.65578  1.0000
  S   S522      1.0  0.47050  0.36687  0.60071  1.0000
  S   S523      1.0  0.44991  0.36669  0.62697  1.0000
  Fe  Fe264     1.0  0.37733  0.30266  0.61782  1.0000
  S   S524      1.0  0.38530  0.29947  0.63471  1.0000
  S   S525      1.0  0.36792  0.28857  0.61486  1.0000
  Fe  Fe265     1.0  0.38033  0.32964  0.60996  1.0000
  S   S526      1.0  0.38837  0.32859  0.62597  1.0000
  S   S527      1.0  0.37653  0.34698  0.59555  1.0000
  Fe  Fe266     1.0  0.39923  0.31024  0.62212  1.0000
  S   S528      1.0  0.41920  0.30552  0.62357  1.0000
  Fe  Fe267     1.0  0.37394  0.31809  0.63727  1.0000
  S   S529      1.0  0.36261  0.32413  0.65470  1.0000
  S   S530      1.0  0.39230  0.31196  0.60500  1.0000
  S   S531      1.0  0.36480  0.32063  0.62153  1.0000
  Fe  Fe268     1.0  0.37507  0.44027  0.60325  1.0000
  S   S532      1.0  0.39312  0.43762  0.60864  1.0000
  S   S533      1.0  0.36407  0.45933  0.59741  1.0000
  Fe  Fe269     1.0  0.37593  0.41245  0.60906  1.0000
  S   S534      1.0  0.39395  0.40767  0.61508  1.0000
  S   S535      1.0  0.36493  0.39815  0.61103  1.0000
  Fe  Fe270     1.0  0.38587  0.42358  0.62453  1.0000
  S   S536      1.0  0.38799  0.42255  0.64359  1.0000
  Fe  Fe271     1.0  0.39926  0.42215  0.59851  1.0000
  S   S537      1.0  0.41742  0.42051  0.58516  1.0000
  S   S538      1.0  0.36733  0.42734  0.61992  1.0000
  S   S539      1.0  0.38176  0.42586  0.59168  1.0000
  S   S540      1.0  0.48110  0.12965  0.64076  1.0000
  C   C1685     1.0  0.37512  0.36141  0.59908  1.0000
  C   C1686     1.0  0.38018  0.36269  0.60844  1.0000
  C   C1687     1.0  0.37833  0.37437  0.61123  1.0000
  C   C1688     1.0  0.37111  0.38472  0.60493  1.0000
  C   C1689     1.0  0.36642  0.38343  0.59538  1.0000
  C   C1690     1.0  0.36861  0.37190  0.59232  1.0000
  H   H2885     1.0  0.38543  0.35469  0.61355  1.0000
  H   H2886     1.0  0.38183  0.37525  0.61876  1.0000
  H   H2887     1.0  0.36059  0.39128  0.59067  1.0000
  H   H2888     1.0  0.36471  0.37102  0.58505  1.0000
  C   C1691     1.0  0.44997  0.40355  0.60413  1.0000
  C   C1692     1.0  0.45050  0.41384  0.59445  1.0000
  C   C1693     1.0  0.44054  0.41892  0.58848  1.0000
  C   C1694     1.0  0.42984  0.41408  0.59260  1.0000
  C   C1695     1.0  0.42922  0.40397  0.60246  1.0000
  C   C1696     1.0  0.43940  0.39849  0.60798  1.0000
  H   H2889     1.0  0.45868  0.41774  0.59142  1.0000
  H   H2890     1.0  0.44105  0.42673  0.58082  1.0000
  H   H2891     1.0  0.42099  0.40022  0.60572  1.0000
  H   H2892     1.0  0.43889  0.39061  0.61549  1.0000
  C   C1697     1.0  0.43588  0.33989  0.60903  1.0000
  C   C1698     1.0  0.42481  0.33961  0.60620  1.0000
  C   C1699     1.0  0.41986  0.32898  0.61042  1.0000
  C   C1700     1.0  0.42595  0.31849  0.61752  1.0000
  C   C1701     1.0  0.43720  0.31860  0.62013  1.0000
  C   C1702     1.0  0.44214  0.32932  0.61594  1.0000
  H   H2893     1.0  0.41994  0.34761  0.60080  1.0000
  H   H2894     1.0  0.41137  0.32888  0.60807  1.0000
  H   H2895     1.0  0.44199  0.31044  0.62552  1.0000
  H   H2896     1.0  0.45079  0.32938  0.61799  1.0000
  C   C1703     1.0  0.42957  0.36605  0.67922  1.0000
  C   C1704     1.0  0.43657  0.37216  0.66864  1.0000
  C   C1705     1.0  0.44638  0.36546  0.66128  1.0000
  C   C1706     1.0  0.44953  0.35262  0.66481  1.0000
  C   C1707     1.0  0.44269  0.34651  0.67555  1.0000
  C   C1708     1.0  0.43253  0.35320  0.68261  1.0000
  H   H2897     1.0  0.43426  0.38208  0.66613  1.0000
  H   H2898     1.0  0.45167  0.37023  0.65303  1.0000
  H   H2899     1.0  0.44510  0.33658  0.67829  1.0000
  H   H2900     1.0  0.42717  0.34843  0.69081  1.0000
  C   C1709     1.0  0.36836  0.39367  0.67087  1.0000
  C   C1710     1.0  0.36530  0.39860  0.65932  1.0000
  C   C1711     1.0  0.37164  0.40716  0.65076  1.0000
  C   C1712     1.0  0.38062  0.41125  0.65393  1.0000
  C   C1713     1.0  0.38350  0.40654  0.66556  1.0000
  C   C1714     1.0  0.37752  0.39760  0.67394  1.0000
  H   H2901     1.0  0.35816  0.39571  0.65692  1.0000
  H   H2902     1.0  0.36941  0.41065  0.64179  1.0000
  H   H2903     1.0  0.39043  0.40968  0.66808  1.0000
  H   H2904     1.0  0.37988  0.39391  0.68285  1.0000
  C   C1715     1.0  0.38437  0.32467  0.68261  1.0000
  C   C1716     1.0  0.37358  0.33347  0.68110  1.0000
  C   C1717     1.0  0.36667  0.33282  0.67294  1.0000
  C   C1718     1.0  0.37093  0.32391  0.66565  1.0000
  C   C1719     1.0  0.38166  0.31504  0.66723  1.0000
  C   C1720     1.0  0.38815  0.31519  0.67599  1.0000
  H   H2905     1.0  0.37045  0.34069  0.68631  1.0000
  H   H2906     1.0  0.35811  0.33934  0.67213  1.0000
  H   H2907     1.0  0.38486  0.30796  0.66183  1.0000
  H   H2908     1.0  0.39630  0.30814  0.67735  1.0000
  C   C1721     1.0  0.35926  0.13841  0.55202  1.0000
  N   N120      1.0  0.39677  0.20754  0.50035  1.0000
  C   C1722     1.0  0.36580  0.47434  0.62501  1.0000
  C   C1723     1.0  0.36765  0.46607  0.61730  1.0000
  C   C1724     1.0  0.36142  0.46925  0.60760  1.0000
  C   C1725     1.0  0.25543  0.14229  0.60053  1.0000
  H   H2909     1.0  0.37087  0.47199  0.63230  1.0000
  H   H2910     1.0  0.37404  0.45732  0.61873  1.0000
  H   H2911     1.0  0.34233  0.15694  0.52408  1.0000
  C   C1726     1.0  0.46322  0.11779  0.61541  1.0000
  C   C1727     1.0  0.47606  0.11422  0.61463  1.0000
  C   C1728     1.0  0.48173  0.11765  0.62238  1.0000
  C   C1729     1.0  0.47454  0.12443  0.63121  1.0000
  C   C1730     1.0  0.46168  0.12768  0.63220  1.0000
  C   C1731     1.0  0.45606  0.12456  0.62423  1.0000
  H   H2912     1.0  0.48168  0.10891  0.60789  1.0000
  S   S541      1.0  0.26127  0.09808  0.58862  1.0000
  H   H2913     1.0  0.45604  0.13281  0.63909  1.0000
  H   H2914     1.0  0.44616  0.12720  0.62509  1.0000
  C   C1732     1.0  0.28183  0.11578  0.60675  1.0000
  C   C1733     1.0  0.28518  0.11594  0.59411  1.0000
  C   C1734     1.0  0.27892  0.11033  0.58874  1.0000
  C   C1735     1.0  0.26907  0.10476  0.59586  1.0000
  C   C1736     1.0  0.26578  0.10453  0.60852  1.0000
  C   C1737     1.0  0.27215  0.10997  0.61392  1.0000
  H   H2915     1.0  0.29262  0.12034  0.58847  1.0000
  H   H2916     1.0  0.28163  0.11043  0.57898  1.0000
  H   H2917     1.0  0.39965  0.23015  0.50519  1.0000
  H   H2918     1.0  0.26952  0.10974  0.62371  1.0000
  C   C1738     1.0  0.36176  0.12973  0.60036  1.0000
  C   C1739     1.0  0.37420  0.12816  0.59432  1.0000
  C   C1740     1.0  0.38320  0.12962  0.59976  1.0000
  C   C1741     1.0  0.37984  0.13273  0.61132  1.0000
  C   C1742     1.0  0.36742  0.13412  0.61749  1.0000
  C   C1743     1.0  0.35839  0.13263  0.61202  1.0000
  H   H2919     1.0  0.37692  0.12570  0.58542  1.0000
  H   H2920     1.0  0.39277  0.12822  0.59505  1.0000
  H   H2921     1.0  0.36483  0.13611  0.62661  1.0000
  H   H2922     1.0  0.34891  0.13329  0.61700  1.0000
  C   C1744     1.0  0.39215  0.19250  0.59885  1.0000
  C   C1745     1.0  0.39992  0.19791  0.58844  1.0000
  C   C1746     1.0  0.41157  0.19117  0.58394  1.0000
  C   C1747     1.0  0.41537  0.17895  0.58975  1.0000
  C   C1748     1.0  0.40779  0.17369  0.60041  1.0000
  C   C1749     1.0  0.39628  0.18053  0.60508  1.0000
  H   H2923     1.0  0.39705  0.20728  0.58387  1.0000
  H   H2924     1.0  0.41744  0.19530  0.57573  1.0000
  H   H2925     1.0  0.41069  0.16429  0.60502  1.0000
  H   H2926     1.0  0.39043  0.17635  0.61326  1.0000
  C   C1750     1.0  0.32105  0.21102  0.59192  1.0000
  C   C1751     1.0  0.31048  0.21084  0.60128  1.0000
  C   C1752     1.0  0.30628  0.19988  0.60672  1.0000
  C   C1753     1.0  0.31227  0.18903  0.60251  1.0000
  C   C1754     1.0  0.32270  0.18919  0.59287  1.0000
  C   C1755     1.0  0.32728  0.20012  0.58778  1.0000
  H   H2927     1.0  0.30556  0.21923  0.60446  1.0000
  H   H2928     1.0  0.29823  0.19984  0.61414  1.0000
  H   H2929     1.0  0.32730  0.18087  0.58952  1.0000
  H   H2930     1.0  0.33541  0.20020  0.58051  1.0000
  C   C1756     1.0  0.37163  0.26605  0.58566  1.0000
  C   C1757     1.0  0.38040  0.27316  0.58430  1.0000
  C   C1758     1.0  0.37969  0.27981  0.59329  1.0000
  C   C1759     1.0  0.37000  0.27966  0.60363  1.0000
  C   C1760     1.0  0.36133  0.27243  0.60504  1.0000
  C   C1761     1.0  0.36217  0.26561  0.59618  1.0000
  H   H2931     1.0  0.38780  0.27351  0.57624  1.0000
  H   H2932     1.0  0.38662  0.28507  0.59218  1.0000
  H   H2933     1.0  0.35380  0.27222  0.61300  1.0000
  H   H2934     1.0  0.35531  0.26026  0.59733  1.0000
  C   C1762     1.0  0.35878  0.19650  0.52378  1.0000
  C   C1763     1.0  0.35303  0.20741  0.52807  1.0000
  C   C1764     1.0  0.35861  0.21180  0.53516  1.0000
  C   C1765     1.0  0.37017  0.20548  0.53767  1.0000
  C   C1766     1.0  0.37590  0.19459  0.53336  1.0000
  C   C1767     1.0  0.37016  0.19001  0.52661  1.0000
  H   H2935     1.0  0.34436  0.21263  0.52568  1.0000
  H   H2936     1.0  0.35426  0.22036  0.53819  1.0000
  H   H2937     1.0  0.38490  0.18973  0.53513  1.0000
  N   N121      1.0  0.38085  0.16673  0.56887  1.0000
  C   C1768     1.0  0.40631  0.14757  0.53141  1.0000
  C   C1769     1.0  0.40440  0.13550  0.53514  1.0000
  C   C1770     1.0  0.40842  0.12773  0.54565  1.0000
  C   C1771     1.0  0.41389  0.13209  0.55281  1.0000
  C   C1772     1.0  0.41537  0.14431  0.54935  1.0000
  C   C1773     1.0  0.41180  0.15194  0.53856  1.0000
  H   H2938     1.0  0.40042  0.13199  0.52954  1.0000
  H   H2939     1.0  0.40759  0.11820  0.54805  1.0000
  H   H2940     1.0  0.41972  0.14773  0.55470  1.0000
  H   H2941     1.0  0.41346  0.16122  0.53564  1.0000
  C   C1774     1.0  0.33988  0.13864  0.53355  1.0000
  C   C1775     1.0  0.33271  0.13172  0.54330  1.0000
  C   C1776     1.0  0.32315  0.13769  0.55150  1.0000
  C   C1777     1.0  0.32035  0.15057  0.54948  1.0000
  C   C1778     1.0  0.32697  0.15745  0.53927  1.0000
  C   C1779     1.0  0.33692  0.15150  0.53152  1.0000
  H   H2942     1.0  0.33476  0.12177  0.54477  1.0000
  H   H2943     1.0  0.31787  0.13236  0.55931  1.0000
  H   H2944     1.0  0.32467  0.16739  0.53758  1.0000
  H   H2945     1.0  0.38865  0.10172  0.53442  1.0000
  N   N122      1.0  0.39084  0.22911  0.61171  1.0000
  C   C1780     1.0  0.39972  0.21679  0.61182  1.0000
  C   C1781     1.0  0.38815  0.23365  0.59894  1.0000
  C   C1782     1.0  0.37915  0.22700  0.62099  1.0000
  C   C1783     1.0  0.39690  0.23755  0.61517  1.0000
  C   C1784     1.0  0.40231  0.20936  0.62450  1.0000
  C   C1785     1.0  0.39924  0.23636  0.58847  1.0000
  C   C1786     1.0  0.36739  0.23712  0.61991  1.0000
  C   C1787     1.0  0.39061  0.25131  0.61367  1.0000
  H   H2946     1.0  0.39633  0.21071  0.60795  1.0000
  H   H2947     1.0  0.40887  0.21787  0.60582  1.0000
  H   H2948     1.0  0.38093  0.24216  0.59820  1.0000
  H   H2949     1.0  0.38420  0.22683  0.59666  1.0000
  H   H2950     1.0  0.37670  0.21841  0.62042  1.0000
  H   H2951     1.0  0.38053  0.22556  0.63054  1.0000
  H   H2952     1.0  0.39771  0.23442  0.62498  1.0000
  H   H2953     1.0  0.40666  0.23699  0.61007  1.0000
  H   H2954     1.0  0.40923  0.20077  0.62316  1.0000
  H   H2955     1.0  0.40625  0.21444  0.62898  1.0000
  H   H2956     1.0  0.39395  0.20644  0.63075  1.0000
  H   H2957     1.0  0.40356  0.24328  0.58998  1.0000
  H   H2958     1.0  0.40622  0.22787  0.58703  1.0000
  H   H2959     1.0  0.39592  0.24035  0.57972  1.0000
  H   H2960     1.0  0.36398  0.23763  0.61158  1.0000
  H   H2961     1.0  0.36854  0.24631  0.62009  1.0000
  H   H2962     1.0  0.35992  0.23473  0.62790  1.0000
  H   H2963     1.0  0.38456  0.25338  0.62246  1.0000
  H   H2964     1.0  0.38522  0.25463  0.60639  1.0000
  H   H2965     1.0  0.39774  0.25701  0.61087  1.0000
  H   H2966     1.0  0.38718  0.09464  0.55038  1.0000
  C   C1788     1.0  0.42905  0.08949  0.58801  1.0000
  C   C1789     1.0  0.47402  0.17203  0.58200  1.0000
  C   C1790     1.0  0.39964  0.19371  0.50163  1.0000
  H   H2967     1.0  0.48346  0.16853  0.58384  1.0000
  N   N123      1.0  0.31515  0.19600  0.55516  1.0000
  C   C1791     1.0  0.32033  0.20735  0.54870  1.0000
  C   C1792     1.0  0.30934  0.19285  0.54632  1.0000
  C   C1793     1.0  0.32512  0.18519  0.55890  1.0000
  C   C1794     1.0  0.30584  0.19861  0.56661  1.0000
  C   C1795     1.0  0.32754  0.21162  0.55586  1.0000
  C   C1796     1.0  0.29689  0.20126  0.54410  1.0000
  C   C1797     1.0  0.33656  0.18242  0.54868  1.0000
  C   C1798     1.0  0.29949  0.18791  0.57433  1.0000
  H   H2968     1.0  0.32651  0.20607  0.53969  1.0000
  H   H2969     1.0  0.31283  0.21536  0.54639  1.0000
  H   H2970     1.0  0.30787  0.18325  0.54929  1.0000
  H   H2971     1.0  0.31563  0.19307  0.53711  1.0000
  H   H2972     1.0  0.32837  0.18635  0.56675  1.0000
  H   H2973     1.0  0.32138  0.17662  0.56245  1.0000
  H   H2974     1.0  0.31026  0.20085  0.57302  1.0000
  H   H2975     1.0  0.29868  0.20709  0.56462  1.0000
  H   H2976     1.0  0.33540  0.20439  0.55863  1.0000
  H   H2977     1.0  0.33147  0.21954  0.54982  1.0000
  H   H2978     1.0  0.32145  0.21503  0.56401  1.0000
  H   H2979     1.0  0.28946  0.20009  0.55244  1.0000
  H   H2980     1.0  0.29746  0.21110  0.54092  1.0000
  H   H2981     1.0  0.29409  0.19858  0.53678  1.0000
  H   H2982     1.0  0.33416  0.18211  0.54006  1.0000
  H   H2983     1.0  0.34225  0.17325  0.55187  1.0000
  H   H2984     1.0  0.34243  0.18927  0.54659  1.0000
  H   H2985     1.0  0.29797  0.18218  0.56871  1.0000
  H   H2986     1.0  0.29018  0.19170  0.57937  1.0000
  H   H2987     1.0  0.35376  0.46546  0.67036  1.0000
  H   H2988     1.0  0.46850  0.08650  0.55507  1.0000
  H   H2989     1.0  0.38201  0.31183  0.71752  1.0000
  H   H2990     1.0  0.25205  0.12580  0.57884  1.0000
  H   H2991     1.0  0.39612  0.20417  0.51997  1.0000
  H   H2992     1.0  0.43736  0.16081  0.60718  1.0000
  H   H2993     1.0  0.41433  0.17737  0.50145  1.0000
  H   H2994     1.0  0.40062  0.40266  0.72658  1.0000
  H   H2995     1.0  0.37296  0.48349  0.58497  1.0000
  H   H2996     1.0  0.34844  0.48323  0.59821  1.0000
  H   H2997     1.0  0.26370  0.13362  0.57916  1.0000
  H   H2998     1.0  0.45785  0.10129  0.55191  1.0000
  H   H2999     1.0  0.35985  0.30842  0.72313  1.0000
  H   H3000     1.0  0.38487  0.16777  0.54315  1.0000
  H   H3001     1.0  0.42288  0.08763  0.59721  1.0000
  H   H3002     1.0  0.47345  0.18185  0.57723  1.0000
  H   H3003     1.0  0.47521  0.15786  0.62254  1.0000
  H   H3004     1.0  0.33626  0.14738  0.50615  1.0000
  H   H3005     1.0  0.46522  0.17760  0.59918  1.0000
  C   C1799     1.0  0.45947  0.15081  0.59561  1.0000
  H   H3006     1.0  0.44215  0.10907  0.57381  1.0000
  H   H3007     1.0  0.39135  0.18955  0.55747  1.0000
  H   H3008     1.0  0.39140  0.18476  0.57363  1.0000
  H   H3009     1.0  0.48324  0.15081  0.59721  1.0000
  H   H3010     1.0  0.44867  0.10602  0.58684  1.0000
  H   H3011     1.0  0.39112  0.16844  0.58895  1.0000
  H   H3012     1.0  0.33102  0.38000  0.64216  1.0000
  H   H3013     1.0  0.39112  0.10245  0.57783  1.0000
  C   C1800     1.0  0.46963  0.14242  0.58793  1.0000
  H   H3014     1.0  0.41947  0.19104  0.49278  1.0000
  H   H3015     1.0  0.45623  0.08815  0.54765  1.0000
  C   C1801     1.0  0.37992  0.15729  0.56232  1.0000
  C   C1802     1.0  0.39539  0.18222  0.56458  1.0000
  H   H3016     1.0  0.42716  0.08408  0.58225  1.0000
  C   C1803     1.0  0.37811  0.16218  0.54895  1.0000
  H   H3017     1.0  0.40053  0.16233  0.56847  1.0000
  H   H3018     1.0  0.39540  0.10381  0.56156  1.0000
  H   H3019     1.0  0.35163  0.18353  0.56578  1.0000
  H   H3020     1.0  0.37225  0.18305  0.55717  1.0000
  H   H3021     1.0  0.46509  0.11385  0.57569  1.0000
  C   C1804     1.0  0.47581  0.15223  0.60540  1.0000
  H   H3022     1.0  0.41282  0.31836  0.67182  1.0000
  H   H3023     1.0  0.41637  0.18768  0.50954  1.0000
  H   H3024     1.0  0.34486  0.12330  0.57187  1.0000
  C   C1805     1.0  0.37099  0.17819  0.56696  1.0000
  H   H3025     1.0  0.37511  0.17672  0.59083  1.0000
  H   H3026     1.0  0.37183  0.18510  0.57166  1.0000
  H   H3027     1.0  0.39702  0.16907  0.55408  1.0000
  H   H3028     1.0  0.37475  0.18168  0.52325  1.0000
  H   H3029     1.0  0.40235  0.38953  0.70593  1.0000
  H   H3030     1.0  0.38668  0.11779  0.54538  1.0000
  N   N124      1.0  0.42786  0.41638  0.63904  1.0000
  C   C1806     1.0  0.44065  0.40899  0.63524  1.0000
  C   C1807     1.0  0.42167  0.42001  0.62817  1.0000
  C   C1808     1.0  0.42030  0.40894  0.64972  1.0000
  C   C1809     1.0  0.42890  0.42752  0.64296  1.0000
  C   C1810     1.0  0.44835  0.40355  0.64529  1.0000
  C   C1811     1.0  0.42637  0.43007  0.61746  1.0000
  C   C1812     1.0  0.41870  0.39678  0.64759  1.0000
  C   C1813     1.0  0.41661  0.43652  0.64666  1.0000
  H   H3031     1.0  0.44628  0.41469  0.62765  1.0000
  H   H3032     1.0  0.41158  0.42315  0.63094  1.0000
  H   H3033     1.0  0.42262  0.41188  0.62424  1.0000
  H   H3034     1.0  0.42412  0.40678  0.65817  1.0000
  H   H3035     1.0  0.41083  0.41441  0.65225  1.0000
  H   H3036     1.0  0.43319  0.42465  0.65118  1.0000
  H   H3037     1.0  0.43540  0.43275  0.63588  1.0000
  H   H3038     1.0  0.45725  0.39794  0.64129  1.0000
  H   H3039     1.0  0.45068  0.41082  0.64846  1.0000
  H   H3040     1.0  0.43641  0.42757  0.61379  1.0000
  H   H3041     1.0  0.42171  0.43125  0.60976  1.0000
  H   H3042     1.0  0.42405  0.43913  0.62013  1.0000
  H   H3043     1.0  0.42762  0.39028  0.64556  1.0000
  H   H3044     1.0  0.41352  0.39846  0.64020  1.0000
  H   H3045     1.0  0.41315  0.39213  0.65616  1.0000
  H   H3046     1.0  0.41281  0.43405  0.65671  1.0000
  H   H3047     1.0  0.40941  0.43682  0.64174  1.0000
  H   H3048     1.0  0.41822  0.44606  0.64432  1.0000
  N   N125      1.0  0.35374  0.36668  0.64756  1.0000
  C   C1814     1.0  0.36743  0.36120  0.64566  1.0000
  C   C1815     1.0  0.34958  0.36896  0.66048  1.0000
  C   C1816     1.0  0.35163  0.37857  0.63820  1.0000
  C   C1817     1.0  0.37563  0.36887  0.64780  1.0000
  C   C1818     1.0  0.33574  0.37395  0.66487  1.0000
  C   C1819     1.0  0.33868  0.38321  0.63501  1.0000
  H   H3049     1.0  0.36926  0.35188  0.65170  1.0000
  H   H3050     1.0  0.35231  0.36039  0.66725  1.0000
  H   H3051     1.0  0.35423  0.37578  0.66165  1.0000
  H   H3052     1.0  0.35387  0.38617  0.64099  1.0000
  H   H3053     1.0  0.35807  0.37751  0.62932  1.0000
  H   H3054     1.0  0.37465  0.36845  0.65776  1.0000
  H   H3055     1.0  0.38544  0.36491  0.64425  1.0000
  H   H3056     1.0  0.37378  0.37860  0.64281  1.0000
  H   H3057     1.0  0.33284  0.38353  0.65988  1.0000
  H   H3058     1.0  0.32987  0.36791  0.66436  1.0000
  H   H3059     1.0  0.33644  0.39344  0.63329  1.0000
  H   H3060     1.0  0.36863  0.16764  0.54860  1.0000
  H   H3061     1.0  0.35942  0.10218  0.55860  1.0000
  H   H3062     1.0  0.45791  0.11815  0.56279  1.0000
  C   C1820     1.0  0.34755  0.11371  0.57050  1.0000
  H   H3063     1.0  0.35906  0.14772  0.55323  1.0000
  H   H3064     1.0  0.35404  0.11723  0.55070  1.0000
  H   H3065     1.0  0.45414  0.15124  0.62018  1.0000
  H   H3066     1.0  0.47468  0.13464  0.59396  1.0000
  H   H3067     1.0  0.34879  0.34882  0.65372  1.0000
  C   C1821     1.0  0.44073  0.16593  0.61211  1.0000
  S   S542      1.0  0.38076  0.17178  0.49524  1.0000
  H   H3068     1.0  0.33914  0.11137  0.56940  1.0000
  H   H3069     1.0  0.46914  0.10421  0.56467  1.0000
  H   H3070     1.0  0.37645  0.13173  0.55793  1.0000
  H   H3071     1.0  0.38838  0.14979  0.56215  1.0000
  H   H3072     1.0  0.37377  0.12035  0.53867  1.0000
  H   H3073     1.0  0.34956  0.13731  0.55472  1.0000
  H   H3074     1.0  0.36963  0.10908  0.57811  1.0000
  H   H3075     1.0  0.36693  0.21244  0.49451  1.0000
  H   H3076     1.0  0.37948  0.15420  0.54465  1.0000
  H   H3077     1.0  0.39108  0.46855  0.59221  1.0000
  C   C1822     1.0  0.35782  0.11205  0.55898  1.0000
  N   N126      1.0  0.36970  0.11554  0.55863  1.0000
  C   C1823     1.0  0.38860  0.10787  0.56898  1.0000
  H   H3078     1.0  0.44470  0.07527  0.59187  1.0000
  H   H3079     1.0  0.33875  0.38093  0.62617  1.0000
  C   C1824     1.0  0.46821  0.08481  0.59217  1.0000
  C   C1825     1.0  0.37532  0.10711  0.56911  1.0000
  C   C1826     1.0  0.38222  0.10135  0.54353  1.0000
  C   C1827     1.0  0.26281  0.15205  0.59226  1.0000
  H   H3080     1.0  0.33735  0.36035  0.64762  1.0000
  S   S543      1.0  0.35183  0.19132  0.51461  1.0000
  H   H3081     1.0  0.46525  0.13826  0.58292  1.0000
  H   H3082     1.0  0.47218  0.08513  0.57292  1.0000
  C   C1828     1.0  0.45877  0.09116  0.55492  1.0000
  H   H3083     1.0  0.38584  0.15144  0.58342  1.0000
  H   H3084     1.0  0.37229  0.15240  0.56739  1.0000
  C   C1829     1.0  0.46460  0.08305  0.58081  1.0000
  S   S544      1.0  0.35554  0.16174  0.50020  1.0000
  H   H3085     1.0  0.37003  0.15823  0.58602  1.0000
  Fe  Fe272     1.0  0.36253  0.17360  0.50848  1.0000
  C   C1830     1.0  0.39144  0.47269  0.58229  1.0000
  H   H3086     1.0  0.35017  0.10744  0.57897  1.0000
  H   H3087     1.0  0.30497  0.18180  0.58112  1.0000
  C   C1831     1.0  0.39365  0.16953  0.56393  1.0000
  N   N127      1.0  0.45210  0.09028  0.57853  1.0000
  C   C1832     1.0  0.45051  0.10394  0.57752  1.0000
  C   C1833     1.0  0.37933  0.16052  0.58230  1.0000
  H   H3088     1.0  0.35412  0.17779  0.58129  1.0000
  C   C1834     1.0  0.44981  0.08769  0.56719  1.0000
  C   C1835     1.0  0.37818  0.11440  0.54634  1.0000
  H   H3089     1.0  0.43460  0.16555  0.62138  1.0000
  H   H3090     1.0  0.37531  0.09731  0.56957  1.0000
  H   H3091     1.0  0.33408  0.37440  0.67472  1.0000
  C   C1836     1.0  0.36755  0.12867  0.56006  1.0000
  H   H3092     1.0  0.37430  0.09786  0.54291  1.0000
  H   H3093     1.0  0.38867  0.46610  0.57848  1.0000
  H   H3094     1.0  0.37971  0.16208  0.60056  1.0000
  N   N128      1.0  0.34871  0.17601  0.62179  1.0000
  C   C1837     1.0  0.36119  0.17619  0.62374  1.0000
  C   C1838     1.0  0.34548  0.18708  0.61184  1.0000
  C   C1839     1.0  0.34987  0.16419  0.61769  1.0000
  C   C1840     1.0  0.33958  0.17644  0.63384  1.0000
  C   C1841     1.0  0.36728  0.16465  0.63221  1.0000
  C   C1842     1.0  0.34320  0.19979  0.61513  1.0000
  C   C1843     1.0  0.34054  0.16402  0.61027  1.0000
  C   C1844     1.0  0.32588  0.17774  0.63370  1.0000
  H   H3095     1.0  0.36789  0.17736  0.61477  1.0000
  H   H3096     1.0  0.36071  0.18418  0.62772  1.0000
  H   H3097     1.0  0.33702  0.18705  0.60901  1.0000
  H   H3098     1.0  0.35283  0.18690  0.60331  1.0000
  H   H3099     1.0  0.35908  0.16168  0.61170  1.0000
  H   H3100     1.0  0.34930  0.15633  0.62576  1.0000
  H   H3101     1.0  0.34186  0.16788  0.64077  1.0000
  H   H3102     1.0  0.34026  0.18383  0.63811  1.0000
  H   H3103     1.0  0.36944  0.15624  0.62838  1.0000
  H   H3104     1.0  0.37624  0.16606  0.63300  1.0000
  H   H3105     1.0  0.36164  0.16304  0.64167  1.0000
  H   H3106     1.0  0.33520  0.20107  0.62287  1.0000
  H   H3107     1.0  0.35144  0.20147  0.61720  1.0000
  H   H3108     1.0  0.34092  0.20708  0.60707  1.0000
  H   H3109     1.0  0.33090  0.16711  0.61480  1.0000
  H   H3110     1.0  0.34138  0.15451  0.60921  1.0000
  H   H3111     1.0  0.34250  0.16963  0.60086  1.0000
  H   H3112     1.0  0.32360  0.16858  0.63510  1.0000
  H   H3113     1.0  0.32302  0.18374  0.62528  1.0000
  H   H3114     1.0  0.31999  0.18230  0.64126  1.0000
  H   H3115     1.0  0.42644  0.09943  0.58403  1.0000
  H   H3116     1.0  0.36108  0.34666  0.63331  1.0000
  H   H3117     1.0  0.46516  0.07300  0.58192  1.0000
  C   C1845     1.0  0.32834  0.14637  0.50284  1.0000
  C   C1846     1.0  0.34748  0.35718  0.64629  1.0000
  H   H3118     1.0  0.41912  0.40162  0.72769  1.0000
  H   H3119     1.0  0.36343  0.12952  0.56970  1.0000
  C   C1847     1.0  0.44262  0.08555  0.58945  1.0000
  H   H3120     1.0  0.44286  0.08857  0.59783  1.0000
  H   H3121     1.0  0.44384  0.39729  0.65321  1.0000
  H   H3122     1.0  0.38552  0.22633  0.51537  1.0000
  H   H3123     1.0  0.38037  0.48459  0.60273  1.0000
  H   H3124     1.0  0.36272  0.13824  0.54217  1.0000
  C   C1848     1.0  0.35752  0.17651  0.57165  1.0000
  H   H3125     1.0  0.38958  0.11741  0.56811  1.0000
  C   C1849     1.0  0.35186  0.35291  0.63389  1.0000
  C   C1850     1.0  0.37423  0.31880  0.72123  1.0000
  H   H3126     1.0  0.49163  0.11505  0.62155  1.0000
  H   H3127     1.0  0.45650  0.16632  0.61841  1.0000
  H   H3128     1.0  0.43956  0.17576  0.60736  1.0000
  H   H3129     1.0  0.45509  0.17560  0.59088  1.0000
  C   C1851     1.0  0.31910  0.14139  0.51433  1.0000
  H   H3130     1.0  0.41437  0.39665  0.70680  1.0000
  H   H3131     1.0  0.27116  0.14763  0.58626  1.0000
  H   H3132     1.0  0.39622  0.48521  0.59776  1.0000
  N   N129      1.0  0.46358  0.15868  0.60188  1.0000
  H   H3133     1.0  0.25838  0.10006  0.61415  1.0000
  H   H3134     1.0  0.43411  0.39330  0.72314  1.0000
  H   H3135     1.0  0.35488  0.32510  0.71894  1.0000
  N   N130      1.0  0.33287  0.13886  0.49293  1.0000
  H   H3136     1.0  0.45307  0.15659  0.58953  1.0000
  H   H3137     1.0  0.46206  0.08146  0.60092  1.0000
  H   H3138     1.0  0.40922  0.37138  0.71768  1.0000
  C   C1852     1.0  0.35331  0.48072  0.60569  1.0000
  H   H3139     1.0  0.37636  0.32774  0.71564  1.0000
  C   C1853     1.0  0.39573  0.22349  0.51316  1.0000
  H   H3140     1.0  0.40104  0.47328  0.57749  1.0000
  Fe  Fe273     1.0  0.37443  0.15820  0.48831  1.0000
  H   H3141     1.0  0.47768  0.07938  0.59272  1.0000
  H   H3142     1.0  0.32368  0.13319  0.52033  1.0000
  H   H3143     1.0  0.45404  0.14434  0.60251  1.0000
  C   C1854     1.0  0.40442  0.39646  0.70978  1.0000
  H   H3144     1.0  0.39895  0.22408  0.52126  1.0000
  C   C1855     1.0  0.48068  0.15851  0.61296  1.0000
  H   H3145     1.0  0.34703  0.12689  0.50239  1.0000
  N   N131      1.0  0.41663  0.38411  0.58115  1.0000
  C   C1856     1.0  0.42949  0.38534  0.58095  1.0000
  C   C1857     1.0  0.40867  0.38653  0.59332  1.0000
  C   C1858     1.0  0.41203  0.39381  0.57070  1.0000
  C   C1859     1.0  0.41748  0.37132  0.57944  1.0000
  C   C1860     1.0  0.43904  0.38432  0.56883  1.0000
  C   C1861     1.0  0.41212  0.37723  0.60490  1.0000
  C   C1862     1.0  0.39793  0.39767  0.57165  1.0000
  C   C1863     1.0  0.40528  0.36718  0.58116  1.0000
  H   H3146     1.0  0.42923  0.39436  0.58295  1.0000
  H   H3147     1.0  0.43357  0.37820  0.58822  1.0000
  H   H3148     1.0  0.39881  0.38681  0.59394  1.0000
  H   H3149     1.0  0.40877  0.39589  0.59427  1.0000
  H   H3150     1.0  0.41511  0.40254  0.56971  1.0000
  H   H3151     1.0  0.41607  0.39084  0.56177  1.0000
  H   H3152     1.0  0.42259  0.37027  0.57000  1.0000
  H   H3153     1.0  0.42330  0.36427  0.58541  1.0000
  H   H3154     1.0  0.44790  0.38573  0.56989  1.0000
  H   H3155     1.0  0.44099  0.37503  0.56673  1.0000
  H   H3156     1.0  0.43629  0.39152  0.56093  1.0000
  H   H3157     1.0  0.42121  0.37755  0.60634  1.0000
  H   H3158     1.0  0.40519  0.37964  0.61313  1.0000
  H   H3159     1.0  0.41192  0.36771  0.60468  1.0000
  H   H3160     1.0  0.39343  0.38980  0.57340  1.0000
  H   H3161     1.0  0.39602  0.40374  0.56281  1.0000
  H   H3162     1.0  0.39349  0.40320  0.57885  1.0000
  H   H3163     1.0  0.40229  0.36927  0.57227  1.0000
  H   H3164     1.0  0.39767  0.37121  0.58796  1.0000
  H   H3165     1.0  0.40661  0.35707  0.58481  1.0000
  H   H3166     1.0  0.35212  0.36072  0.62584  1.0000
  C   C1864     1.0  0.36270  0.31714  0.71785  1.0000
  H   H3167     1.0  0.46841  0.09455  0.59150  1.0000
  H   H3168     1.0  0.34543  0.34748  0.63322  1.0000
  H   H3169     1.0  0.40541  0.18219  0.56255  1.0000
  H   H3170     1.0  0.35622  0.16745  0.57118  1.0000
  H   H3171     1.0  0.48116  0.16821  0.60853  1.0000
  H   H3172     1.0  0.44055  0.09286  0.56544  1.0000
  H   H3173     1.0  0.31523  0.14853  0.52002  1.0000
  C   C1865     1.0  0.38139  0.16756  0.59100  1.0000
  H   H3174     1.0  0.44030  0.40121  0.63138  1.0000
  N   N132      1.0  0.35749  0.31735  0.58336  1.0000
  C   C1866     1.0  0.35089  0.30686  0.58591  1.0000
  C   C1867     1.0  0.35434  0.32208  0.59510  1.0000
  C   C1868     1.0  0.37117  0.31211  0.58053  1.0000
  C   C1869     1.0  0.35348  0.32699  0.57261  1.0000
  C   C1870     1.0  0.35349  0.29976  0.57549  1.0000
  C   C1871     1.0  0.34055  0.32737  0.59967  1.0000
  C   C1872     1.0  0.37979  0.32130  0.57698  1.0000
  C   C1873     1.0  0.35507  0.34028  0.57143  1.0000
  H   H3175     1.0  0.35303  0.29995  0.59429  1.0000
  H   H3176     1.0  0.34071  0.31023  0.58796  1.0000
  H   H3177     1.0  0.35948  0.32920  0.59453  1.0000
  H   H3178     1.0  0.35732  0.31448  0.60268  1.0000
  H   H3179     1.0  0.37389  0.30510  0.58861  1.0000
  H   H3180     1.0  0.37376  0.30733  0.57272  1.0000
  H   H3181     1.0  0.35844  0.32407  0.56380  1.0000
  H   H3182     1.0  0.34350  0.32775  0.57300  1.0000
  H   H3183     1.0  0.36284  0.29377  0.57444  1.0000
  H   H3184     1.0  0.34696  0.29344  0.57796  1.0000
  H   H3185     1.0  0.35215  0.30594  0.56656  1.0000
  H   H3186     1.0  0.33531  0.31990  0.60383  1.0000
  H   H3187     1.0  0.33966  0.33231  0.60708  1.0000
  H   H3188     1.0  0.33624  0.33402  0.59234  1.0000
  H   H3189     1.0  0.37889  0.32764  0.56801  1.0000
  H   H3190     1.0  0.38950  0.31606  0.57585  1.0000
  H   H3191     1.0  0.37850  0.32654  0.58418  1.0000
  H   H3192     1.0  0.35872  0.34416  0.56162  1.0000
  H   H3193     1.0  0.36145  0.34119  0.57671  1.0000
  H   H3194     1.0  0.34598  0.34641  0.57397  1.0000
  N   N133      1.0  0.35239  0.44718  0.65786  1.0000
  C   C1874     1.0  0.36441  0.44388  0.66218  1.0000
  C   C1875     1.0  0.34329  0.44057  0.66759  1.0000
  C   C1876     1.0  0.34722  0.46086  0.65594  1.0000
  C   C1877     1.0  0.35471  0.44332  0.64577  1.0000
  C   C1878     1.0  0.37442  0.45111  0.65439  1.0000
  C   C1879     1.0  0.34571  0.42650  0.66870  1.0000
  C   C1880     1.0  0.34512  0.46665  0.66718  1.0000
  C   C1881     1.0  0.34331  0.44581  0.63998  1.0000
  H   H3195     1.0  0.36288  0.44496  0.67183  1.0000
  H   H3196     1.0  0.36868  0.43397  0.66244  1.0000
  H   H3197     1.0  0.33367  0.44448  0.66626  1.0000
  H   H3198     1.0  0.34312  0.44198  0.67686  1.0000
  H   H3199     1.0  0.35318  0.46598  0.64813  1.0000
  H   H3200     1.0  0.33816  0.46315  0.65314  1.0000
  H   H3201     1.0  0.36142  0.44823  0.63871  1.0000
  H   H3202     1.0  0.35943  0.43347  0.64637  1.0000
  H   H3203     1.0  0.38278  0.44761  0.65845  1.0000
  H   H3204     1.0  0.37733  0.44971  0.64480  1.0000
  H   H3205     1.0  0.37152  0.46110  0.65439  1.0000
  H   H3206     1.0  0.33896  0.42258  0.67664  1.0000
  H   H3207     1.0  0.34441  0.42414  0.66042  1.0000
  H   H3208     1.0  0.35502  0.42183  0.67046  1.0000
  C   C1882     1.0  0.40434  0.21391  0.48881  1.0000
  H   H3209     1.0  0.33808  0.46296  0.67492  1.0000
  H   H3210     1.0  0.34159  0.47674  0.66449  1.0000
  H   H3211     1.0  0.34289  0.45451  0.63287  1.0000
  H   H3212     1.0  0.33444  0.44643  0.64670  1.0000
  H   H3213     1.0  0.34394  0.43812  0.63552  1.0000
  N   N134      1.0  0.42126  0.34018  0.65051  1.0000
  C   C1883     1.0  0.41389  0.35319  0.64769  1.0000
  C   C1884     1.0  0.41693  0.33253  0.64428  1.0000
  C   C1885     1.0  0.43462  0.34048  0.64484  1.0000
  C   C1886     1.0  0.41935  0.33568  0.66430  1.0000
  C   C1887     1.0  0.41727  0.36294  0.65254  1.0000
  C   C1888     1.0  0.40306  0.33234  0.64819  1.0000
  C   C1889     1.0  0.44395  0.32817  0.64681  1.0000
  C   C1890     1.0  0.42162  0.32156  0.66919  1.0000
  H   H3214     1.0  0.41461  0.35654  0.63755  1.0000
  H   H3215     1.0  0.40391  0.35350  0.65175  1.0000
  H   H3216     1.0  0.42199  0.32281  0.64563  1.0000
  H   H3217     1.0  0.41891  0.33594  0.63411  1.0000
  H   H3218     1.0  0.43581  0.34426  0.63472  1.0000
  H   H3219     1.0  0.43787  0.34674  0.64860  1.0000
  H   H3220     1.0  0.42525  0.33937  0.66811  1.0000
  H   H3221     1.0  0.40966  0.33932  0.66873  1.0000
  H   H3222     1.0  0.41010  0.37155  0.65148  1.0000
  H   H3223     1.0  0.41755  0.36002  0.66245  1.0000
  H   H3224     1.0  0.42615  0.36540  0.64717  1.0000
  H   H3225     1.0  0.39945  0.33213  0.65811  1.0000
  H   H3226     1.0  0.39761  0.34047  0.64288  1.0000
  H   H3227     1.0  0.40151  0.32396  0.64620  1.0000
  H   H3228     1.0  0.44183  0.32085  0.64356  1.0000
  H   H3229     1.0  0.44489  0.32509  0.65656  1.0000
  H   H3230     1.0  0.45318  0.32954  0.64142  1.0000
  H   H3231     1.0  0.42506  0.31936  0.67786  1.0000
  H   H3232     1.0  0.42833  0.31594  0.66298  1.0000
  H   H3233     1.0  0.31745  0.13066  0.49423  1.0000
  H   H3234     1.0  0.47635  0.14734  0.58103  1.0000
  H   H3235     1.0  0.31124  0.13926  0.51194  1.0000
  H   H3236     1.0  0.25760  0.15991  0.58655  1.0000
  H   H3237     1.0  0.26190  0.13325  0.60028  1.0000
  H   H3238     1.0  0.47248  0.16723  0.57553  1.0000
  C   C1891     1.0  0.45417  0.16027  0.61360  1.0000
  H   H3239     1.0  0.47522  0.14281  0.61088  1.0000
  C   C1892     1.0  0.38233  0.48524  0.58025  1.0000
  H   H3240     1.0  0.36983  0.38195  0.72829  1.0000
  H   H3241     1.0  0.32360  0.15588  0.49918  1.0000
  H   H3242     1.0  0.39685  0.19090  0.49442  1.0000
  H   H3243     1.0  0.33666  0.11344  0.48874  1.0000
  H   H3244     1.0  0.41018  0.20769  0.51063  1.0000
  H   H3245     1.0  0.36493  0.31671  0.70794  1.0000
  C   C1893     1.0  0.33921  0.12620  0.49869  1.0000
  H   H3246     1.0  0.48627  0.32744  0.64298  1.0000
  H   H3247     1.0  0.25367  0.14343  0.61020  1.0000
  H   H3248     1.0  0.48803  0.33395  0.65887  1.0000
  H   H3249     1.0  0.26639  0.15595  0.59819  1.0000
  H   H3250     1.0  0.39928  0.40556  0.70560  1.0000
  H   H3251     1.0  0.49022  0.15348  0.61381  1.0000
  C   C1894     1.0  0.40003  0.21008  0.51124  1.0000
  H   H3252     1.0  0.39414  0.18933  0.51042  1.0000
  C   C1895     1.0  0.35142  0.48896  0.61344  1.0000
  H   H3253     1.0  0.40154  0.22408  0.48788  1.0000
  H   H3254     1.0  0.37790  0.21140  0.51053  1.0000
  C   C1896     1.0  0.35764  0.48578  0.62315  1.0000
  C   C1897     1.0  0.38313  0.21267  0.50084  1.0000
  H   H3255     1.0  0.38134  0.22282  0.49722  1.0000
  C   C1898     1.0  0.25461  0.13490  0.57686  1.0000
  H   H3256     1.0  0.37590  0.19752  0.49881  1.0000
  H   H3257     1.0  0.25568  0.13838  0.56675  1.0000
  H   H3258     1.0  0.49529  0.32396  0.62871  1.0000
  C   C1899     1.0  0.49478  0.34407  0.66786  1.0000
  H   H3259     1.0  0.35006  0.10846  0.49525  1.0000
  H   H3260     1.0  0.48536  0.34819  0.67244  1.0000
  H   H3261     1.0  0.38223  0.48774  0.57025  1.0000
  H   H3262     1.0  0.48844  0.34919  0.65068  1.0000
  H   H3263     1.0  0.38221  0.29444  0.72992  1.0000
  H   H3264     1.0  0.31470  0.14679  0.48863  1.0000
  C   C1900     1.0  0.41328  0.18730  0.50131  1.0000
  C   C1901     1.0  0.37658  0.20713  0.49411  1.0000
  H   H3265     1.0  0.39852  0.31916  0.71888  1.0000
  C   C1902     1.0  0.32197  0.13823  0.48819  1.0000
  H   H3266     1.0  0.33287  0.12178  0.50669  1.0000
  C   C1903     1.0  0.49590  0.32473  0.63797  1.0000
  H   H3267     1.0  0.39001  0.39435  0.72603  1.0000
  C   C1904     1.0  0.49392  0.34094  0.65589  1.0000
  H   H3268     1.0  0.36462  0.33770  0.73203  1.0000
  H   H3269     1.0  0.41424  0.21197  0.48932  1.0000
  H   H3270     1.0  0.38533  0.33042  0.73417  1.0000
  C   C1905     1.0  0.42523  0.39251  0.72978  1.0000
  H   H3271     1.0  0.35064  0.14416  0.48659  1.0000
  H   H3272     1.0  0.42480  0.38009  0.71869  1.0000
  H   H3273     1.0  0.40532  0.31566  0.73197  1.0000
  C   C1906     1.0  0.40007  0.39427  0.72389  1.0000
  C   C1907     1.0  0.34427  0.11669  0.49041  1.0000
  N   N135      1.0  0.37341  0.31830  0.73465  1.0000
  C   C1908     1.0  0.39747  0.31445  0.72874  1.0000
  H   H3274     1.0  0.39844  0.30447  0.72954  1.0000
  C   C1909     1.0  0.42055  0.38173  0.72817  1.0000
  H   H3275     1.0  0.39445  0.37309  0.72754  1.0000
  C   C1910     1.0  0.40443  0.37190  0.72735  1.0000
  N   N136      1.0  0.40678  0.38264  0.73106  1.0000
  H   H3276     1.0  0.24816  0.12216  0.59930  1.0000
  H   H3277     1.0  0.40649  0.35198  0.73137  1.0000
  H   H3278     1.0  0.42505  0.37339  0.73411  1.0000
  N   N137      1.0  0.34020  0.37348  0.97589  1.0000
  S   S545      1.0  0.39092  0.37506  0.96477  1.0000
  H   H3279     1.0  0.35423  0.33913  0.75278  1.0000
  S   S546      1.0  0.33817  0.46360  0.84297  1.0000
  S   S547      1.0  0.30941  0.47538  0.82858  1.0000
  C   C1911     1.0  0.31577  0.47356  0.78730  1.0000
  Fe  Fe274     1.0  0.35146  0.47580  0.83258  1.0000
  S   S548      1.0  0.36965  0.47065  0.81991  1.0000
  Fe  Fe275     1.0  0.33605  0.47307  0.85833  1.0000
  S   S549      1.0  0.33424  0.46263  0.87789  1.0000
  H   H3280     1.0  0.32496  0.40600  0.82869  1.0000
  H   H3281     1.0  0.30570  0.47376  0.79017  1.0000
  S   S550      1.0  0.26163  0.39708  0.85006  1.0000
  Fe  Fe276     1.0  0.26528  0.42788  0.85590  1.0000
  S   S551      1.0  0.28119  0.41460  0.84752  1.0000
  S   S552      1.0  0.26884  0.44450  0.86073  1.0000
  Fe  Fe277     1.0  0.26834  0.41304  0.83657  1.0000
  S   S553      1.0  0.27514  0.41136  0.81684  1.0000
  Fe  Fe278     1.0  0.27304  0.39994  0.86184  1.0000
  S   S554      1.0  0.28665  0.38414  0.87027  1.0000
  H   H3282     1.0  0.30332  0.47866  0.89753  1.0000
  S   S555      1.0  0.25771  0.41318  0.87116  1.0000
  Fe  Fe279     1.0  0.35939  0.39591  0.89287  1.0000
  S   S556      1.0  0.36854  0.37606  0.89839  1.0000
  S   S557      1.0  0.37005  0.41035  0.88138  1.0000
  Fe  Fe280     1.0  0.33366  0.39079  0.90176  1.0000
  S   S558      1.0  0.34050  0.37052  0.90789  1.0000
  S   S559      1.0  0.31375  0.40045  0.90287  1.0000
  Fe  Fe281     1.0  0.35385  0.37610  0.91566  1.0000
  S   S560      1.0  0.35687  0.36518  0.93452  1.0000
  Fe  Fe282     1.0  0.35455  0.37223  0.89015  1.0000
  S   S561      1.0  0.36010  0.35830  0.87804  1.0000
  S   S562      1.0  0.34582  0.39640  0.91088  1.0000
  S   S563      1.0  0.34656  0.39195  0.88341  1.0000
  Fe  Fe283     1.0  0.34311  0.41409  0.80172  1.0000
  S   S564      1.0  0.34569  0.39625  0.79596  1.0000
  S   S565      1.0  0.32562  0.42767  0.80637  1.0000
  Fe  Fe284     1.0  0.37024  0.41154  0.80061  1.0000
  S   S566      1.0  0.37541  0.39357  0.79439  1.0000
  S   S567      1.0  0.38512  0.41951  0.80314  1.0000
  Fe  Fe285     1.0  0.36189  0.40230  0.78199  1.0000
  S   S568      1.0  0.36531  0.40282  0.76157  1.0000
  Fe  Fe286     1.0  0.35890  0.38912  0.80889  1.0000
  S   S569      1.0  0.36045  0.37018  0.82095  1.0000
  S   S570      1.0  0.35827  0.42083  0.78690  1.0000
  S   S571      1.0  0.35473  0.40643  0.81599  1.0000
  H   H3283     1.0  0.37049  0.30613  0.75251  1.0000
  C   C1912     1.0  0.36702  0.38956  0.75579  1.0000
  C   C1913     1.0  0.36731  0.39100  0.74323  1.0000
  C   C1914     1.0  0.33773  0.47355  0.80151  1.0000
  C   C1915     1.0  0.37033  0.30644  0.74280  1.0000
  C   C1916     1.0  0.36970  0.38068  0.73795  1.0000
  C   C1917     1.0  0.36889  0.37769  0.76313  1.0000
  H   H3284     1.0  0.31761  0.48744  0.87958  1.0000
  H   H3285     1.0  0.32438  0.48152  0.89258  1.0000
  H   H3286     1.0  0.36869  0.37650  0.77283  1.0000
  C   C1918     1.0  0.35993  0.36240  0.86219  1.0000
  C   C1919     1.0  0.35571  0.37451  0.85615  1.0000
  C   C1920     1.0  0.35605  0.37720  0.84337  1.0000
  C   C1921     1.0  0.36045  0.36773  0.83672  1.0000
  C   C1922     1.0  0.36447  0.35568  0.84285  1.0000
  C   C1923     1.0  0.36428  0.35305  0.85547  1.0000
  H   H3287     1.0  0.35213  0.38173  0.86133  1.0000
  H   H3288     1.0  0.35268  0.38648  0.83875  1.0000
  H   H3289     1.0  0.36775  0.34830  0.83782  1.0000
  H   H3290     1.0  0.36748  0.34368  0.86008  1.0000
  C   C1924     1.0  0.28896  0.41658  0.81243  1.0000
  C   C1925     1.0  0.28975  0.42641  0.81699  1.0000
  C   C1926     1.0  0.30106  0.42984  0.81481  1.0000
  C   C1927     1.0  0.31165  0.42334  0.80824  1.0000
  C   C1928     1.0  0.31089  0.41360  0.80347  1.0000
  C   C1929     1.0  0.29946  0.41029  0.80545  1.0000
  H   H3291     1.0  0.28163  0.43132  0.82231  1.0000
  H   H3292     1.0  0.30165  0.43737  0.81849  1.0000
  H   H3293     1.0  0.31905  0.40867  0.79824  1.0000
  H   H3294     1.0  0.29885  0.40264  0.80197  1.0000
  C   C1930     1.0  0.29402  0.38840  0.87966  1.0000
  C   C1931     1.0  0.28800  0.39794  0.88591  1.0000
  C   C1932     1.0  0.29395  0.40124  0.89341  1.0000
  C   C1933     1.0  0.30613  0.39539  0.89428  1.0000
  C   C1934     1.0  0.31220  0.38588  0.88799  1.0000
  C   C1935     1.0  0.30606  0.38224  0.88087  1.0000
  H   H3295     1.0  0.27866  0.40263  0.88515  1.0000
  H   H3296     1.0  0.28915  0.40846  0.89843  1.0000
  H   H3297     1.0  0.32155  0.38121  0.88874  1.0000
  H   H3298     1.0  0.31070  0.37471  0.87625  1.0000
  C   C1936     1.0  0.29821  0.46677  0.83766  1.0000
  C   C1937     1.0  0.29259  0.46800  0.84975  1.0000
  C   C1938     1.0  0.28359  0.46116  0.85667  1.0000
  C   C1939     1.0  0.28024  0.45288  0.85166  1.0000
  C   C1940     1.0  0.28593  0.45158  0.83960  1.0000
  C   C1941     1.0  0.29473  0.45863  0.83258  1.0000
  C   C1942     1.0  0.33425  0.48709  0.79489  1.0000
  H   H3299     1.0  0.27918  0.46227  0.86596  1.0000
  H   H3300     1.0  0.28337  0.44531  0.83561  1.0000
  H   H3301     1.0  0.29892  0.45771  0.82320  1.0000
  C   C1943     1.0  0.37371  0.45609  0.81599  1.0000
  C   C1944     1.0  0.36536  0.44823  0.81927  1.0000
  C   C1945     1.0  0.36866  0.43705  0.81517  1.0000
  C   C1946     1.0  0.38048  0.43352  0.80820  1.0000
  C   C1947     1.0  0.38893  0.44119  0.80534  1.0000
  C   C1948     1.0  0.38550  0.45250  0.80905  1.0000
  H   H3302     1.0  0.35632  0.45087  0.82476  1.0000
  H   H3303     1.0  0.36209  0.43115  0.81742  1.0000
  H   H3304     1.0  0.39811  0.43848  0.80003  1.0000
  H   H3305     1.0  0.39203  0.45850  0.80655  1.0000
  C   C1949     1.0  0.34495  0.44854  0.87912  1.0000
  C   C1950     1.0  0.34376  0.43973  0.89013  1.0000
  C   C1951     1.0  0.35158  0.42803  0.89091  1.0000
  C   C1952     1.0  0.36081  0.42523  0.88079  1.0000
  C   C1953     1.0  0.36232  0.43421  0.86993  1.0000
  C   C1954     1.0  0.35432  0.44583  0.86905  1.0000
  H   H3306     1.0  0.33656  0.44179  0.89795  1.0000
  H   H3307     1.0  0.35045  0.42119  0.89936  1.0000
  H   H3308     1.0  0.36948  0.43210  0.86210  1.0000
  H   H3309     1.0  0.35541  0.45265  0.86058  1.0000
  C   C1955     1.0  0.38259  0.37175  0.95552  1.0000
  C   C1956     1.0  0.37819  0.36084  0.95892  1.0000
  C   C1957     1.0  0.37082  0.35870  0.95199  1.0000
  C   C1958     1.0  0.36776  0.36746  0.94161  1.0000
  C   C1959     1.0  0.37255  0.37819  0.93788  1.0000
  C   C1960     1.0  0.37999  0.38030  0.94482  1.0000
  H   H3310     1.0  0.38043  0.35403  0.96692  1.0000
  H   H3311     1.0  0.36726  0.35033  0.95483  1.0000
  H   H3312     1.0  0.37023  0.38499  0.92988  1.0000
  H   H3313     1.0  0.38345  0.38873  0.94206  1.0000
  H   H3314     1.0  0.42506  0.37037  0.97491  1.0000
  H   H3315     1.0  0.42862  0.41729  0.97767  1.0000
  N   N138      1.0  0.41255  0.39425  0.98300  1.0000
  C   C1961     1.0  0.40159  0.38166  0.74471  1.0000
  H   H3316     1.0  0.25577  0.42087  0.79394  1.0000
  H   H3317     1.0  0.30439  0.48869  0.90656  1.0000
  H   H3318     1.0  0.32411  0.37507  0.95325  1.0000
  C   C1962     1.0  0.39855  0.39350  0.74983  1.0000
  C   C1963     1.0  0.41935  0.41493  0.98024  1.0000
  H   H3319     1.0  0.31079  0.37961  0.98439  1.0000
  H   H3320     1.0  0.35407  0.32761  0.73757  1.0000
  C   C1964     1.0  0.39143  0.40880  0.98121  1.0000
  H   H3321     1.0  0.32977  0.37421  0.81121  1.0000
  H   H3322     1.0  0.39276  0.37840  0.74731  1.0000
  H   H3323     1.0  0.40789  0.37461  0.75019  1.0000
  H   H3324     1.0  0.33594  0.48849  0.78478  1.0000
  H   H3325     1.0  0.24792  0.41523  0.82507  1.0000
  H   H3326     1.0  0.25049  0.39122  0.83088  1.0000
  H   H3327     1.0  0.31693  0.48307  0.78606  1.0000
  H   H3328     1.0  0.40291  0.35804  0.74486  1.0000
  H   H3329     1.0  0.32665  0.38947  0.98060  1.0000
  H   H3330     1.0  0.36574  0.40017  0.73755  1.0000
  H   H3331     1.0  0.39547  0.39112  0.76000  1.0000
  H   H3332     1.0  0.43001  0.39895  0.97284  1.0000
  H   H3333     1.0  0.36977  0.33189  0.75360  1.0000
  H   H3334     1.0  0.41837  0.35664  0.73530  1.0000
  H   H3335     1.0  0.40652  0.39788  0.74793  1.0000
  H   H3336     1.0  0.34358  0.48776  0.89103  1.0000
  C   C1965     1.0  0.30361  0.38941  0.83608  1.0000
  C   C1966     1.0  0.35650  0.46367  0.78022  1.0000
  C   C1967     1.0  0.31940  0.40543  0.83819  1.0000
  H   H3337     1.0  0.33915  0.43860  0.82087  1.0000
  N   N139      1.0  0.31461  0.43158  0.87122  1.0000
  C   C1968     1.0  0.31590  0.43490  0.88263  1.0000
  C   C1969     1.0  0.32397  0.41989  0.86954  1.0000
  C   C1970     1.0  0.30172  0.42936  0.87361  1.0000
  C   C1971     1.0  0.31665  0.44216  0.86045  1.0000
  C   C1972     1.0  0.30651  0.44621  0.88660  1.0000
  C   C1973     1.0  0.33749  0.42069  0.86816  1.0000
  C   C1974     1.0  0.29880  0.42341  0.86446  1.0000
  C   C1975     1.0  0.32105  0.43904  0.84752  1.0000
  H   H3338     1.0  0.31529  0.42695  0.89064  1.0000
  H   H3339     1.0  0.32512  0.43696  0.88136  1.0000
  H   H3340     1.0  0.32357  0.41668  0.86142  1.0000
  H   H3341     1.0  0.32189  0.41221  0.87746  1.0000
  H   H3342     1.0  0.29953  0.42339  0.88286  1.0000
  H   H3343     1.0  0.29473  0.43813  0.87385  1.0000
  H   H3344     1.0  0.30817  0.44947  0.86038  1.0000
  H   H3345     1.0  0.32377  0.44659  0.86150  1.0000
  H   H3346     1.0  0.30922  0.44841  0.89425  1.0000
  H   H3347     1.0  0.30640  0.45451  0.87906  1.0000
  C   C1976     1.0  0.30481  0.48798  0.89703  1.0000
  H   H3348     1.0  0.34377  0.41321  0.86374  1.0000
  H   H3349     1.0  0.33975  0.42952  0.86250  1.0000
  H   H3350     1.0  0.33957  0.41937  0.87737  1.0000
  H   H3351     1.0  0.28918  0.42198  0.86785  1.0000
  H   H3352     1.0  0.30468  0.41416  0.86389  1.0000
  H   H3353     1.0  0.29896  0.42958  0.85528  1.0000
  H   H3354     1.0  0.31769  0.44723  0.84074  1.0000
  H   H3355     1.0  0.31771  0.43136  0.84632  1.0000
  H   H3356     1.0  0.33126  0.43742  0.84472  1.0000
  C   C1977     1.0  0.34802  0.38275  0.96852  1.0000
  H   H3357     1.0  0.30863  0.37250  0.85589  1.0000
  C   C1978     1.0  0.31747  0.48932  0.88863  1.0000
  C   C1979     1.0  0.35524  0.38698  0.97570  1.0000
  Fe  Fe287     1.0  0.32346  0.47952  0.83684  1.0000
  H   H3358     1.0  0.31963  0.36697  0.82388  1.0000
  C   C1980     1.0  0.32222  0.46437  0.79727  1.0000
  C   C1981     1.0  0.39099  0.39487  0.83339  1.0000
  C   C1982     1.0  0.36314  0.32878  0.73835  1.0000
  H   H3359     1.0  0.37357  0.28682  0.74329  1.0000
  H   H3360     1.0  0.31280  0.39239  0.85430  1.0000
  H   H3361     1.0  0.35880  0.47080  0.78363  1.0000
  H   H3362     1.0  0.37098  0.41396  0.83161  1.0000
  C   C1983     1.0  0.38259  0.37979  0.86795  1.0000
  C   C1984     1.0  0.42010  0.40353  0.97508  1.0000
  H   H3363     1.0  0.24825  0.39740  0.80350  1.0000
  H   H3364     1.0  0.40079  0.38992  0.83185  1.0000
  H   H3365     1.0  0.32476  0.44779  0.81783  1.0000
  H   H3366     1.0  0.41082  0.40127  0.85473  1.0000
  H   H3367     1.0  0.36335  0.37971  0.97783  1.0000
  H   H3368     1.0  0.34375  0.36407  0.96090  1.0000
  H   H3369     1.0  0.29774  0.37294  0.83481  1.0000
  H   H3370     1.0  0.32064  0.45519  0.79723  1.0000
  H   H3371     1.0  0.34229  0.39129  0.96401  1.0000
  H   H3372     1.0  0.30338  0.38256  0.82002  1.0000
  H   H3373     1.0  0.41200  0.39206  0.84396  1.0000
  H   H3374     1.0  0.32988  0.36232  0.97136  1.0000
  C   C1985     1.0  0.31601  0.37141  0.84754  1.0000
  H   H3375     1.0  0.38812  0.40448  0.85989  1.0000
  H   H3376     1.0  0.25695  0.40433  0.80941  1.0000
  H   H3377     1.0  0.33520  0.45432  0.82231  1.0000
  N   N140      1.0  0.38589  0.39480  0.84689  1.0000
  H   H3378     1.0  0.38686  0.29173  0.74445  1.0000
  H   H3379     1.0  0.38446  0.38676  0.87189  1.0000
  C   C1986     1.0  0.42167  0.37880  0.96836  1.0000
  H   H3380     1.0  0.35780  0.32292  0.75859  1.0000
  S   S572      1.0  0.25289  0.42762  0.84366  1.0000
  H   H3381     1.0  0.33496  0.38450  0.95073  1.0000
  H   H3382     1.0  0.41722  0.40725  0.96604  1.0000
  H   H3383     1.0  0.32869  0.38831  0.84744  1.0000
  C   C1987     1.0  0.33577  0.36914  0.96681  1.0000
  H   H3384     1.0  0.38814  0.39057  0.81715  1.0000
  H   H3385     1.0  0.34099  0.45687  0.77925  1.0000
  H   H3386     1.0  0.29687  0.39070  0.84478  1.0000
  H   H3387     1.0  0.36064  0.30591  0.74332  1.0000
  H   H3388     1.0  0.32738  0.35520  0.85690  1.0000
  H   H3389     1.0  0.35896  0.39508  0.96981  1.0000
  H   H3390     1.0  0.31687  0.46652  0.80628  1.0000
  H   H3391     1.0  0.39070  0.40028  0.74641  1.0000
  C   C1988     1.0  0.41025  0.38707  0.97481  1.0000
  H   H3392     1.0  0.33222  0.47311  0.81105  1.0000
  H   H3393     1.0  0.42922  0.38378  0.96354  1.0000
  H   H3394     1.0  0.33618  0.36421  0.84431  1.0000
  C   C1989     1.0  0.32860  0.37936  0.95805  1.0000
  H   H3395     1.0  0.35487  0.37908  0.96086  1.0000
  N   N141      1.0  0.33580  0.46380  0.79602  1.0000
  H   H3396     1.0  0.31348  0.36479  0.84365  1.0000
  H   H3397     1.0  0.32363  0.40992  0.84300  1.0000
  H   H3398     1.0  0.30337  0.39874  0.83009  1.0000
  H   H3399     1.0  0.31892  0.47053  0.77838  1.0000
  H   H3400     1.0  0.40577  0.39334  0.96731  1.0000
  H   H3401     1.0  0.41319  0.42313  0.97583  1.0000
  H   H3402     1.0  0.34737  0.47176  0.80286  1.0000
  H   H3403     1.0  0.35089  0.45083  0.80326  1.0000
  H   H3404     1.0  0.38604  0.31718  0.74629  1.0000
  H   H3405     1.0  0.28864  0.38734  0.82913  1.0000
  H   H3406     1.0  0.37306  0.35817  0.76347  1.0000
  H   H3407     1.0  0.26010  0.38342  0.81921  1.0000
  C   C1990     1.0  0.24846  0.40056  0.81181  1.0000
  H   H3408     1.0  0.32376  0.39115  0.81966  1.0000
  C   C1991     1.0  0.37137  0.36733  0.75780  1.0000
  S   S573      1.0  0.32037  0.48829  0.85299  1.0000
  H   H3409     1.0  0.34940  0.38970  0.98429  1.0000
  C   C1992     1.0  0.31936  0.39200  0.84527  1.0000
  C   C1993     1.0  0.32584  0.38282  0.82695  1.0000
  C   C1994     1.0  0.24765  0.42678  0.79875  1.0000
  H   H3410     1.0  0.35642  0.35879  0.97594  1.0000
  H   H3411     1.0  0.36014  0.46523  0.77012  1.0000
  H   H3412     1.0  0.40620  0.38682  0.86027  1.0000
  H   H3413     1.0  0.36149  0.45439  0.78416  1.0000
  H   H3414     1.0  0.30991  0.41093  0.83800  1.0000
  H   H3415     1.0  0.34134  0.44393  0.79863  1.0000
  H   H3416     1.0  0.32133  0.38586  0.96298  1.0000
  C   C1995     1.0  0.36926  0.41414  0.84150  1.0000
  H   H3417     1.0  0.37433  0.39282  0.82847  1.0000
  C   C1996     1.0  0.29828  0.38244  0.82965  1.0000
  C   C1997     1.0  0.37197  0.36880  0.74516  1.0000
  H   H3418     1.0  0.38754  0.40348  0.97689  1.0000
  H   H3419     1.0  0.35928  0.41801  0.84435  1.0000
  C   C1998     1.0  0.39307  0.40172  0.85102  1.0000
  C   C1999     1.0  0.38705  0.38162  0.85387  1.0000
  H   H3420     1.0  0.37253  0.38000  0.87054  1.0000
  C   C2000     1.0  0.33458  0.44802  0.81679  1.0000
  C   C2001     1.0  0.34245  0.46446  0.78276  1.0000
  C   C2002     1.0  0.32808  0.36478  0.85202  1.0000
  C   C2003     1.0  0.37246  0.40106  0.84926  1.0000
  H   H3421     1.0  0.38580  0.37872  0.83055  1.0000
  H   H3422     1.0  0.25036  0.42935  0.80616  1.0000
  H   H3423     1.0  0.36660  0.39547  0.84782  1.0000
  H   H3424     1.0  0.33506  0.38276  0.82846  1.0000
  H   H3425     1.0  0.33587  0.36442  0.82378  1.0000
  H   H3426     1.0  0.32971  0.36925  0.85876  1.0000
  H   H3427     1.0  0.36911  0.40182  0.85910  1.0000
  C   C2004     1.0  0.40627  0.39493  0.85251  1.0000
  H   H3428     1.0  0.39660  0.37614  0.85169  1.0000
  H   H3429     1.0  0.29708  0.44429  0.89016  1.0000
  H   H3430     1.0  0.37437  0.42050  0.84281  1.0000
  H   H3431     1.0  0.39115  0.40442  0.82796  1.0000
  H   H3432     1.0  0.34551  0.48352  0.87665  1.0000
  H   H3433     1.0  0.38145  0.37679  0.85090  1.0000
  C   C2005     1.0  0.34114  0.45143  0.80319  1.0000
  H   H3434     1.0  0.29507  0.47434  0.85373  1.0000
  C   C2006     1.0  0.32764  0.37139  0.82142  1.0000
  H   H3435     1.0  0.39393  0.41063  0.84441  1.0000
  H   H3436     1.0  0.33866  0.47302  0.77665  1.0000
  H   H3437     1.0  0.38755  0.37074  0.87244  1.0000
  C   C2007     1.0  0.38431  0.38886  0.82723  1.0000
  N   N142      1.0  0.31631  0.38369  0.83872  1.0000
  S   S574      1.0  0.35083  0.48381  0.84864  1.0000
  C   C2008     1.0  0.36130  0.33059  0.75161  1.0000
  H   H3438     1.0  0.40363  0.38108  0.98012  1.0000
  H   H3439     1.0  0.41895  0.37558  0.96132  1.0000
  C   C2009     1.0  0.37887  0.29431  0.73986  1.0000
  C   C2010     1.0  0.38526  0.32038  0.73646  1.0000
  S   S575      1.0  0.37628  0.35572  0.73843  1.0000
  H   H3440     1.0  0.39607  0.41555  0.97397  1.0000
  H   H3441     1.0  0.42687  0.39087  0.73924  1.0000
  C   C2011     1.0  0.34838  0.36272  0.98258  1.0000
  C   C2012     1.0  0.25073  0.38895  0.82203  1.0000
  C   C2013     1.0  0.40838  0.35901  0.73528  1.0000
  S   S576      1.0  0.33963  0.95988  0.09547  1.0000
  S   S577      1.0  0.30647  0.96842  0.11489  1.0000
  C   C2014     1.0  0.33672  0.86509  0.11869  1.0000
  Fe  Fe288     1.0  0.34240  0.97579  0.07980  1.0000
  S   S578      1.0  0.34401  0.97379  0.06044  1.0000
  Fe  Fe289     1.0  0.35251  0.96634  0.10285  1.0000
  S   S579      1.0  0.36705  0.95173  0.11093  1.0000
  S   S580      1.0  0.26447  0.89102  0.11559  1.0000
  Fe  Fe290     1.0  0.27678  0.92115  0.09941  1.0000
  S   S581      1.0  0.28811  0.90461  0.10959  1.0000
  S   S582      1.0  0.28654  0.93689  0.08908  1.0000
  Fe  Fe291     1.0  0.28096  0.89368  0.10056  1.0000
  S   S583      1.0  0.29413  0.87757  0.09382  1.0000
  Fe  Fe292     1.0  0.27070  0.90354  0.12370  1.0000
  S   S584      1.0  0.27059  0.89908  0.14397  1.0000
  S   S585      1.0  0.27107  0.91021  0.08893  1.0000
  Fe  Fe293     1.0  0.34276  0.89636  0.04446  1.0000
  S   S586      1.0  0.35357  0.87692  0.04625  1.0000
  S   S587      1.0  0.32312  0.90115  0.04244  1.0000
  Fe  Fe294     1.0  0.36408  0.90689  0.04494  1.0000
  S   S588      1.0  0.37691  0.88828  0.04638  1.0000
  S   S589      1.0  0.37157  0.92368  0.04335  1.0000
  Fe  Fe295     1.0  0.36832  0.88522  0.03211  1.0000
  S   S590      1.0  0.37836  0.87858  0.01439  1.0000
  Fe  Fe296     1.0  0.36090  0.88181  0.06040  1.0000
  S   S591      1.0  0.36280  0.86880  0.07873  1.0000
  S   S592      1.0  0.35693  0.90449  0.02949  1.0000
  S   S593      1.0  0.34868  0.90061  0.05976  1.0000
  Fe  Fe297     1.0  0.35950  0.87853  0.16946  1.0000
  S   S594      1.0  0.33959  0.88782  0.17445  1.0000
  S   S595      1.0  0.37047  0.86861  0.18446  1.0000
  Fe  Fe298     1.0  0.35959  0.88637  0.14158  1.0000
  S   S596      1.0  0.33985  0.89637  0.14458  1.0000
  S   S597      1.0  0.37053  0.88898  0.12195  1.0000
  Fe  Fe299     1.0  0.34470  0.90317  0.15891  1.0000
  S   S598      1.0  0.33921  0.92302  0.16021  1.0000
  Fe  Fe300     1.0  0.33658  0.88007  0.15966  1.0000
  S   S599      1.0  0.32005  0.87164  0.16275  1.0000
  S   S600      1.0  0.36476  0.89451  0.15484  1.0000
  S   S601      1.0  0.35614  0.86930  0.15580  1.0000
  S   S602      1.0  0.39420  0.89385  0.21348  1.0000
  C   C2015     1.0  0.37742  0.87579  0.19204  1.0000
  C   C2016     1.0  0.37659  0.88856  0.18930  1.0000
  C   C2017     1.0  0.38176  0.89392  0.19597  1.0000
  C   C2018     1.0  0.38769  0.88663  0.20552  1.0000
  C   C2019     1.0  0.38857  0.87388  0.20822  1.0000
  C   C2020     1.0  0.38351  0.86850  0.20148  1.0000
  H   H3442     1.0  0.37182  0.89429  0.18217  1.0000
  H   H3443     1.0  0.38102  0.90379  0.19388  1.0000
  H   H3444     1.0  0.39329  0.86814  0.21539  1.0000
  H   H3445     1.0  0.38426  0.85862  0.20363  1.0000
  C   C2021     1.0  0.37193  0.86984  0.00810  1.0000
  C   C2022     1.0  0.37258  0.87244  0.99533  1.0000
  H   H3446     1.0  0.38869  0.84850  0.99829  1.0000
  C   C2023     1.0  0.36350  0.85492  0.99731  1.0000
  C   C2024     1.0  0.36283  0.85234  0.01008  1.0000
  C   C2025     1.0  0.36695  0.85979  0.01547  1.0000
  H   H3447     1.0  0.34249  0.88119  0.99118  1.0000
  H   H3448     1.0  0.33510  0.90262  0.01621  1.0000
  H   H3449     1.0  0.35919  0.84446  0.01583  1.0000
  H   H3450     1.0  0.36657  0.85759  0.02529  1.0000
  C   C2026     1.0  0.36423  0.87451  0.09104  1.0000
  C   C2027     1.0  0.36012  0.88700  0.09155  1.0000
  C   C2028     1.0  0.36123  0.89120  0.10158  1.0000
  C   C2029     1.0  0.36670  0.88307  0.11102  1.0000
  C   C2030     1.0  0.37063  0.87056  0.11061  1.0000
  C   C2031     1.0  0.36926  0.86629  0.10074  1.0000
  H   H3451     1.0  0.35605  0.89339  0.08424  1.0000
  H   H3452     1.0  0.35802  0.90080  0.10196  1.0000
  H   H3453     1.0  0.37506  0.86423  0.11774  1.0000
  H   H3454     1.0  0.37242  0.85661  0.10045  1.0000
  C   C2032     1.0  0.28467  0.89163  0.14863  1.0000
  C   C2033     1.0  0.29612  0.89363  0.14129  1.0000
  C   C2034     1.0  0.30706  0.88810  0.14574  1.0000
  C   C2035     1.0  0.30662  0.88000  0.15727  1.0000
  C   C2036     1.0  0.29520  0.87783  0.16441  1.0000
  C   C2037     1.0  0.28428  0.88383  0.16025  1.0000
  H   H3455     1.0  0.29651  0.89970  0.13234  1.0000
  H   H3456     1.0  0.31583  0.88984  0.14016  1.0000
  H   H3457     1.0  0.29478  0.87155  0.17328  1.0000
  H   H3458     1.0  0.27550  0.88224  0.16600  1.0000
  C   C2038     1.0  0.30195  0.88326  0.07905  1.0000
  C   C2039     1.0  0.31479  0.87991  0.07605  1.0000
  C   C2040     1.0  0.32125  0.88542  0.06476  1.0000
  C   C2041     1.0  0.31487  0.89398  0.05628  1.0000
  C   C2042     1.0  0.30199  0.89703  0.05905  1.0000
  C   C2043     1.0  0.29552  0.89173  0.07051  1.0000
  H   H3459     1.0  0.31982  0.87337  0.08255  1.0000
  H   H3460     1.0  0.33119  0.88307  0.06276  1.0000
  H   H3461     1.0  0.29702  0.90366  0.05250  1.0000
  H   H3462     1.0  0.28557  0.89413  0.07272  1.0000
  C   C2044     1.0  0.30087  0.95959  0.10783  1.0000
  C   C2045     1.0  0.29055  0.95438  0.11409  1.0000
  C   C2046     1.0  0.28632  0.94698  0.10869  1.0000
  C   C2047     1.0  0.29209  0.94516  0.09679  1.0000
  C   C2048     1.0  0.30219  0.95063  0.09050  1.0000
  C   C2049     1.0  0.30668  0.95765  0.09602  1.0000
  H   H3463     1.0  0.28576  0.95611  0.12309  1.0000
  H   H3464     1.0  0.27835  0.94302  0.11355  1.0000
  H   H3465     1.0  0.30659  0.94949  0.08129  1.0000
  H   H3466     1.0  0.31448  0.96177  0.09099  1.0000
  C   C2050     1.0  0.34644  0.93126  0.14637  1.0000
  C   C2051     1.0  0.34597  0.94384  0.14486  1.0000
  C   C2052     1.0  0.35218  0.95023  0.13385  1.0000
  C   C2053     1.0  0.35904  0.94396  0.12452  1.0000
  C   C2054     1.0  0.35943  0.93142  0.12603  1.0000
  C   C2055     1.0  0.35304  0.92512  0.13688  1.0000
  H   H3467     1.0  0.34087  0.94861  0.15219  1.0000
  H   H3468     1.0  0.35187  0.95996  0.13267  1.0000
  H   H3469     1.0  0.36458  0.92658  0.11881  1.0000
  H   H3470     1.0  0.35341  0.91545  0.13791  1.0000
  C   C2056     1.0  0.35156  0.95949  0.05646  1.0000
  C   C2057     1.0  0.34788  0.94843  0.06303  1.0000
  C   C2058     1.0  0.35359  0.93733  0.05893  1.0000
  C   C2059     1.0  0.36310  0.93729  0.04839  1.0000
  C   C2060     1.0  0.36674  0.94833  0.04198  1.0000
  C   C2061     1.0  0.36086  0.95938  0.04585  1.0000
  H   H3471     1.0  0.34056  0.94851  0.07116  1.0000
  H   H3472     1.0  0.35088  0.92879  0.06407  1.0000
  H   H3473     1.0  0.37412  0.94838  0.03389  1.0000
  H   H3474     1.0  0.36362  0.96789  0.04064  1.0000
  N   N143      1.0  0.31722  0.93752  0.05036  1.0000
  C   C2062     1.0  0.31074  0.92840  0.06027  1.0000
  C   C2063     1.0  0.30945  0.94266  0.04070  1.0000
  C   C2064     1.0  0.31748  0.94775  0.05618  1.0000
  C   C2065     1.0  0.33012  0.93099  0.04545  1.0000
  C   C2066     1.0  0.31656  0.92243  0.07168  1.0000
  C   C2067     1.0  0.30788  0.93322  0.03413  1.0000
  H   H3475     1.0  0.32307  0.89244  0.09241  1.0000
  C   C2068     1.0  0.33679  0.93684  0.03252  1.0000
  H   H3476     1.0  0.32915  0.92657  0.11879  1.0000
  H   H3477     1.0  0.31033  0.92055  0.05656  1.0000
  H   H3478     1.0  0.34775  0.87062  0.12825  1.0000
  H   H3479     1.0  0.39518  0.93555  0.13373  1.0000
  C   C2069     1.0  0.33813  0.87322  0.12680  1.0000
  H   H3480     1.0  0.32276  0.94414  0.06368  1.0000
  H   H3481     1.0  0.33617  0.92979  0.05197  1.0000
  H   H3482     1.0  0.33008  0.92147  0.04500  1.0000
  H   H3483     1.0  0.31522  0.92904  0.07764  1.0000
  H   H3484     1.0  0.31180  0.91492  0.07739  1.0000
  H   H3485     1.0  0.32647  0.91822  0.06922  1.0000
  H   H3486     1.0  0.30172  0.92710  0.04027  1.0000
  C   C2070     1.0  0.38013  0.94593  0.14494  1.0000
  H   H3487     1.0  0.31682  0.92754  0.03045  1.0000
  H   H3488     1.0  0.39950  0.85783  0.99192  1.0000
  H   H3489     1.0  0.39598  0.90283  0.14933  1.0000
  H   H3490     1.0  0.39303  0.90157  0.13029  1.0000
  H   H3491     1.0  0.34648  0.93652  0.03280  1.0000
  H   H3492     1.0  0.33279  0.94654  0.02890  1.0000
  H   H3493     1.0  0.33745  0.93124  0.02574  1.0000
  C   C2071     1.0  0.33409  0.87771  0.99203  1.0000
  H   H3494     1.0  0.33444  0.88093  0.21748  1.0000
  H   H3495     1.0  0.34545  0.88022  0.20336  1.0000
  H   H3496     1.0  0.33951  0.89952  0.22620  1.0000
  H   H3497     1.0  0.33333  0.95537  0.04422  1.0000
  H   H3498     1.0  0.30906  0.87706  0.02709  1.0000
  C   C2072     1.0  0.34292  0.88404  0.21185  1.0000
  H   H3499     1.0  0.42271  0.83707  0.98717  1.0000
  C   C2073     1.0  0.37655  0.91919  0.15758  1.0000
  H   H3500     1.0  0.31442  0.86903  0.13445  1.0000
  H   H3501     1.0  0.33501  0.84894  0.03325  1.0000
  C   C2074     1.0  0.32832  0.88690  0.09960  1.0000
  H   H3502     1.0  0.33648  0.88315  0.12242  1.0000
  H   H3503     1.0  0.37968  0.95379  0.13689  1.0000
  H   H3504     1.0  0.32225  0.86062  0.01830  1.0000
  H   H3505     1.0  0.32486  0.86165  0.03920  1.0000
  C   C2075     1.0  0.34795  0.89567  0.23009  1.0000
  H   H3506     1.0  0.30344  0.93821  0.02621  1.0000
  H   H3507     1.0  0.31708  0.88617  0.11803  1.0000
  H   H3508     1.0  0.33217  0.87169  0.13609  1.0000
  H   H3509     1.0  0.31068  0.88198  0.10767  1.0000
  H   H3510     1.0  0.29652  0.86077  0.13581  1.0000
  C   C2076     1.0  0.31527  0.86333  0.12774  1.0000
  S   S603      1.0  0.35825  0.84521  0.99102  1.0000
  C   C2077     1.0  0.37044  0.92579  0.16849  1.0000
  C   C2078     1.0  0.40112  0.91142  0.16653  1.0000
  H   H3511     1.0  0.32260  0.96532  0.05330  1.0000
  C   C2079     1.0  0.39038  0.82535  0.99638  1.0000
  H   H3512     1.0  0.33313  0.90094  0.00172  1.0000
  H   H3513     1.0  0.31878  0.88242  0.03330  1.0000
  H   H3514     1.0  0.32067  0.84234  0.11845  1.0000
  H   H3515     1.0  0.37646  0.88018  0.98957  1.0000
  S   S604      1.0  0.35670  0.98124  0.08633  1.0000
  C   C2080     1.0  0.32481  0.85993  0.10655  1.0000
  H   H3516     1.0  0.34104  0.89421  0.20870  1.0000
  H   H3517     1.0  0.39797  0.84493  0.01471  1.0000
  H   H3518     1.0  0.40464  0.91299  0.13813  1.0000
  H   H3519     1.0  0.33649  0.86756  0.99294  1.0000
  H   H3520     1.0  0.40582  0.92570  0.15084  1.0000
  Fe  Fe301     1.0  0.32481  0.97352  0.10460  1.0000
  C   C2081     1.0  0.32333  0.95846  0.04775  1.0000
  H   H3521     1.0  0.33604  0.88045  0.09510  1.0000
  H   H3522     1.0  0.33208  0.89351  0.10236  1.0000
  H   H3523     1.0  0.30095  0.93274  0.06369  1.0000
  H   H3524     1.0  0.40585  0.91362  0.17273  1.0000
  S   S605      1.0  0.32674  0.98930  0.08840  1.0000
  H   H3525     1.0  0.32838  0.84155  0.10300  1.0000
  H   H3526     1.0  0.31573  0.87751  0.00306  1.0000
  H   H3527     1.0  0.30001  0.94727  0.04486  1.0000
  H   H3528     1.0  0.36961  0.92096  0.15184  1.0000
  C   C2082     1.0  0.32791  0.84579  0.11081  1.0000
  H   H3529     1.0  0.36036  0.92883  0.16876  1.0000
  H   H3530     1.0  0.40778  0.90423  0.16196  1.0000
  H   H3531     1.0  0.33704  0.84248  0.11341  1.0000
  H   H3532     1.0  0.31603  0.86236  0.10323  1.0000
  H   H3533     1.0  0.37132  0.91923  0.17737  1.0000
  H   H3534     1.0  0.37883  0.91098  0.13623  1.0000
  H   H3535     1.0  0.31304  0.95003  0.03339  1.0000
  H   H3536     1.0  0.37377  0.93404  0.16824  1.0000
  H   H3537     1.0  0.35672  0.86932  0.21863  1.0000
  C   C2083     1.0  0.39721  0.92320  0.15707  1.0000
  H   H3538     1.0  0.37043  0.94584  0.14976  1.0000
  H   H3539     1.0  0.39337  0.93073  0.16220  1.0000
  H   H3540     1.0  0.39038  0.91782  0.12441  1.0000
  H   H3541     1.0  0.33197  0.86220  0.09818  1.0000
  C   C2084     1.0  0.32995  0.86459  0.01881  1.0000
  N   N144      1.0  0.35160  0.88187  0.23126  1.0000
  C   C2085     1.0  0.33835  0.89688  0.00912  1.0000
  C   C2086     1.0  0.30867  0.89633  0.02100  1.0000
  H   H3542     1.0  0.33953  0.85541  0.12357  1.0000
  N   N145      1.0  0.32408  0.86728  0.11593  1.0000
  N   N146      1.0  0.32693  0.87850  0.01513  1.0000
  H   H3543     1.0  0.33934  0.88192  0.02461  1.0000
  H   H3544     1.0  0.30150  0.85846  0.12038  1.0000
  H   H3545     1.0  0.31854  0.96344  0.04012  1.0000
  H   H3546     1.0  0.34665  0.87763  0.01056  1.0000
  H   H3547     1.0  0.30188  0.89881  0.02930  1.0000
  H   H3548     1.0  0.33809  0.86062  0.01232  1.0000
  C   C2087     1.0  0.33805  0.88322  0.01506  1.0000
  H   H3549     1.0  0.30791  0.95189  0.06050  1.0000
  H   H3550     1.0  0.38535  0.94797  0.15076  1.0000
  C   C2088     1.0  0.33283  0.85916  0.03179  1.0000
  H   H3551     1.0  0.39313  0.90756  0.17240  1.0000
  H   H3552     1.0  0.34805  0.89766  0.00470  1.0000
  H   H3553     1.0  0.34106  0.86185  0.03281  1.0000
  H   H3554     1.0  0.38820  0.82794  0.00547  1.0000
  C   C2089     1.0  0.30194  0.86419  0.12658  1.0000
  N   N147      1.0  0.38855  0.92224  0.14965  1.0000
  C   C2090     1.0  0.38633  0.93401  0.14016  1.0000
  C   C2091     1.0  0.31946  0.88070  0.11073  1.0000
  H   H3555     1.0  0.29723  0.87386  0.12350  1.0000
  H   H3556     1.0  0.34387  0.86622  0.11008  1.0000
  H   H3557     1.0  0.31885  0.85377  0.13244  1.0000
  H   H3558     1.0  0.37789  0.90916  0.16173  1.0000
  C   C2092     1.0  0.38884  0.91064  0.13292  1.0000
  N   N148      1.0  0.30545  0.92964  0.14501  1.0000
  C   C2093     1.0  0.31756  0.92466  0.13715  1.0000
  C   C2094     1.0  0.30568  0.92362  0.15831  1.0000
  C   C2095     1.0  0.30341  0.94337  0.14363  1.0000
  C   C2096     1.0  0.29520  0.92689  0.14091  1.0000
  C   C2097     1.0  0.31989  0.93102  0.12338  1.0000
  C   C2098     1.0  0.30505  0.90988  0.16208  1.0000
  C   C2099     1.0  0.31381  0.94806  0.14605  1.0000
  C   C2100     1.0  0.28198  0.93085  0.14819  1.0000
  H   H3559     1.0  0.32548  0.92496  0.14087  1.0000
  H   H3560     1.0  0.31835  0.91475  0.13739  1.0000
  H   H3561     1.0  0.29816  0.92857  0.16468  1.0000
  H   H3562     1.0  0.31426  0.92424  0.16068  1.0000
  H   H3563     1.0  0.30193  0.94819  0.13429  1.0000
  H   H3564     1.0  0.29477  0.94683  0.14995  1.0000
  H   H3565     1.0  0.29502  0.93158  0.13118  1.0000
  H   H3566     1.0  0.29682  0.91701  0.14064  1.0000
  H   H3567     1.0  0.31313  0.93001  0.11855  1.0000
  H   H3568     1.0  0.32002  0.94091  0.12193  1.0000
  H   H3569     1.0  0.29620  0.90829  0.16124  1.0000
  H   H3570     1.0  0.31290  0.90424  0.15674  1.0000
  H   H3571     1.0  0.30571  0.90644  0.17190  1.0000
  H   H3572     1.0  0.31119  0.95825  0.14480  1.0000
  H   H3573     1.0  0.32259  0.94599  0.13939  1.0000
  H   H3574     1.0  0.31533  0.94430  0.15557  1.0000
  H   H3575     1.0  0.27780  0.94042  0.14409  1.0000
  H   H3576     1.0  0.28149  0.93021  0.15805  1.0000
  H   H3577     1.0  0.27622  0.92451  0.14796  1.0000
  N   N149      1.0  0.37844  0.92368  0.08450  1.0000
  C   C2101     1.0  0.36625  0.93268  0.08672  1.0000
  C   C2102     1.0  0.38819  0.93125  0.07841  1.0000
  C   C2103     1.0  0.38088  0.91651  0.09694  1.0000
  C   C2104     1.0  0.37758  0.91530  0.07674  1.0000
  C   C2105     1.0  0.35472  0.92704  0.09287  1.0000
  C   C2106     1.0  0.38672  0.93963  0.06573  1.0000
  C   C2107     1.0  0.39246  0.90612  0.09704  1.0000
  C   C2108     1.0  0.38980  0.90888  0.06933  1.0000
  H   H3578     1.0  0.36661  0.93903  0.09241  1.0000
  H   H3579     1.0  0.36424  0.93871  0.07794  1.0000
  H   H3580     1.0  0.39759  0.92544  0.07716  1.0000
  H   H3581     1.0  0.38836  0.93734  0.08447  1.0000
  H   H3582     1.0  0.38151  0.92287  0.10250  1.0000
  H   H3583     1.0  0.37317  0.91193  0.10230  1.0000
  H   H3584     1.0  0.37263  0.90797  0.08252  1.0000
  H   H3585     1.0  0.37190  0.92057  0.06983  1.0000
  H   H3586     1.0  0.34635  0.93449  0.09249  1.0000
  H   H3587     1.0  0.35380  0.92031  0.08798  1.0000
  H   H3588     1.0  0.35446  0.92290  0.10276  1.0000
  H   H3589     1.0  0.39542  0.94289  0.06113  1.0000
  H   H3590     1.0  0.38477  0.93482  0.05950  1.0000
  H   H3591     1.0  0.37937  0.94801  0.06670  1.0000
  H   H3592     1.0  0.40107  0.90943  0.09227  1.0000
  H   H3593     1.0  0.39159  0.89850  0.09326  1.0000
  H   H3594     1.0  0.39329  0.90203  0.10676  1.0000
  H   H3595     1.0  0.38913  0.89932  0.06962  1.0000
  H   H3596     1.0  0.39820  0.90812  0.07267  1.0000
  H   H3597     1.0  0.39106  0.91344  0.05943  1.0000
  C   C2109     1.0  0.39504  0.91195  0.14282  1.0000
  S   S606      1.0  0.25949  0.92086  0.11420  1.0000
  C   C2110     1.0  0.32361  0.88170  0.00265  1.0000
  H   H3598     1.0  0.38024  0.93339  0.13436  1.0000
  H   H3599     1.0  0.31457  0.90321  0.01784  1.0000
  C   C2111     1.0  0.31595  0.88306  0.02457  1.0000
  H   H3600     1.0  0.30330  0.89711  0.01399  1.0000
  H   H3601     1.0  0.32020  0.89172  0.99964  1.0000
  C   C2112     1.0  0.40492  0.84301  0.00630  1.0000
  H   H3602     1.0  0.40836  0.83292  0.00809  1.0000
  C   C2113     1.0  0.36827  0.86510  0.98996  1.0000
  H   H3603     1.0  0.35536  0.90015  0.22354  1.0000
  H   H3604     1.0  0.36156  0.88357  0.21240  1.0000
  H   H3605     1.0  0.38281  0.83009  0.99142  1.0000
  H   H3606     1.0  0.37089  0.88210  0.22900  1.0000
  H   H3607     1.0  0.25109  0.86682  0.12567  1.0000
  C   C2114     1.0  0.35386  0.87937  0.21851  1.0000
  H   H3608     1.0  0.41014  0.82241  0.99403  1.0000
  H   H3609     1.0  0.39061  0.81531  0.99821  1.0000
  C   C2115     1.0  0.40299  0.82789  0.98868  1.0000
  Fe  Fe302     1.0  0.25472  0.90828  0.10462  1.0000
  H   H3610     1.0  0.41268  0.84758  0.00523  1.0000
  S   S607      1.0  0.33745  0.97855  0.11371  1.0000
  Fe  Fe303     1.0  0.39627  0.88801  0.23361  1.0000
  C   C2116     1.0  0.39875  0.84798  0.99504  1.0000
  H   H3611     1.0  0.37241  0.86054  0.22767  1.0000
  H   H3612     1.0  0.31208  0.98968  0.13389  1.0000
  C   C2117     1.0  0.45031  0.64816  0.37920  1.0000
  H   H3613     1.0  0.40300  0.90560  0.30575  1.0000
  Fe  Fe304     1.0  0.46595  0.88031  0.30284  1.0000
  S   S608      1.0  0.45149  0.87642  0.31987  1.0000
  S   S609      1.0  0.46044  0.88883  0.28425  1.0000
  Fe  Fe305     1.0  0.48668  0.87298  0.31773  1.0000
  S   S610      1.0  0.47369  0.86809  0.33563  1.0000
  Fe  Fe306     1.0  0.46549  0.85939  0.32522  1.0000
  S   S611      1.0  0.45889  0.84175  0.33434  1.0000
  Fe  Fe307     1.0  0.46099  0.88542  0.32865  1.0000
  S   S612      1.0  0.45032  0.89723  0.34221  1.0000
  S   S613      1.0  0.47959  0.86262  0.30766  1.0000
  S   S614      1.0  0.47433  0.89103  0.31125  1.0000
  N   N150      1.0  0.41414  0.90801  0.28709  1.0000
  S   S615      1.0  0.37921  0.89472  0.24688  1.0000
  Fe  Fe308     1.0  0.41100  0.87717  0.25451  1.0000
  S   S616      1.0  0.39467  0.88282  0.26907  1.0000
  S   S617      1.0  0.42803  0.86602  0.26197  1.0000
  Fe  Fe309     1.0  0.38390  0.87631  0.25926  1.0000
  S   S618      1.0  0.36885  0.86546  0.26735  1.0000
  Fe  Fe310     1.0  0.39164  0.90058  0.25532  1.0000
  S   S619      1.0  0.38782  0.91908  0.26028  1.0000
  H   H3614     1.0  0.45843  0.93529  0.33330  1.0000
  H   H3615     1.0  0.38747  0.65235  0.40913  1.0000
  Fe  Fe311     1.0  0.36343  0.94826  0.34114  1.0000
  S   S620      1.0  0.37312  0.94645  0.32182  1.0000
  S   S621      1.0  0.35098  0.96633  0.34478  1.0000
  Fe  Fe312     1.0  0.37236  0.92103  0.35161  1.0000
  S   S622      1.0  0.38310  0.91691  0.33338  1.0000
  S   S623      1.0  0.37053  0.90717  0.36953  1.0000
  Fe  Fe313     1.0  0.38880  0.93487  0.33063  1.0000
  S   S624      1.0  0.40786  0.93747  0.32089  1.0000
  Fe  Fe314     1.0  0.36656  0.92879  0.32615  1.0000
  S   S625      1.0  0.35811  0.92181  0.31445  1.0000
  S   S626      1.0  0.37967  0.93799  0.34966  1.0000
  S   S627      1.0  0.35532  0.93154  0.34470  1.0000
  Fe  Fe315     1.0  0.37805  0.84237  0.35508  1.0000
  S   S628      1.0  0.37910  0.85399  0.33609  1.0000
  S   S629      1.0  0.37555  0.85037  0.37169  1.0000
  Fe  Fe316     1.0  0.38120  0.81856  0.34635  1.0000
  S   S630      1.0  0.38257  0.82849  0.32659  1.0000
  S   S631      1.0  0.38399  0.79778  0.34988  1.0000
  Fe  Fe317     1.0  0.39463  0.83879  0.33065  1.0000
  S   S632      1.0  0.41046  0.84491  0.31633  1.0000
  Fe  Fe318     1.0  0.36695  0.84265  0.33400  1.0000
  S   S633      1.0  0.35076  0.85052  0.32489  1.0000
  S   S634      1.0  0.39466  0.82781  0.34985  1.0000
  S   S635      1.0  0.36453  0.83204  0.35351  1.0000
  Fe  Fe319     1.0  0.34444  0.74971  0.36923  1.0000
  S   S636      1.0  0.35803  0.73799  0.35684  1.0000
  S   S637      1.0  0.33927  0.77048  0.36367  1.0000
  Fe  Fe320     1.0  0.34205  0.72800  0.39086  1.0000
  S   S638      1.0  0.35570  0.71462  0.38034  1.0000
  S   S639      1.0  0.33286  0.72162  0.41056  1.0000
  Fe  Fe321     1.0  0.36662  0.72940  0.37323  1.0000
  S   S640      1.0  0.38689  0.72676  0.37204  1.0000
  Fe  Fe322     1.0  0.34575  0.72417  0.36496  1.0000
  S   S641      1.0  0.34354  0.71217  0.35318  1.0000
  S   S642      1.0  0.35390  0.74199  0.38518  1.0000
  S   S643      1.0  0.33120  0.73671  0.37594  1.0000
  Fe  Fe323     1.0  0.34405  0.64164  0.46431  1.0000
  S   S644      1.0  0.34112  0.63199  0.45091  1.0000
  Fe  Fe324     1.0  0.35720  0.65948  0.44405  1.0000
  S   S645      1.0  0.35591  0.65099  0.42914  1.0000
  S   S646      1.0  0.36691  0.67541  0.43751  1.0000
  Fe  Fe325     1.0  0.33647  0.65087  0.43932  1.0000
  S   S647      1.0  0.32214  0.65903  0.42764  1.0000
  Fe  Fe326     1.0  0.36076  0.63293  0.44185  1.0000
  S   S648      1.0  0.37366  0.61585  0.43659  1.0000
  S   S649      1.0  0.33735  0.66060  0.45359  1.0000
  S   S650      1.0  0.36407  0.64132  0.45594  1.0000
  Fe  Fe327     1.0  0.30593  0.63752  0.37968  1.0000
  S   S651      1.0  0.30755  0.62994  0.36306  1.0000
  S   S652      1.0  0.31085  0.62585  0.39744  1.0000
  Fe  Fe328     1.0  0.30250  0.66420  0.36569  1.0000
  S   S653      1.0  0.30392  0.65897  0.34778  1.0000
  S   S654      1.0  0.29971  0.68321  0.36969  1.0000
  Fe  Fe329     1.0  0.29164  0.64557  0.35888  1.0000
  S   S655      1.0  0.27588  0.64509  0.35020  1.0000
  Fe  Fe330     1.0  0.31951  0.64369  0.35328  1.0000
  S   S656      1.0  0.33837  0.63762  0.34199  1.0000
  S   S657      1.0  0.28902  0.65210  0.37649  1.0000
  S   S658      1.0  0.31901  0.64996  0.37015  1.0000
  Fe  Fe331     1.0  0.39434  0.65711  0.35262  1.0000
  S   S659      1.0  0.39436  0.65337  0.37274  1.0000
  S   S660      1.0  0.37581  0.66668  0.34800  1.0000
  Fe  Fe332     1.0  0.42206  0.64723  0.34569  1.0000
  S   S661      1.0  0.42405  0.64210  0.36532  1.0000
  S   S662      1.0  0.43943  0.64374  0.33118  1.0000
  Fe  Fe333     1.0  0.40650  0.63535  0.36945  1.0000
  S   S663      1.0  0.40424  0.61721  0.38215  1.0000
  Fe  Fe334     1.0  0.41178  0.66053  0.36668  1.0000
  S   S664      1.0  0.41735  0.67198  0.37650  1.0000
  S   S665      1.0  0.40551  0.63859  0.34959  1.0000
  S   S666      1.0  0.41073  0.66619  0.34679  1.0000
  S   S667      1.0  0.48111  0.67006  0.33251  1.0000
  C   C2118     1.0  0.45075  0.65195  0.33042  1.0000
  C   C2119     1.0  0.44814  0.66103  0.33732  1.0000
  C   C2120     1.0  0.45745  0.66687  0.33739  1.0000
  C   C2121     1.0  0.46949  0.66361  0.33067  1.0000
  C   C2122     1.0  0.47204  0.65484  0.32340  1.0000
  C   C2123     1.0  0.46266  0.64905  0.32325  1.0000
  H   H3616     1.0  0.43899  0.66341  0.34279  1.0000
  H   H3617     1.0  0.45538  0.67372  0.34294  1.0000
  H   H3618     1.0  0.48128  0.65232  0.31813  1.0000
  H   H3619     1.0  0.46471  0.64210  0.31781  1.0000
  C   C2124     1.0  0.34896  0.64559  0.34348  1.0000
  C   C2125     1.0  0.36156  0.64009  0.34233  1.0000
  C   C2126     1.0  0.36994  0.64637  0.34382  1.0000
  C   C2127     1.0  0.36576  0.65825  0.34626  1.0000
  C   C2128     1.0  0.35323  0.66377  0.34719  1.0000
  C   C2129     1.0  0.34483  0.65742  0.34600  1.0000
  H   H3620     1.0  0.36482  0.63096  0.34033  1.0000
  H   H3621     1.0  0.37964  0.64212  0.34285  1.0000
  H   H3622     1.0  0.34998  0.67300  0.34889  1.0000
  H   H3623     1.0  0.33518  0.66179  0.34676  1.0000
  C   C2130     1.0  0.38208  0.61670  0.42141  1.0000
  C   C2131     1.0  0.38974  0.60596  0.41802  1.0000
  C   C2132     1.0  0.39659  0.60629  0.40598  1.0000
  C   C2133     1.0  0.39596  0.61739  0.39728  1.0000
  C   C2134     1.0  0.38837  0.62818  0.40069  1.0000
  C   C2135     1.0  0.38132  0.62780  0.41271  1.0000
  H   H3624     1.0  0.39033  0.59735  0.42472  1.0000
  H   H3625     1.0  0.40240  0.59790  0.40339  1.0000
  H   H3626     1.0  0.38770  0.63674  0.39404  1.0000
  H   H3627     1.0  0.37530  0.63606  0.41523  1.0000
  C   C2136     1.0  0.31914  0.64953  0.41947  1.0000
  C   C2137     1.0  0.32330  0.63672  0.42203  1.0000
  C   C2138     1.0  0.32050  0.62944  0.41543  1.0000
  C   C2139     1.0  0.31390  0.63496  0.40600  1.0000
  C   C2140     1.0  0.30990  0.64777  0.40337  1.0000
  C   C2141     1.0  0.31240  0.65500  0.41018  1.0000
  H   H3628     1.0  0.32841  0.63242  0.42928  1.0000
  H   H3629     1.0  0.32338  0.61952  0.41765  1.0000
  H   H3630     1.0  0.30469  0.65211  0.39622  1.0000
  H   H3631     1.0  0.30913  0.66488  0.40817  1.0000
  C   C2142     1.0  0.34262  0.70962  0.41867  1.0000
  C   C2143     1.0  0.35539  0.70710  0.41419  1.0000
  C   C2144     1.0  0.36289  0.69679  0.42022  1.0000
  C   C2145     1.0  0.35760  0.68878  0.43052  1.0000
  C   C2146     1.0  0.34487  0.69144  0.43510  1.0000
  C   C2147     1.0  0.33744  0.70196  0.42932  1.0000
  H   H3632     1.0  0.35948  0.71307  0.40606  1.0000
  H   H3633     1.0  0.37274  0.69491  0.41673  1.0000
  H   H3634     1.0  0.34076  0.68553  0.44324  1.0000
  H   H3635     1.0  0.32764  0.70405  0.43301  1.0000
  C   C2148     1.0  0.39494  0.71138  0.37343  1.0000
  C   C2149     1.0  0.39042  0.70242  0.37066  1.0000
  C   C2150     1.0  0.39733  0.69027  0.37149  1.0000
  C   C2151     1.0  0.40859  0.68706  0.37530  1.0000
  C   C2152     1.0  0.41296  0.69597  0.37826  1.0000
  C   C2153     1.0  0.40623  0.70813  0.37716  1.0000
  H   H3636     1.0  0.38179  0.70494  0.36759  1.0000
  H   H3637     1.0  0.39405  0.68338  0.36914  1.0000
  H   H3638     1.0  0.42169  0.69352  0.38115  1.0000
  H   H3639     1.0  0.40981  0.71503  0.37920  1.0000
  C   C2154     1.0  0.33106  0.70454  0.35753  1.0000
  C   C2155     1.0  0.32120  0.70711  0.36723  1.0000
  C   C2156     1.0  0.31150  0.70072  0.37062  1.0000
  C   C2157     1.0  0.31174  0.69149  0.36457  1.0000
  C   C2158     1.0  0.32155  0.68899  0.35478  1.0000
  C   C2159     1.0  0.33109  0.69562  0.35118  1.0000
  H   H3640     1.0  0.32094  0.71422  0.37192  1.0000
  H   H3641     1.0  0.30374  0.70289  0.37792  1.0000
  H   H3642     1.0  0.32173  0.68203  0.34994  1.0000
  H   H3643     1.0  0.33858  0.69375  0.34351  1.0000
  C   C2160     1.0  0.37135  0.79051  0.35366  1.0000
  C   C2161     1.0  0.37346  0.77828  0.35235  1.0000
  C   C2162     1.0  0.36371  0.77201  0.35566  1.0000
  C   C2163     1.0  0.35171  0.77800  0.36009  1.0000
  C   C2164     1.0  0.34955  0.79026  0.36135  1.0000
  C   C2165     1.0  0.35936  0.79649  0.35821  1.0000
  H   H3644     1.0  0.38267  0.77366  0.34865  1.0000
  H   H3645     1.0  0.36546  0.76259  0.35461  1.0000
  H   H3646     1.0  0.34029  0.79488  0.36490  1.0000
  H   H3647     1.0  0.35768  0.80584  0.35945  1.0000
  C   C2166     1.0  0.37164  0.89158  0.36951  1.0000
  C   C2167     1.0  0.37109  0.88313  0.38077  1.0000
  C   C2168     1.0  0.37219  0.87059  0.38126  1.0000
  C   C2169     1.0  0.37386  0.86632  0.37050  1.0000
  C   C2170     1.0  0.37440  0.87474  0.35919  1.0000
  C   C2171     1.0  0.37327  0.88739  0.35867  1.0000
  H   H3648     1.0  0.36987  0.88627  0.38918  1.0000
  H   H3649     1.0  0.37180  0.86415  0.39004  1.0000
  H   H3650     1.0  0.37602  0.87141  0.35088  1.0000
  H   H3651     1.0  0.37375  0.89387  0.34993  1.0000
  C   C2172     1.0  0.36396  0.86187  0.28340  1.0000
  C   C2173     1.0  0.35281  0.85787  0.28828  1.0000
  C   C2174     1.0  0.34870  0.85464  0.30104  1.0000
  C   C2175     1.0  0.35591  0.85501  0.30897  1.0000
  C   C2176     1.0  0.36714  0.85888  0.30414  1.0000
  C   C2177     1.0  0.37105  0.86255  0.29134  1.0000
  H   H3652     1.0  0.34730  0.85736  0.28217  1.0000
  H   H3653     1.0  0.34001  0.85168  0.30475  1.0000
  H   H3654     1.0  0.37275  0.85920  0.31024  1.0000
  H   H3655     1.0  0.37960  0.86574  0.28764  1.0000
  C   C2178     1.0  0.37929  0.91988  0.27524  1.0000
  C   C2179     1.0  0.37336  0.91040  0.28240  1.0000
  C   C2180     1.0  0.36680  0.91111  0.29442  1.0000
  C   C2181     1.0  0.36648  0.92110  0.29944  1.0000
  C   C2182     1.0  0.37251  0.93053  0.29233  1.0000
  C   C2183     1.0  0.37873  0.93002  0.28017  1.0000
  H   H3656     1.0  0.37364  0.90265  0.27859  1.0000
  H   H3657     1.0  0.36200  0.90389  0.29981  1.0000
  H   H3658     1.0  0.37214  0.93834  0.29612  1.0000
  H   H3659     1.0  0.38325  0.93741  0.27461  1.0000
  C   C2184     1.0  0.45170  0.88224  0.27799  1.0000
  C   C2185     1.0  0.44833  0.88827  0.26665  1.0000
  C   C2186     1.0  0.44083  0.88359  0.26177  1.0000
  C   C2187     1.0  0.43681  0.87269  0.26811  1.0000
  C   C2188     1.0  0.44044  0.86656  0.27928  1.0000
  C   C2189     1.0  0.44772  0.87136  0.28425  1.0000
  H   H3660     1.0  0.45154  0.89660  0.26162  1.0000
  H   H3661     1.0  0.43838  0.88828  0.25301  1.0000
  H   H3662     1.0  0.43760  0.85808  0.28417  1.0000
  H   H3663     1.0  0.45039  0.86657  0.29286  1.0000
  C   C2190     1.0  0.44566  0.84201  0.32924  1.0000
  C   C2191     1.0  0.43707  0.83493  0.33647  1.0000
  C   C2192     1.0  0.42614  0.83580  0.33265  1.0000
  C   C2193     1.0  0.42387  0.84368  0.32156  1.0000
  C   C2194     1.0  0.43252  0.85064  0.31433  1.0000
  C   C2195     1.0  0.44340  0.84977  0.31815  1.0000
  H   H3664     1.0  0.43882  0.82889  0.34506  1.0000
  H   H3665     1.0  0.41959  0.83027  0.33820  1.0000
  H   H3666     1.0  0.43077  0.85677  0.30580  1.0000
  H   H3667     1.0  0.45017  0.85498  0.31245  1.0000
  C   C2196     1.0  0.43850  0.90832  0.33627  1.0000
  C   C2197     1.0  0.42790  0.91303  0.34430  1.0000
  C   C2198     1.0  0.41822  0.92168  0.33960  1.0000
  C   C2199     1.0  0.41943  0.92603  0.32689  1.0000
  C   C2200     1.0  0.43014  0.92146  0.31888  1.0000
  C   C2201     1.0  0.43957  0.91242  0.32355  1.0000
  H   H3668     1.0  0.42715  0.90995  0.35414  1.0000
  H   H3669     1.0  0.41000  0.92529  0.34581  1.0000
  H   H3670     1.0  0.43112  0.92489  0.30904  1.0000
  H   H3671     1.0  0.44778  0.90882  0.31732  1.0000
  H   H3672     1.0  0.35513  0.82619  0.32403  1.0000
  H   H3673     1.0  0.35238  0.64827  0.38782  1.0000
  C   C2202     1.0  0.36169  0.97455  0.37225  1.0000
  C   C2203     1.0  0.36167  0.96912  0.36260  1.0000
  C   C2204     1.0  0.35181  0.97316  0.35649  1.0000
  H   H3674     1.0  0.42058  0.89800  0.31038  1.0000
  H   H3675     1.0  0.36928  0.97137  0.37703  1.0000
  H   H3676     1.0  0.36922  0.96179  0.35994  1.0000
  H   H3677     1.0  0.32546  0.80628  0.31911  1.0000
  H   H3678     1.0  0.34678  0.64354  0.40382  1.0000
  C   C2205     1.0  0.25675  0.61484  0.34872  1.0000
  H   H3679     1.0  0.45467  0.62661  0.35354  1.0000
  C   C2206     1.0  0.26036  0.63579  0.34208  1.0000
  C   C2207     1.0  0.26875  0.63315  0.34989  1.0000
  C   C2208     1.0  0.27120  0.62125  0.35705  1.0000
  C   C2209     1.0  0.26529  0.61215  0.35639  1.0000
  H   H3680     1.0  0.28713  0.69531  0.39846  1.0000
  H   H3681     1.0  0.25847  0.64492  0.33640  1.0000
  H   H3682     1.0  0.27758  0.61906  0.36314  1.0000
  H   H3683     1.0  0.26725  0.60297  0.36197  1.0000
  S   S668      1.0  0.40860  0.89541  0.24119  1.0000
  H   H3684     1.0  0.39084  0.68720  0.33509  1.0000
  H   H3685     1.0  0.39122  0.67091  0.39512  1.0000
  H   H3686     1.0  0.38412  0.63949  0.43155  1.0000
  H   H3687     1.0  0.36133  0.70627  0.32682  1.0000
  H   H3688     1.0  0.38094  0.65957  0.42185  1.0000
  H   H3689     1.0  0.43058  0.65840  0.40074  1.0000
  H   H3690     1.0  0.36450  0.68417  0.32567  1.0000
  C   C2210     1.0  0.42428  0.65455  0.40916  1.0000
  C   C2211     1.0  0.47299  0.62649  0.37538  1.0000
  C   C2212     1.0  0.35253  0.64965  0.39692  1.0000
  C   C2213     1.0  0.40323  0.64157  0.42236  1.0000
  H   H3691     1.0  0.37626  0.67459  0.40464  1.0000
  H   H3692     1.0  0.39348  0.63984  0.44187  1.0000
  S   S669      1.0  0.33761  0.63419  0.48462  1.0000
  H   H3693     1.0  0.37711  0.92888  0.38973  1.0000
  H   H3694     1.0  0.31157  0.71915  0.40148  1.0000
  H   H3695     1.0  0.30796  0.70928  0.39359  1.0000
  C   C2214     1.0  0.49066  0.91267  0.31407  1.0000
  H   H3696     1.0  0.30184  0.68827  0.40153  1.0000
  C   C2215     1.0  0.46478  0.62303  0.35211  1.0000
  H   H3697     1.0  0.35649  0.72539  0.32910  1.0000
  H   H3698     1.0  0.48593  0.93302  0.32184  1.0000
  C   C2216     1.0  0.40070  0.66134  0.42795  1.0000
  H   H3699     1.0  0.42776  0.64443  0.41112  1.0000
  H   H3700     1.0  0.39587  0.62655  0.43563  1.0000
  H   H3701     1.0  0.37290  0.69324  0.31277  1.0000
  H   H3702     1.0  0.42492  0.65857  0.41668  1.0000
  H   H3703     1.0  0.39799  0.70867  0.34129  1.0000
  H   H3704     1.0  0.38073  0.68237  0.32412  1.0000
  C   C2217     1.0  0.34171  0.82078  0.33962  1.0000
  H   H3705     1.0  0.36514  0.69546  0.33999  1.0000
  N   N151      1.0  0.40094  0.65536  0.41763  1.0000
  H   H3706     1.0  0.33378  0.96990  0.39980  1.0000
  H   H3707     1.0  0.30928  0.67759  0.44505  1.0000
  C   C2218     1.0  0.31031  0.68619  0.43803  1.0000
  H   H3708     1.0  0.28857  0.68349  0.41224  1.0000
  H   H3709     1.0  0.39136  0.68088  0.42561  1.0000
  H   H3710     1.0  0.29690  0.72020  0.41842  1.0000
  H   H3711     1.0  0.42206  0.89152  0.27971  1.0000
  H   H3712     1.0  0.40437  0.92064  0.27349  1.0000
  H   H3713     1.0  0.36980  0.72918  0.31759  1.0000
  H   H3714     1.0  0.36453  0.73589  0.33081  1.0000
  C   C2219     1.0  0.31322  0.69967  0.41136  1.0000
  C   C2220     1.0  0.40221  0.92498  0.29920  1.0000
  H   H3715     1.0  0.41083  0.92582  0.30122  1.0000
  C   C2221     1.0  0.42862  0.89751  0.30264  1.0000
  H   H3716     1.0  0.28168  0.70165  0.41984  1.0000
  C   C2222     1.0  0.42265  0.91452  0.26360  1.0000
  C   C2223     1.0  0.38783  0.69628  0.33782  1.0000
  C   C2224     1.0  0.29828  0.71157  0.42554  1.0000
  H   H3717     1.0  0.28787  0.70524  0.44431  1.0000
  C   C2225     1.0  0.40088  0.67521  0.42476  1.0000
  H   H3718     1.0  0.40433  0.69277  0.34515  1.0000
  C   C2226     1.0  0.42628  0.90661  0.29062  1.0000
  H   H3719     1.0  0.43585  0.90002  0.30576  1.0000
  H   H3720     1.0  0.39453  0.91232  0.29413  1.0000
  H   H3721     1.0  0.32032  0.70030  0.41602  1.0000
  N   N152      1.0  0.30078  0.70042  0.41997  1.0000
  H   H3722     1.0  0.39807  0.88963  0.29912  1.0000
  N   N153      1.0  0.30571  0.62561  0.32566  1.0000
  C   C2227     1.0  0.29384  0.63176  0.32121  1.0000
  C   C2228     1.0  0.31028  0.63539  0.32871  1.0000
  C   C2229     1.0  0.30266  0.61625  0.33734  1.0000
  C   C2230     1.0  0.31477  0.61952  0.31576  1.0000
  C   C2231     1.0  0.28665  0.62313  0.31905  1.0000
  C   C2232     1.0  0.31182  0.64685  0.31832  1.0000
  C   C2233     1.0  0.31355  0.60848  0.34329  1.0000
  C   C2234     1.0  0.32866  0.61814  0.31527  1.0000
  H   H3723     1.0  0.28739  0.63733  0.32776  1.0000
  H   H3724     1.0  0.29561  0.63844  0.31232  1.0000
  H   H3725     1.0  0.31923  0.63170  0.33169  1.0000
  H   H3726     1.0  0.30378  0.63880  0.33674  1.0000
  H   H3727     1.0  0.29580  0.62090  0.34442  1.0000
  H   H3728     1.0  0.29827  0.60938  0.33581  1.0000
  H   H3729     1.0  0.31319  0.61015  0.31654  1.0000
  H   H3730     1.0  0.31330  0.62465  0.30642  1.0000
  H   H3731     1.0  0.27942  0.62876  0.31388  1.0000
  H   H3732     1.0  0.29266  0.61635  0.31358  1.0000
  H   H3733     1.0  0.28169  0.61829  0.32788  1.0000
  H   H3734     1.0  0.31782  0.65193  0.32038  1.0000
  H   H3735     1.0  0.31607  0.64447  0.30920  1.0000
  H   H3736     1.0  0.30276  0.65327  0.31784  1.0000
  H   H3737     1.0  0.31938  0.61407  0.34472  1.0000
  H   H3738     1.0  0.31926  0.60151  0.33789  1.0000
  H   H3739     1.0  0.30982  0.60327  0.35254  1.0000
  H   H3740     1.0  0.33150  0.62716  0.31217  1.0000
  H   H3741     1.0  0.33414  0.61248  0.30843  1.0000
  H   H3742     1.0  0.33144  0.61351  0.32413  1.0000
  N   N154      1.0  0.41513  0.87674  0.34794  1.0000
  C   C2235     1.0  0.40739  0.88968  0.34700  1.0000
  C   C2236     1.0  0.41730  0.87337  0.33560  1.0000
  C   C2237     1.0  0.42733  0.87711  0.35034  1.0000
  C   C2238     1.0  0.40850  0.86818  0.35836  1.0000
  C   C2239     1.0  0.40400  0.89510  0.35869  1.0000
  C   C2240     1.0  0.40557  0.87385  0.33112  1.0000
  C   C2241     1.0  0.43682  0.86488  0.35172  1.0000
  C   C2242     1.0  0.41163  0.85437  0.35773  1.0000
  H   H3743     1.0  0.41204  0.89622  0.33932  1.0000
  H   H3744     1.0  0.39838  0.89015  0.34482  1.0000
  H   H3745     1.0  0.42307  0.86403  0.33539  1.0000
  H   H3746     1.0  0.42273  0.87956  0.32833  1.0000
  H   H3747     1.0  0.43183  0.88387  0.34283  1.0000
  H   H3748     1.0  0.42608  0.88031  0.35897  1.0000
  H   H3749     1.0  0.40994  0.86881  0.36737  1.0000
  H   H3750     1.0  0.39841  0.87115  0.35883  1.0000
  H   H3751     1.0  0.39768  0.90424  0.35697  1.0000
  H   H3752     1.0  0.39902  0.88929  0.36675  1.0000
  H   H3753     1.0  0.41209  0.89680  0.36102  1.0000
  H   H3754     1.0  0.39874  0.86938  0.33843  1.0000
  H   H3755     1.0  0.40118  0.88348  0.32744  1.0000
  H   H3756     1.0  0.40815  0.86890  0.32343  1.0000
  H   H3757     1.0  0.43904  0.86063  0.34363  1.0000
  H   H3758     1.0  0.43381  0.85829  0.36026  1.0000
  H   H3759     1.0  0.44561  0.86672  0.35248  1.0000
  H   H3760     1.0  0.41059  0.84876  0.36726  1.0000
  H   H3761     1.0  0.42108  0.85095  0.35288  1.0000
  H   H3762     1.0  0.40480  0.85222  0.35373  1.0000
  H   H3763     1.0  0.32353  0.70856  0.39406  1.0000
  C   C2243     1.0  0.41301  0.89619  0.28443  1.0000
  H   H3764     1.0  0.29167  0.68846  0.43570  1.0000
  C   C2244     1.0  0.28690  0.71285  0.43617  1.0000
  H   H3765     1.0  0.43404  0.90338  0.28335  1.0000
  C   C2245     1.0  0.35314  0.81728  0.32968  1.0000
  H   H3766     1.0  0.33422  0.95511  0.40959  1.0000
  H   H3767     1.0  0.40529  0.67720  0.43135  1.0000
  H   H3768     1.0  0.42124  0.92247  0.25581  1.0000
  H   H3769     1.0  0.31660  0.69052  0.40880  1.0000
  C   C2246     1.0  0.39972  0.69988  0.33825  1.0000
  C   C2247     1.0  0.37418  0.71674  0.33503  1.0000
  H   H3770     1.0  0.28906  0.71090  0.40691  1.0000
  C   C2248     1.0  0.41112  0.65796  0.40663  1.0000
  H   H3771     1.0  0.36414  0.59783  0.36942  1.0000
  H   H3772     1.0  0.30881  0.69363  0.44306  1.0000
  C   C2249     1.0  0.29221  0.69155  0.40611  1.0000
  H   H3773     1.0  0.33097  0.87511  0.25840  1.0000
  H   H3774     1.0  0.33859  0.81269  0.34611  1.0000
  C   C2250     1.0  0.29069  0.70174  0.41325  1.0000
  H   H3775     1.0  0.41593  0.92640  0.27649  1.0000
  H   H3776     1.0  0.41318  0.88401  0.30294  1.0000
  C   C2251     1.0  0.33899  0.96018  0.40084  1.0000
  C   C2252     1.0  0.45491  0.64183  0.36809  1.0000
  H   H3777     1.0  0.30316  0.68059  0.42536  1.0000
  H   H3778     1.0  0.34598  0.93677  0.41365  1.0000
  H   H3779     1.0  0.36219  0.64669  0.39827  1.0000
  H   H3780     1.0  0.36978  0.82577  0.30769  1.0000
  N   N155      1.0  0.38800  0.76050  0.38584  1.0000
  C   C2253     1.0  0.39674  0.74820  0.38521  1.0000
  C   C2254     1.0  0.39223  0.76944  0.37424  1.0000
  C   C2255     1.0  0.37533  0.75893  0.38588  1.0000
  C   C2256     1.0  0.38812  0.76427  0.39744  1.0000
  C   C2257     1.0  0.39382  0.73728  0.39587  1.0000
  C   C2258     1.0  0.40530  0.77175  0.37244  1.0000
  C   C2259     1.0  0.36471  0.77025  0.38699  1.0000
  C   C2260     1.0  0.38389  0.77818  0.39771  1.0000
  H   H3781     1.0  0.39728  0.74541  0.37646  1.0000
  H   H3782     1.0  0.40629  0.74878  0.38510  1.0000
  H   H3783     1.0  0.38590  0.77856  0.37341  1.0000
  H   H3784     1.0  0.39210  0.76611  0.36601  1.0000
  H   H3785     1.0  0.37549  0.75583  0.37740  1.0000
  H   H3786     1.0  0.37233  0.75164  0.39376  1.0000
  H   H3787     1.0  0.38232  0.75922  0.40553  1.0000
  H   H3788     1.0  0.39764  0.76146  0.39928  1.0000
  H   H3789     1.0  0.39264  0.73933  0.40505  1.0000
  H   H3790     1.0  0.38562  0.73415  0.39538  1.0000
  H   H3791     1.0  0.40165  0.72926  0.39502  1.0000
  H   H3792     1.0  0.41250  0.76387  0.36960  1.0000
  H   H3793     1.0  0.40650  0.77990  0.36483  1.0000
  H   H3794     1.0  0.40693  0.77373  0.38073  1.0000
  H   H3795     1.0  0.36637  0.77843  0.37971  1.0000
  H   H3796     1.0  0.36262  0.77249  0.39622  1.0000
  H   H3797     1.0  0.35620  0.76804  0.38597  1.0000
  H   H3798     1.0  0.37805  0.77925  0.40689  1.0000
  H   H3799     1.0  0.37839  0.78384  0.39087  1.0000
  H   H3800     1.0  0.39194  0.78229  0.39675  1.0000
  N   N156      1.0  0.34618  0.94250  0.38859  1.0000
  C   C2261     1.0  0.34644  0.94082  0.37590  1.0000
  C   C2262     1.0  0.35933  0.94158  0.38936  1.0000
  C   C2263     1.0  0.33871  0.95524  0.38972  1.0000
  C   C2264     1.0  0.34024  0.93271  0.39803  1.0000
  C   C2265     1.0  0.33376  0.94352  0.37237  1.0000
  C   C2266     1.0  0.36838  0.92953  0.38691  1.0000
  H   H3801     1.0  0.35211  0.94681  0.36866  1.0000
  H   H3802     1.0  0.35096  0.93122  0.37478  1.0000
  H   H3803     1.0  0.36312  0.94928  0.38265  1.0000
  H   H3804     1.0  0.34171  0.96210  0.38139  1.0000
  H   H3805     1.0  0.32878  0.95584  0.39009  1.0000
  H   H3806     1.0  0.33003  0.93524  0.39909  1.0000
  H   H3807     1.0  0.34314  0.92386  0.39474  1.0000
  H   H3808     1.0  0.32977  0.95357  0.37053  1.0000
  H   H3809     1.0  0.33494  0.94049  0.36365  1.0000
  H   H3810     1.0  0.32715  0.93851  0.37943  1.0000
  H   H3811     1.0  0.36470  0.92120  0.39205  1.0000
  H   H3812     1.0  0.37084  0.92947  0.37694  1.0000
  H   H3813     1.0  0.49131  0.64356  0.34835  1.0000
  H   H3814     1.0  0.35366  0.59639  0.39715  1.0000
  C   C2267     1.0  0.40324  0.91216  0.29676  1.0000
  H   H3815     1.0  0.46600  0.94249  0.31854  1.0000
  C   C2268     1.0  0.40807  0.88650  0.29545  1.0000
  H   H3816     1.0  0.39469  0.92649  0.30731  1.0000
  H   H3817     1.0  0.38254  0.69439  0.34749  1.0000
  H   H3818     1.0  0.27823  0.71353  0.43326  1.0000
  H   H3819     1.0  0.34842  0.96054  0.40130  1.0000
  H   H3820     1.0  0.40907  0.87790  0.29223  1.0000
  H   H3821     1.0  0.45376  0.64240  0.38745  1.0000
  H   H3822     1.0  0.42076  0.90660  0.26109  1.0000
  N   N157      1.0  0.34902  0.67281  0.38684  1.0000
  C   C2269     1.0  0.34301  0.68526  0.38988  1.0000
  C   C2270     1.0  0.34314  0.67123  0.37721  1.0000
  C   C2271     1.0  0.36265  0.67180  0.38175  1.0000
  C   C2272     1.0  0.34720  0.66307  0.39840  1.0000
  C   C2273     1.0  0.34762  0.68855  0.39980  1.0000
  C   C2274     1.0  0.33013  0.66843  0.38191  1.0000
  C   C2275     1.0  0.36627  0.68247  0.37121  1.0000
  H   H3823     1.0  0.34386  0.69275  0.38149  1.0000
  H   H3824     1.0  0.33294  0.68599  0.39320  1.0000
  H   H3825     1.0  0.34894  0.66385  0.37234  1.0000
  H   H3826     1.0  0.34239  0.67968  0.36981  1.0000
  H   H3827     1.0  0.36767  0.67097  0.38908  1.0000
  H   H3828     1.0  0.36665  0.66317  0.37816  1.0000
  H   H3829     1.0  0.35177  0.66428  0.40527  1.0000
  H   H3830     1.0  0.33732  0.66403  0.40314  1.0000
  H   H3831     1.0  0.34483  0.68292  0.40910  1.0000
  H   H3832     1.0  0.35772  0.68796  0.39751  1.0000
  H   H3833     1.0  0.34315  0.69820  0.40042  1.0000
  H   H3834     1.0  0.32627  0.66922  0.37383  1.0000
  H   H3835     1.0  0.32364  0.67501  0.38732  1.0000
  H   H3836     1.0  0.36540  0.69080  0.37472  1.0000
  H   H3837     1.0  0.36084  0.68476  0.36393  1.0000
  H   H3838     1.0  0.37609  0.67972  0.36678  1.0000
  N   N158      1.0  0.36058  0.61291  0.38738  1.0000
  C   C2276     1.0  0.36382  0.61436  0.39879  1.0000
  C   C2277     1.0  0.37073  0.61651  0.37666  1.0000
  C   C2278     1.0  0.36063  0.59945  0.38892  1.0000
  C   C2279     1.0  0.34796  0.62076  0.38624  1.0000
  C   C2280     1.0  0.35526  0.61029  0.41121  1.0000
  C   C2281     1.0  0.37204  0.63005  0.37387  1.0000
  C   C2282     1.0  0.34476  0.62443  0.37331  1.0000
  H   H3839     1.0  0.37335  0.60916  0.39955  1.0000
  H   H3840     1.0  0.36382  0.62412  0.39831  1.0000
  H   H3841     1.0  0.36980  0.61479  0.36796  1.0000
  H   H3842     1.0  0.37986  0.61065  0.37820  1.0000
  H   H3843     1.0  0.34060  0.61615  0.39267  1.0000
  H   H3844     1.0  0.34670  0.62954  0.38922  1.0000
  H   H3845     1.0  0.35759  0.61347  0.41850  1.0000
  H   H3846     1.0  0.34542  0.61440  0.41112  1.0000
  H   H3847     1.0  0.35666  0.60011  0.41405  1.0000
  H   H3848     1.0  0.37523  0.63218  0.38121  1.0000
  H   H3849     1.0  0.37928  0.63164  0.36543  1.0000
  H   H3850     1.0  0.36343  0.63664  0.37209  1.0000
  H   H3851     1.0  0.33528  0.62311  0.37416  1.0000
  H   H3852     1.0  0.35086  0.61922  0.36641  1.0000
  H   H3853     1.0  0.34445  0.63440  0.36950  1.0000
  H   H3854     1.0  0.34412  0.82605  0.34518  1.0000
  C   C2283     1.0  0.38661  0.70808  0.31649  1.0000
  H   H3855     1.0  0.33405  0.82703  0.33543  1.0000
  C   C2284     1.0  0.39502  0.71758  0.31309  1.0000
  H   H3856     1.0  0.31996  0.68456  0.43275  1.0000
  H   H3857     1.0  0.39243  0.69938  0.31381  1.0000
  H   H3858     1.0  0.30639  0.71192  0.42895  1.0000
  C   C2285     1.0  0.30096  0.68872  0.42969  1.0000
  H   H3859     1.0  0.40640  0.67842  0.41560  1.0000
  H   H3860     1.0  0.40643  0.69998  0.32935  1.0000
  H   H3861     1.0  0.40434  0.71355  0.30823  1.0000
  H   H3862     1.0  0.39637  0.72062  0.32089  1.0000
  H   H3863     1.0  0.39141  0.72588  0.30650  1.0000
  N   N159      1.0  0.46860  0.63663  0.36515  1.0000
  C   C2286     1.0  0.47508  0.64710  0.36315  1.0000
  H   H3864     1.0  0.47793  0.93657  0.33620  1.0000
  C   C2287     1.0  0.47192  0.63219  0.35323  1.0000
  H   H3865     1.0  0.44006  0.64992  0.38154  1.0000
  H   H3866     1.0  0.47425  0.63057  0.38264  1.0000
  H   H3867     1.0  0.47038  0.60790  0.38448  1.0000
  H   H3868     1.0  0.47107  0.65532  0.35667  1.0000
  H   H3869     1.0  0.45202  0.64872  0.36002  1.0000
  C   C2288     1.0  0.38867  0.65926  0.41371  1.0000
  C   C2289     1.0  0.46453  0.61721  0.38215  1.0000
  H   H3870     1.0  0.48228  0.62111  0.37189  1.0000
  C   C2290     1.0  0.25442  0.62670  0.34146  1.0000
  C   C2291     1.0  0.47872  0.93032  0.32995  1.0000
  C   C2292     1.0  0.49341  0.91562  0.34172  1.0000
  H   H3871     1.0  0.44940  0.63475  0.36983  1.0000
  H   H3872     1.0  0.40963  0.66782  0.40205  1.0000
  H   H3873     1.0  0.40830  0.65639  0.43292  1.0000
  C   C2293     1.0  0.38627  0.67174  0.40464  1.0000
  C   C2294     1.0  0.39353  0.63679  0.43347  1.0000
  H   H3874     1.0  0.34572  0.87829  0.25668  1.0000
  N   N160      1.0  0.34264  0.88722  0.33327  1.0000
  C   C2295     1.0  0.34341  0.88431  0.34668  1.0000
  C   C2296     1.0  0.34003  0.90105  0.32903  1.0000
  C   C2297     1.0  0.35455  0.88185  0.32543  1.0000
  C   C2298     1.0  0.33257  0.88173  0.33202  1.0000
  C   C2299     1.0  0.34715  0.87057  0.35262  1.0000
  C   C2300     1.0  0.32674  0.90787  0.33345  1.0000
  C   C2301     1.0  0.36607  0.88618  0.32572  1.0000
  C   C2302     1.0  0.33009  0.88432  0.31889  1.0000
  H   H3875     1.0  0.34994  0.88917  0.34818  1.0000
  H   H3876     1.0  0.33436  0.88783  0.35238  1.0000
  H   H3877     1.0  0.34235  0.90386  0.31881  1.0000
  H   H3878     1.0  0.34612  0.90509  0.33228  1.0000
  H   H3879     1.0  0.35651  0.87164  0.32793  1.0000
  H   H3880     1.0  0.35385  0.88409  0.31558  1.0000
  H   H3881     1.0  0.33483  0.87153  0.33489  1.0000
  H   H3882     1.0  0.32373  0.88443  0.33849  1.0000
  H   H3883     1.0  0.34756  0.86977  0.36235  1.0000
  H   H3884     1.0  0.34039  0.86515  0.35278  1.0000
  H   H3885     1.0  0.35644  0.86632  0.34812  1.0000
  H   H3886     1.0  0.32637  0.91796  0.33051  1.0000
  H   H3887     1.0  0.32007  0.90583  0.32919  1.0000
  H   H3888     1.0  0.32380  0.90578  0.34361  1.0000
  H   H3889     1.0  0.36535  0.89616  0.32191  1.0000
  H   H3890     1.0  0.37425  0.88135  0.31988  1.0000
  H   H3891     1.0  0.36787  0.88403  0.33508  1.0000
  H   H3892     1.0  0.33552  0.87674  0.31412  1.0000
  H   H3893     1.0  0.33233  0.89308  0.31304  1.0000
  H   H3894     1.0  0.32013  0.88505  0.31944  1.0000
  H   H3895     1.0  0.39968  0.93246  0.29140  1.0000
  N   N161      1.0  0.42029  0.83002  0.28329  1.0000
  C   C2303     1.0  0.42822  0.83717  0.28601  1.0000
  C   C2304     1.0  0.41263  0.83866  0.27442  1.0000
  C   C2305     1.0  0.42807  0.81944  0.27750  1.0000
  C   C2306     1.0  0.41229  0.82492  0.29520  1.0000
  C   C2307     1.0  0.43757  0.82972  0.29415  1.0000
  C   C2308     1.0  0.40190  0.84826  0.27989  1.0000
  C   C2309     1.0  0.43793  0.82285  0.26590  1.0000
  C   C2310     1.0  0.40329  0.81749  0.29416  1.0000
  H   H3896     1.0  0.43350  0.84195  0.27733  1.0000
  H   H3897     1.0  0.42240  0.84469  0.29068  1.0000
  H   H3898     1.0  0.40870  0.83355  0.26990  1.0000
  H   H3899     1.0  0.41847  0.84398  0.26664  1.0000
  H   H3900     1.0  0.43280  0.81216  0.28425  1.0000
  H   H3901     1.0  0.42215  0.81478  0.27474  1.0000
  H   H3902     1.0  0.41805  0.81856  0.30162  1.0000
  H   H3903     1.0  0.40699  0.83223  0.30036  1.0000
  H   H3904     1.0  0.44324  0.83593  0.29481  1.0000
  H   H3905     1.0  0.43293  0.82624  0.30371  1.0000
  H   H3906     1.0  0.44408  0.82205  0.29025  1.0000
  H   H3907     1.0  0.39741  0.85438  0.27237  1.0000
  H   H3908     1.0  0.39467  0.84390  0.28672  1.0000
  H   H3909     1.0  0.40512  0.85420  0.28406  1.0000
  H   H3910     1.0  0.43382  0.82972  0.25852  1.0000
  H   H3911     1.0  0.44266  0.81445  0.26214  1.0000
  H   H3912     1.0  0.44515  0.82632  0.26799  1.0000
  H   H3913     1.0  0.40779  0.80760  0.29474  1.0000
  H   H3914     1.0  0.39968  0.82096  0.28559  1.0000
  H   H3915     1.0  0.39509  0.81834  0.30180  1.0000
  N   N162      1.0  0.35202  0.80926  0.32170  1.0000
  C   C2311     1.0  0.36387  0.80791  0.31211  1.0000
  C   C2312     1.0  0.35122  0.79659  0.32949  1.0000
  C   C2313     1.0  0.34134  0.81510  0.31528  1.0000
  C   C2314     1.0  0.36685  0.81991  0.30316  1.0000
  C   C2315     1.0  0.35049  0.78693  0.32271  1.0000
  C   C2316     1.0  0.32837  0.81301  0.32257  1.0000
  H   H3916     1.0  0.37193  0.80343  0.31659  1.0000
  H   H3917     1.0  0.36375  0.80176  0.30612  1.0000
  H   H3918     1.0  0.34329  0.79677  0.33740  1.0000
  H   H3919     1.0  0.35941  0.79270  0.33381  1.0000
  H   H3920     1.0  0.34071  0.82525  0.31227  1.0000
  H   H3921     1.0  0.34301  0.81162  0.30668  1.0000
  H   H3922     1.0  0.35910  0.82542  0.29870  1.0000
  H   H3923     1.0  0.37476  0.81746  0.29565  1.0000
  H   H3924     1.0  0.35962  0.78351  0.31713  1.0000
  H   H3925     1.0  0.34778  0.77882  0.32967  1.0000
  H   H3926     1.0  0.34356  0.79043  0.31681  1.0000
  H   H3927     1.0  0.32151  0.82177  0.32084  1.0000
  H   H3928     1.0  0.32734  0.81011  0.33265  1.0000
  C   C2317     1.0  0.34498  0.90054  0.24202  1.0000
  C   C2318     1.0  0.37217  0.68924  0.32275  1.0000
  H   H3929     1.0  0.43203  0.88793  0.30116  1.0000
  N   N163      1.0  0.37968  0.70536  0.32965  1.0000
  H   H3930     1.0  0.33040  0.65887  0.38733  1.0000
  H   H3931     1.0  0.41219  0.63809  0.42537  1.0000
  H   H3932     1.0  0.36976  0.59370  0.39055  1.0000
  C   C2319     1.0  0.34316  0.92950  0.41104  1.0000
  H   H3933     1.0  0.35029  0.92086  0.41217  1.0000
  H   H3934     1.0  0.36864  0.71426  0.34449  1.0000
  H   H3935     1.0  0.43245  0.91274  0.26423  1.0000
  H   H3936     1.0  0.45920  0.61951  0.39111  1.0000
  C   C2320     1.0  0.41379  0.91786  0.27545  1.0000
  H   H3937     1.0  0.37997  0.71156  0.31019  1.0000
  H   H3938     1.0  0.38128  0.72081  0.33647  1.0000
  H   H3939     1.0  0.36110  0.81291  0.33431  1.0000
  C   C2321     1.0  0.36914  0.69943  0.33025  1.0000
  H   H3940     1.0  0.36242  0.85764  0.24268  1.0000
  H   H3941     1.0  0.42805  0.91561  0.29082  1.0000
  H   H3942     1.0  0.46766  0.62152  0.34251  1.0000
  H   H3943     1.0  0.34798  0.59969  0.37734  1.0000
  H   H3944     1.0  0.40663  0.89822  0.27798  1.0000
  H   H3945     1.0  0.38885  0.67924  0.40710  1.0000
  H   H3946     1.0  0.33478  0.92746  0.41798  1.0000
  H   H3947     1.0  0.47727  0.89376  0.34958  1.0000
  C   C2322     1.0  0.31393  0.70978  0.39950  1.0000
  H   H3948     1.0  0.34415  0.86300  0.25720  1.0000
  C   C2323     1.0  0.35767  0.59565  0.37830  1.0000
  H   H3949     1.0  0.35855  0.58549  0.38052  1.0000
  H   H3950     1.0  0.36008  0.94266  0.39840  1.0000
  C   C2324     1.0  0.36584  0.72726  0.32757  1.0000
  H   H3951     1.0  0.39225  0.66036  0.43524  1.0000
  H   H3952     1.0  0.40388  0.63672  0.41489  1.0000
  H   H3953     1.0  0.41114  0.65306  0.39942  1.0000
  S   S670      1.0  0.40035  0.86911  0.24559  1.0000
  H   H3954     1.0  0.47373  0.65025  0.37186  1.0000
  H   H3955     1.0  0.48024  0.90006  0.36122  1.0000
  C   C2325     1.0  0.46639  0.93374  0.32555  1.0000
  H   H3956     1.0  0.48185  0.62770  0.35116  1.0000
  H   H3957     1.0  0.46516  0.92657  0.32138  1.0000
  H   H3958     1.0  0.28599  0.72152  0.43922  1.0000
  H   H3959     1.0  0.46335  0.91502  0.34341  1.0000
  H   H3960     1.0  0.45285  0.65731  0.37690  1.0000
  H   H3961     1.0  0.48387  0.91953  0.30911  1.0000
  C   C2326     1.0  0.34079  0.87296  0.25362  1.0000
  C   C2327     1.0  0.48485  0.90824  0.32776  1.0000
  H   H3962     1.0  0.46715  0.61388  0.35812  1.0000
  S   S671      1.0  0.24948  0.60307  0.34831  1.0000
  H   H3963     1.0  0.49578  0.90620  0.34727  1.0000
  H   H3964     1.0  0.45813  0.61625  0.37694  1.0000
  H   H3965     1.0  0.49544  0.87670  0.34162  1.0000
  H   H3966     1.0  0.47059  0.64018  0.34551  1.0000
  H   H3967     1.0  0.35267  0.89751  0.24699  1.0000
  H   H3968     1.0  0.46933  0.92088  0.35297  1.0000
  H   H3969     1.0  0.35425  0.65010  0.48290  1.0000
  N   N164      1.0  0.48236  0.91705  0.33626  1.0000
  H   H3970     1.0  0.46495  0.89944  0.36109  1.0000
  H   H3971     1.0  0.47621  0.90551  0.32778  1.0000
  C   C2328     1.0  0.47391  0.90108  0.35504  1.0000
  C   C2329     1.0  0.47182  0.91414  0.34684  1.0000
  H   H3972     1.0  0.49130  0.92193  0.34823  1.0000
  C   C2330     1.0  0.35197  0.98414  0.37568  1.0000
  C   C2331     1.0  0.34217  0.98280  0.35987  1.0000
  H   H3973     1.0  0.38099  0.98521  0.31782  1.0000
  C   C2332     1.0  0.48915  0.64437  0.35812  1.0000
  H   H3974     1.0  0.38648  0.98450  0.33111  1.0000
  C   C2333     1.0  0.34220  0.98822  0.36947  1.0000
  H   H3975     1.0  0.49098  0.89950  0.33115  1.0000
  H   H3976     1.0  0.24811  0.62883  0.33530  1.0000
  H   H3977     1.0  0.49400  0.63601  0.36369  1.0000
  C   C2334     1.0  0.34151  0.87554  0.23954  1.0000
  H   H3978     1.0  0.33639  0.89811  0.24820  1.0000
  H   H3979     1.0  0.49372  0.90466  0.30949  1.0000
  H   H3980     1.0  0.37723  0.86085  0.24102  1.0000
  H   H3981     1.0  0.36320  0.87940  0.24436  1.0000
  H   H3982     1.0  0.33450  0.98595  0.35521  1.0000
  H   H3983     1.0  0.34330  0.91077  0.23961  1.0000
  H   H3984     1.0  0.49296  0.65228  0.35826  1.0000
  H   H3985     1.0  0.33234  0.88096  0.23777  1.0000
  H   H3986     1.0  0.34254  0.86642  0.23727  1.0000
  C   C2335     1.0  0.36907  0.86326  0.23671  1.0000
  C   C2336     1.0  0.36373  0.87723  0.23543  1.0000
  Fe  Fe335     1.0  0.33398  0.53575  0.60808  1.0000
  S   S672      1.0  0.34311  0.55077  0.60807  1.0000
  S   S673      1.0  0.31961  0.53723  0.59748  1.0000
  Fe  Fe336     1.0  0.34961  0.51606  0.62454  1.0000
  S   S674      1.0  0.35976  0.52959  0.62634  1.0000
  C   C2337     1.0  0.39043  0.60882  0.52615  1.0000
  Fe  Fe337     1.0  0.34132  0.54251  0.62830  1.0000
  S   S675      1.0  0.33280  0.55566  0.64110  1.0000
  Fe  Fe338     1.0  0.36067  0.53648  0.60605  1.0000
  S   S676      1.0  0.37933  0.53767  0.59397  1.0000
  S   S677      1.0  0.33092  0.52836  0.62847  1.0000
  S   S678      1.0  0.35171  0.52220  0.60415  1.0000
  Fe  Fe339     1.0  0.27087  0.59445  0.61265  1.0000
  S   S679      1.0  0.28592  0.60187  0.61541  1.0000
  S   S680      1.0  0.27176  0.57903  0.60358  1.0000
  S   S681      1.0  0.26357  0.62198  0.62914  1.0000
  Fe  Fe340     1.0  0.27398  0.62046  0.61000  1.0000
  S   S682      1.0  0.28204  0.63579  0.59673  1.0000
  Fe  Fe341     1.0  0.27446  0.60274  0.63431  1.0000
  S   S683      1.0  0.28485  0.59463  0.64975  1.0000
  S   S684      1.0  0.26010  0.61297  0.60532  1.0000
  S   S685      1.0  0.26018  0.59378  0.63204  1.0000
  Fe  Fe342     1.0  0.35892  0.59438  0.66609  1.0000
  S   S686      1.0  0.37258  0.60572  0.66512  1.0000
  S   S687      1.0  0.36409  0.57377  0.66797  1.0000
  Fe  Fe343     1.0  0.33766  0.61613  0.66401  1.0000
  S   S688      1.0  0.34936  0.62944  0.66284  1.0000
  S   S689      1.0  0.31738  0.62340  0.66391  1.0000
  Fe  Fe344     1.0  0.36351  0.61857  0.65004  1.0000
  S   S690      1.0  0.37434  0.62872  0.63297  1.0000
  Fe  Fe345     1.0  0.35746  0.61571  0.67809  1.0000
  S   S691      1.0  0.35816  0.62271  0.69475  1.0000
  S   S692      1.0  0.35120  0.60646  0.64988  1.0000
  S   S693      1.0  0.34447  0.60320  0.68032  1.0000
  Fe  Fe346     1.0  0.35844  0.62765  0.56992  1.0000
  S   S694      1.0  0.35579  0.60816  0.57610  1.0000
  S   S695      1.0  0.35715  0.64043  0.58229  1.0000
  Fe  Fe347     1.0  0.36186  0.62774  0.54251  1.0000
  S   S696      1.0  0.35964  0.60824  0.54648  1.0000
  S   S697      1.0  0.36569  0.63911  0.52321  1.0000
  Fe  Fe348     1.0  0.34423  0.61363  0.56177  1.0000
  S   S698      1.0  0.32712  0.60662  0.56445  1.0000
  Fe  Fe349     1.0  0.37149  0.60464  0.56019  1.0000
  S   S699      1.0  0.38791  0.58900  0.56037  1.0000
  S   S700      1.0  0.34545  0.63353  0.55682  1.0000
  S   S701      1.0  0.37511  0.62377  0.55505  1.0000
  H   H3987     1.0  0.35793  0.65062  0.66408  1.0000
  C   C2338     1.0  0.32944  0.65066  0.53198  1.0000
  S   S702      1.0  0.40264  0.63098  0.71334  1.0000
  H   H3988     1.0  0.29117  0.58856  0.69936  1.0000
  C   C2339     1.0  0.35836  0.63728  0.51229  1.0000
  C   C2340     1.0  0.35157  0.62807  0.51506  1.0000
  C   C2341     1.0  0.34560  0.62692  0.50632  1.0000
  C   C2342     1.0  0.33472  0.56249  0.68998  1.0000
  H   H3989     1.0  0.31004  0.65412  0.51486  1.0000
  C   C2343     1.0  0.35954  0.64503  0.50058  1.0000
  H   H3990     1.0  0.35077  0.62195  0.52399  1.0000
  H   H3991     1.0  0.34021  0.61989  0.50857  1.0000
  H   H3992     1.0  0.36489  0.65210  0.49833  1.0000
  C   C2344     1.0  0.37076  0.62443  0.69998  1.0000
  C   C2345     1.0  0.38298  0.61890  0.69564  1.0000
  C   C2346     1.0  0.39265  0.62079  0.69997  1.0000
  C   C2347     1.0  0.39020  0.62811  0.70876  1.0000
  C   C2348     1.0  0.37798  0.63360  0.71310  1.0000
  C   C2349     1.0  0.36833  0.63174  0.70876  1.0000
  H   H3993     1.0  0.38500  0.61320  0.68892  1.0000
  H   H3994     1.0  0.40210  0.61658  0.69648  1.0000
  H   H3995     1.0  0.37599  0.63949  0.71964  1.0000
  H   H3996     1.0  0.35892  0.63616  0.71211  1.0000
  C   C2350     1.0  0.36968  0.63118  0.61890  1.0000
  C   C2351     1.0  0.37168  0.64183  0.61010  1.0000
  C   C2352     1.0  0.36801  0.64432  0.59885  1.0000
  C   C2353     1.0  0.36279  0.63596  0.59601  1.0000
  C   C2354     1.0  0.36108  0.62506  0.60465  1.0000
  C   C2355     1.0  0.36431  0.62278  0.61621  1.0000
  H   H3997     1.0  0.37584  0.64834  0.61207  1.0000
  H   H3998     1.0  0.36924  0.65282  0.59230  1.0000
  H   H3999     1.0  0.35688  0.61867  0.60258  1.0000
  H   H4000     1.0  0.36276  0.61455  0.62299  1.0000
  C   C2356     1.0  0.29365  0.62861  0.58615  1.0000
  C   C2357     1.0  0.29357  0.61681  0.58502  1.0000
  C   C2358     1.0  0.30375  0.61022  0.57802  1.0000
  C   C2359     1.0  0.31408  0.61540  0.57224  1.0000
  C   C2360     1.0  0.31389  0.62746  0.57282  1.0000
  C   C2361     1.0  0.30360  0.63414  0.57966  1.0000
  H   H4001     1.0  0.28573  0.61264  0.58969  1.0000
  H   H4002     1.0  0.30379  0.60096  0.57743  1.0000
  H   H4003     1.0  0.32169  0.63161  0.56815  1.0000
  H   H4004     1.0  0.30352  0.64337  0.58033  1.0000
  C   C2362     1.0  0.29418  0.60364  0.65171  1.0000
  C   C2363     1.0  0.30694  0.59908  0.65052  1.0000
  C   C2364     1.0  0.31428  0.60522  0.65390  1.0000
  C   C2365     1.0  0.30883  0.61590  0.65860  1.0000
  C   C2366     1.0  0.29614  0.62063  0.65943  1.0000
  C   C2367     1.0  0.28883  0.61453  0.65600  1.0000
  H   H4005     1.0  0.31102  0.59064  0.64722  1.0000
  H   H4006     1.0  0.32408  0.60158  0.65310  1.0000
  H   H4007     1.0  0.29187  0.62892  0.66301  1.0000
  H   H4008     1.0  0.27897  0.61803  0.65709  1.0000
  C   C2368     1.0  0.30700  0.54977  0.59778  1.0000
  C   C2369     1.0  0.30768  0.56106  0.59985  1.0000
  C   C2370     1.0  0.29701  0.57049  0.60096  1.0000
  C   C2371     1.0  0.28569  0.56846  0.60035  1.0000
  C   C2372     1.0  0.28520  0.55740  0.59774  1.0000
  C   C2373     1.0  0.29582  0.54813  0.59638  1.0000
  H   H4009     1.0  0.31638  0.56247  0.60062  1.0000
  H   H4010     1.0  0.29748  0.57925  0.60245  1.0000
  H   H4011     1.0  0.27651  0.55585  0.59709  1.0000
  H   H4012     1.0  0.29530  0.53949  0.59465  1.0000
  C   C2374     1.0  0.38112  0.55191  0.58419  1.0000
  C   C2375     1.0  0.39306  0.55353  0.57830  1.0000
  C   C2376     1.0  0.39498  0.56492  0.57088  1.0000
  C   C2377     1.0  0.38497  0.57473  0.56920  1.0000
  C   C2378     1.0  0.37295  0.57306  0.57481  1.0000
  C   C2379     1.0  0.37103  0.56165  0.58241  1.0000
  H   H4013     1.0  0.40087  0.54603  0.57965  1.0000
  H   H4014     1.0  0.40427  0.56616  0.56653  1.0000
  H   H4015     1.0  0.36516  0.58056  0.57337  1.0000
  H   H4016     1.0  0.36176  0.56038  0.58677  1.0000
  C   C2380     1.0  0.34213  0.56040  0.64807  1.0000
  C   C2381     1.0  0.35291  0.55269  0.65137  1.0000
  C   C2382     1.0  0.35957  0.55669  0.65773  1.0000
  C   C2383     1.0  0.35565  0.56852  0.66039  1.0000
  C   C2384     1.0  0.34497  0.57619  0.65691  1.0000
  C   C2385     1.0  0.33818  0.57209  0.65089  1.0000
  H   H4017     1.0  0.35592  0.54357  0.64932  1.0000
  H   H4018     1.0  0.36784  0.55071  0.66044  1.0000
  H   H4019     1.0  0.34175  0.58519  0.65910  1.0000
  H   H4020     1.0  0.32988  0.57803  0.64832  1.0000
  H   H4021     1.0  0.35262  0.66050  0.67476  1.0000
  H   H4022     1.0  0.38663  0.59936  0.59801  1.0000
  H   H4023     1.0  0.38453  0.58805  0.61686  1.0000
  H   H4024     1.0  0.39337  0.57194  0.60643  1.0000
  C   C2386     1.0  0.30875  0.57470  0.70198  1.0000
  C   C2387     1.0  0.38355  0.59479  0.59231  1.0000
  H   H4025     1.0  0.30235  0.52830  0.63970  1.0000
  H   H4026     1.0  0.38513  0.56851  0.59711  1.0000
  H   H4027     1.0  0.27032  0.56691  0.63103  1.0000
  H   H4028     1.0  0.31201  0.61023  0.69515  1.0000
  H   H4029     1.0  0.29835  0.52922  0.62549  1.0000
  C   C2388     1.0  0.37575  0.58469  0.62010  1.0000
  C   C2389     1.0  0.31286  0.59456  0.68754  1.0000
  N   N165      1.0  0.38493  0.49557  0.58443  1.0000
  C   C2390     1.0  0.38459  0.56936  0.60667  1.0000
  H   H4030     1.0  0.29897  0.57760  0.66929  1.0000
  H   H4031     1.0  0.29132  0.55131  0.62194  1.0000
  H   H4032     1.0  0.34497  0.49769  0.61203  1.0000
  H   H4033     1.0  0.39131  0.58781  0.58855  1.0000
  C   C2391     1.0  0.31457  0.64431  0.51784  1.0000
  H   H4034     1.0  0.37891  0.62996  0.66903  1.0000
  H   H4035     1.0  0.37053  0.60521  0.52023  1.0000
  H   H4036     1.0  0.37964  0.58828  0.53736  1.0000
  C   C2392     1.0  0.37072  0.51169  0.57109  1.0000
  N   N166      1.0  0.38386  0.64787  0.66423  1.0000
  H   H4037     1.0  0.33181  0.57866  0.69705  1.0000
  C   C2393     1.0  0.37217  0.65236  0.67296  1.0000
  C   C2394     1.0  0.39473  0.64374  0.67056  1.0000
  C   C2395     1.0  0.38643  0.65742  0.65262  1.0000
  C   C2396     1.0  0.40811  0.58595  0.52154  1.0000
  C   C2397     1.0  0.36051  0.65758  0.66743  1.0000
  C   C2398     1.0  0.39515  0.65116  0.67981  1.0000
  C   C2399     1.0  0.38748  0.67001  0.65418  1.0000
  C   C2400     1.0  0.31280  0.61678  0.53757  1.0000
  H   H4038     1.0  0.39811  0.62555  0.51864  1.0000
  H   H4039     1.0  0.37306  0.65971  0.67706  1.0000
  C   C2401     1.0  0.31896  0.62771  0.53600  1.0000
  H   H4040     1.0  0.39517  0.59950  0.72245  1.0000
  H   H4041     1.0  0.40360  0.64352  0.66367  1.0000
  H   H4042     1.0  0.39533  0.65400  0.64662  1.0000
  H   H4043     1.0  0.37959  0.65899  0.64675  1.0000
  H   H4044     1.0  0.39519  0.63410  0.67589  1.0000
  H   H4045     1.0  0.38090  0.62244  0.50776  1.0000
  H   H4046     1.0  0.34446  0.56055  0.69099  1.0000
  H   H4047     1.0  0.40583  0.50799  0.58466  1.0000
  H   H4048     1.0  0.30110  0.63592  0.51368  1.0000
  H   H4049     1.0  0.39116  0.62160  0.65131  1.0000
  H   H4050     1.0  0.40571  0.51466  0.56864  1.0000
  H   H4051     1.0  0.38785  0.64977  0.68825  1.0000
  H   H4052     1.0  0.39446  0.66110  0.67584  1.0000
  H   H4053     1.0  0.39704  0.66988  0.65470  1.0000
  H   H4054     1.0  0.38095  0.67313  0.66224  1.0000
  H   H4055     1.0  0.38500  0.67719  0.64612  1.0000
  N   N167      1.0  0.29295  0.55472  0.63901  1.0000
  C   C2402     1.0  0.27977  0.55462  0.64568  1.0000
  C   C2403     1.0  0.30120  0.54929  0.64820  1.0000
  C   C2404     1.0  0.29677  0.54717  0.62922  1.0000
  C   C2405     1.0  0.29396  0.56786  0.63294  1.0000
  C   C2406     1.0  0.27020  0.55786  0.63744  1.0000
  C   C2407     1.0  0.29987  0.55694  0.65785  1.0000
  C   C2408     1.0  0.30722  0.57019  0.62758  1.0000
  H   H4056     1.0  0.27892  0.54551  0.65185  1.0000
  H   H4057     1.0  0.27656  0.56134  0.65187  1.0000
  H   H4058     1.0  0.31106  0.54749  0.64348  1.0000
  H   H4059     1.0  0.30651  0.54712  0.62439  1.0000
  H   H4060     1.0  0.28881  0.57137  0.62536  1.0000
  H   H4061     1.0  0.28943  0.57397  0.63959  1.0000
  C   C2409     1.0  0.38448  0.50047  0.60552  1.0000
  H   H4062     1.0  0.26080  0.55845  0.64336  1.0000
  H   H4063     1.0  0.41596  0.58918  0.52272  1.0000
  H   H4064     1.0  0.30628  0.55188  0.66413  1.0000
  H   H4065     1.0  0.30251  0.56595  0.65358  1.0000
  H   H4066     1.0  0.29041  0.55839  0.66356  1.0000
  H   H4067     1.0  0.28629  0.53237  0.63837  1.0000
  H   H4068     1.0  0.30738  0.57701  0.61874  1.0000
  H   H4069     1.0  0.31431  0.56194  0.62568  1.0000
  H   H4070     1.0  0.31002  0.57460  0.63364  1.0000
  H   H4071     1.0  0.30361  0.59886  0.68549  1.0000
  H   H4072     1.0  0.27149  0.55070  0.63210  1.0000
  H   H4073     1.0  0.40190  0.58389  0.53058  1.0000
  H   H4074     1.0  0.29369  0.57424  0.68545  1.0000
  H   H4075     1.0  0.40974  0.61139  0.52002  1.0000
  H   H4076     1.0  0.37314  0.60646  0.72470  1.0000
  H   H4077     1.0  0.40043  0.58959  0.50529  1.0000
  H   H4078     1.0  0.37460  0.51373  0.58751  1.0000
  C   C2410     1.0  0.29931  0.57994  0.67794  1.0000
  H   H4079     1.0  0.38630  0.57110  0.63296  1.0000
  C   C2411     1.0  0.29485  0.58035  0.70589  1.0000
  H   H4080     1.0  0.36792  0.50509  0.56738  1.0000
  C   C2412     1.0  0.37915  0.59826  0.51805  1.0000
  C   C2413     1.0  0.39645  0.49918  0.57595  1.0000
  H   H4081     1.0  0.36271  0.51956  0.57193  1.0000
  H   H4082     1.0  0.35038  0.58707  0.62632  1.0000
  H   H4083     1.0  0.33173  0.65601  0.53755  1.0000
  H   H4084     1.0  0.37838  0.59520  0.50993  1.0000
  C   C2414     1.0  0.40200  0.59509  0.51120  1.0000
  H   H4085     1.0  0.29304  0.58303  0.71491  1.0000
  H   H4086     1.0  0.38582  0.57872  0.52591  1.0000
  H   H4087     1.0  0.31970  0.60805  0.53932  1.0000
  H   H4088     1.0  0.38145  0.61502  0.52895  1.0000
  Fe  Fe350     1.0  0.25034  0.61298  0.62486  1.0000
  H   H4089     1.0  0.28924  0.57336  0.70723  1.0000
  H   H4090     1.0  0.31003  0.65898  0.53447  1.0000
  H   H4091     1.0  0.31707  0.62739  0.51116  1.0000
  H   H4092     1.0  0.37048  0.56963  0.63565  1.0000
  H   H4093     1.0  0.39292  0.60472  0.48979  1.0000
  H   H4094     1.0  0.40918  0.60025  0.50533  1.0000
  H   H4095     1.0  0.37448  0.50434  0.60818  1.0000
  H   H4096     1.0  0.36150  0.66583  0.65995  1.0000
  H   H4097     1.0  0.29338  0.64883  0.55337  1.0000
  C   C2415     1.0  0.25274  0.60155  0.57436  1.0000
  H   H4098     1.0  0.37475  0.63940  0.65520  1.0000
  H   H4099     1.0  0.29905  0.63238  0.55549  1.0000
  H   H4100     1.0  0.37011  0.64478  0.68097  1.0000
  H   H4101     1.0  0.38116  0.60202  0.58425  1.0000
  H   H4102     1.0  0.38431  0.55551  0.62430  1.0000
  H   H4103     1.0  0.29948  0.54009  0.65350  1.0000
  H   H4104     1.0  0.36066  0.57032  0.60715  1.0000
  C   C2416     1.0  0.31288  0.57688  0.67922  1.0000
  H   H4105     1.0  0.36252  0.56607  0.62249  1.0000
  H   H4106     1.0  0.36869  0.59318  0.62157  1.0000
  H   H4107     1.0  0.37778  0.55203  0.61319  1.0000
  N   N168      1.0  0.32143  0.62933  0.61140  1.0000
  C   C2417     1.0  0.32701  0.63109  0.59779  1.0000
  C   C2418     1.0  0.32537  0.61585  0.61696  1.0000
  C   C2419     1.0  0.32654  0.63718  0.61673  1.0000
  C   C2420     1.0  0.30761  0.63341  0.61284  1.0000
  C   C2421     1.0  0.32553  0.64456  0.59046  1.0000
  C   C2422     1.0  0.32051  0.60680  0.61249  1.0000
  C   C2423     1.0  0.32624  0.63359  0.63068  1.0000
  C   C2424     1.0  0.29968  0.63084  0.62592  1.0000
  H   H4108     1.0  0.33708  0.62701  0.59619  1.0000
  H   H4109     1.0  0.32300  0.62614  0.59321  1.0000
  H   H4110     1.0  0.32250  0.61385  0.62713  1.0000
  H   H4111     1.0  0.33563  0.61311  0.61518  1.0000
  H   H4112     1.0  0.33643  0.63713  0.61228  1.0000
  H   H4113     1.0  0.32168  0.64701  0.61473  1.0000
  H   H4114     1.0  0.30496  0.64352  0.60942  1.0000
  H   H4115     1.0  0.30412  0.62952  0.60683  1.0000
  H   H4116     1.0  0.31575  0.64933  0.59095  1.0000
  H   H4117     1.0  0.33051  0.64999  0.59342  1.0000
  H   H4118     1.0  0.32969  0.64453  0.58059  1.0000
  H   H4119     1.0  0.32315  0.59734  0.61792  1.0000
  H   H4120     1.0  0.31031  0.60894  0.61398  1.0000
  H   H4121     1.0  0.32459  0.60649  0.60268  1.0000
  H   H4122     1.0  0.31694  0.63291  0.63626  1.0000
  H   H4123     1.0  0.32917  0.64080  0.63342  1.0000
  H   H4124     1.0  0.33290  0.62486  0.63311  1.0000
  H   H4125     1.0  0.29808  0.63864  0.63054  1.0000
  H   H4126     1.0  0.30353  0.62223  0.63181  1.0000
  H   H4127     1.0  0.29059  0.62956  0.62533  1.0000
  C   C2425     1.0  0.34641  0.63495  0.49476  1.0000
  H   H4128     1.0  0.35178  0.60229  0.72698  1.0000
  C   C2426     1.0  0.29343  0.64041  0.55032  1.0000
  C   C2427     1.0  0.36198  0.57406  0.61464  1.0000
  C   C2428     1.0  0.37204  0.58939  0.59930  1.0000
  H   H4129     1.0  0.41222  0.57699  0.51867  1.0000
  C   C2429     1.0  0.37667  0.57621  0.63276  1.0000
  H   H4130     1.0  0.29493  0.58983  0.67715  1.0000
  H   H4131     1.0  0.34227  0.57812  0.62199  1.0000
  H   H4132     1.0  0.36895  0.58617  0.59250  1.0000
  H   H4133     1.0  0.32978  0.55661  0.69797  1.0000
  H   H4134     1.0  0.39135  0.60143  0.53442  1.0000
  H   H4135     1.0  0.31834  0.58106  0.67030  1.0000
  C   C2430     1.0  0.38504  0.55611  0.61440  1.0000
  C   C2431     1.0  0.35358  0.64387  0.49181  1.0000
  H   H4136     1.0  0.39400  0.55019  0.61104  1.0000
  H   H4137     1.0  0.36472  0.59734  0.60178  1.0000
  C   C2432     1.0  0.31580  0.64955  0.53663  1.0000
  H   H4138     1.0  0.34746  0.59064  0.61079  1.0000
  C   C2433     1.0  0.34995  0.58317  0.61861  1.0000
  C   C2434     1.0  0.29578  0.53352  0.63367  1.0000
  H   H4139     1.0  0.31323  0.57472  0.70949  1.0000
  C   C2435     1.0  0.29805  0.64181  0.53625  1.0000
  H   H4140     1.0  0.37366  0.58188  0.63991  1.0000
  H   H4141     1.0  0.28377  0.63905  0.55291  1.0000
  H   H4142     1.0  0.40408  0.64763  0.68289  1.0000
  H   H4143     1.0  0.32129  0.62680  0.54504  1.0000
  H   H4144     1.0  0.33582  0.64155  0.53297  1.0000
  H   H4145     1.0  0.39632  0.63543  0.64359  1.0000
  N   N169      1.0  0.31181  0.64054  0.53172  1.0000
  H   H4146     1.0  0.30508  0.61633  0.54571  1.0000
  H   H4147     1.0  0.33511  0.55972  0.68131  1.0000
  H   H4148     1.0  0.29456  0.63503  0.53348  1.0000
  N   N170      1.0  0.39026  0.60403  0.51518  1.0000
  H   H4149     1.0  0.30949  0.61681  0.52936  1.0000
  H   H4150     1.0  0.39034  0.61107  0.73140  1.0000
  H   H4151     1.0  0.31443  0.64696  0.54685  1.0000
  C   C2436     1.0  0.39353  0.62977  0.65286  1.0000
  C   C2437     1.0  0.38208  0.63678  0.66066  1.0000
  H   H4152     1.0  0.31233  0.64122  0.50084  1.0000
  H   H4153     1.0  0.40148  0.62623  0.65750  1.0000
  H   H4154     1.0  0.39608  0.50051  0.56609  1.0000
  H   H4155     1.0  0.29311  0.65100  0.53192  1.0000
  H   H4156     1.0  0.32461  0.64385  0.51415  1.0000
  H   H4157     1.0  0.25866  0.59282  0.57203  1.0000
  C   C2438     1.0  0.37876  0.58676  0.52855  1.0000
  H   H4158     1.0  0.32804  0.62590  0.52964  1.0000
  H   H4159     1.0  0.33129  0.65575  0.52228  1.0000
  H   H4160     1.0  0.38941  0.50808  0.60109  1.0000
  H   H4161     1.0  0.36545  0.50278  0.59008  1.0000
  C   C2439     1.0  0.31091  0.63664  0.51074  1.0000
  C   C2440     1.0  0.38629  0.61274  0.49298  1.0000
  H   H4162     1.0  0.33466  0.58131  0.68081  1.0000
  N   N171      1.0  0.37360  0.57919  0.61049  1.0000
  N   N172      1.0  0.31557  0.58066  0.68970  1.0000
  H   H4163     1.0  0.30947  0.56478  0.70226  1.0000
  H   H4164     1.0  0.31573  0.56675  0.67996  1.0000
  H   H4165     1.0  0.36965  0.58423  0.53032  1.0000
  C   C2441     1.0  0.37378  0.50598  0.58393  1.0000
  C   C2442     1.0  0.31387  0.60001  0.69807  1.0000
  H   H4166     1.0  0.40109  0.61735  0.53337  1.0000
  S   S703      1.0  0.35535  0.49588  0.63308  1.0000
  H   H4167     1.0  0.32320  0.59719  0.70019  1.0000
  C   C2443     1.0  0.32929  0.57639  0.68933  1.0000
  H   H4168     1.0  0.38726  0.62098  0.48544  1.0000
  H   H4169     1.0  0.30697  0.59771  0.70658  1.0000
  H   H4170     1.0  0.31920  0.59837  0.67908  1.0000
  C   C2444     1.0  0.40052  0.61615  0.52426  1.0000
  H   H4171     1.0  0.39694  0.61929  0.50168  1.0000
  H   H4172     1.0  0.25904  0.60793  0.57291  1.0000
  C   C2445     1.0  0.38866  0.61507  0.50471  1.0000
  H   H4173     1.0  0.39230  0.51813  0.57963  1.0000
  H   H4174     1.0  0.37846  0.51544  0.56447  1.0000
  C   C2446     1.0  0.38980  0.60158  0.73148  1.0000
  C   C2447     1.0  0.40018  0.51056  0.57751  1.0000
  C   C2448     1.0  0.34906  0.60772  0.73433  1.0000
  H   H4175     1.0  0.25310  0.59588  0.59344  1.0000
  H   H4176     1.0  0.25118  0.57567  0.59459  1.0000
  H   H4177     1.0  0.35115  0.61696  0.73007  1.0000
  Fe  Fe351     1.0  0.40278  0.63235  0.73285  1.0000
  H   H4178     1.0  0.37666  0.61159  0.49435  1.0000
  C   C2449     1.0  0.37637  0.60048  0.73306  1.0000
  H   H4179     1.0  0.40456  0.49150  0.57707  1.0000
  C   C2450     1.0  0.38676  0.49086  0.59754  1.0000
  H   H4180     1.0  0.38763  0.49583  0.61426  1.0000
  H   H4181     1.0  0.37649  0.59094  0.73242  1.0000
  H   H4182     1.0  0.24718  0.57872  0.58032  1.0000
  Fe  Fe352     1.0  0.38319  0.75811  0.87633  1.0000
  S   S704      1.0  0.37552  0.77427  0.86256  1.0000
  S   S705      1.0  0.39062  0.73868  0.87248  1.0000
  Fe  Fe353     1.0  0.38245  0.77492  0.89394  1.0000
  S   S706      1.0  0.37460  0.79201  0.88152  1.0000
  S   S707      1.0  0.38790  0.77527  0.91145  1.0000
  Fe  Fe354     1.0  0.36268  0.78047  0.87923  1.0000
  S   S708      1.0  0.34242  0.78833  0.88075  1.0000
  Fe  Fe355     1.0  0.38832  0.78410  0.86627  1.0000
  S   S709      1.0  0.39991  0.79616  0.85175  1.0000
  S   S710      1.0  0.36941  0.76372  0.89291  1.0000
  S   S711      1.0  0.39704  0.76761  0.87877  1.0000
  Fe  Fe356     1.0  0.36647  0.82657  0.95314  1.0000
  S   S712      1.0  0.37343  0.84001  0.93655  1.0000
  S   S713      1.0  0.36436  0.80778  0.95217  1.0000
  Fe  Fe357     1.0  0.36356  0.84396  0.97077  1.0000
  S   S714      1.0  0.37020  0.85877  0.95527  1.0000
  C   C2451     1.0  0.45676  0.82587  0.87583  1.0000
  Fe  Fe358     1.0  0.35840  0.85408  0.94500  1.0000
  S   S715      1.0  0.34651  0.86846  0.93322  1.0000
  Fe  Fe359     1.0  0.38450  0.84322  0.94840  1.0000
  S   S716      1.0  0.40468  0.84305  0.94113  1.0000
  S   S717      1.0  0.35054  0.84043  0.96099  1.0000
  S   S718      1.0  0.37878  0.82862  0.96455  1.0000
  Fe  Fe360     1.0  0.32706  0.85431  0.85628  1.0000
  S   S719      1.0  0.32066  0.87449  0.84912  1.0000
  S   S720      1.0  0.33317  0.84004  0.84465  1.0000
  Fe  Fe361     1.0  0.32330  0.85698  0.88260  1.0000
  S   S721      1.0  0.31645  0.87746  0.87790  1.0000
  S   S722      1.0  0.32650  0.84456  0.90068  1.0000
  Fe  Fe362     1.0  0.30566  0.87337  0.86615  1.0000
  S   S723      1.0  0.28524  0.88142  0.86731  1.0000
  Fe  Fe363     1.0  0.33202  0.87680  0.86133  1.0000
  S   S724      1.0  0.34419  0.89073  0.85506  1.0000
  S   S725      1.0  0.31119  0.85290  0.87236  1.0000
  S   S726      1.0  0.33968  0.85670  0.86697  1.0000
  Fe  Fe364     1.0  0.42194  0.84460  0.86882  1.0000
  S   S727      1.0  0.42933  0.85121  0.84879  1.0000
  S   S728      1.0  0.42094  0.82516  0.87860  1.0000
  Fe  Fe365     1.0  0.41660  0.86991  0.87454  1.0000
  S   S729      1.0  0.42347  0.87896  0.85499  1.0000
  S   S730      1.0  0.40861  0.88028  0.88984  1.0000
  Fe  Fe366     1.0  0.41317  0.86711  0.85039  1.0000
  S   S731      1.0  0.40171  0.87409  0.83591  1.0000
  Fe  Fe367     1.0  0.43902  0.86236  0.85511  1.0000
  S   S732      1.0  0.45959  0.86110  0.84862  1.0000
  S   S733      1.0  0.40497  0.85953  0.86992  1.0000
  S   S734      1.0  0.43295  0.85430  0.87510  1.0000
  S   S735      1.0  0.25847  0.88840  0.82344  1.0000
  H   H4183     1.0  0.28456  0.91462  0.84925  1.0000
  S   S736      1.0  0.33441  0.51892  0.84006  1.0000
  H   H4184     1.0  0.34193  0.89874  0.89861  1.0000
  N   N173      1.0  0.32112  0.50141  0.88706  1.0000
  Fe  Fe368     1.0  0.41914  0.62098  0.75234  1.0000
  S   S737      1.0  0.40549  0.62983  0.76687  1.0000
  S   S738      1.0  0.43704  0.60794  0.75550  1.0000
  Fe  Fe369     1.0  0.39130  0.62503  0.75982  1.0000
  S   S739      1.0  0.37566  0.61711  0.77276  1.0000
  Fe  Fe370     1.0  0.40369  0.64668  0.75177  1.0000
  S   S740      1.0  0.40621  0.66371  0.75639  1.0000
  H   H4185     1.0  0.36100  0.63478  0.79038  1.0000
  Fe  Fe371     1.0  0.47038  0.61304  0.80655  1.0000
  S   S741      1.0  0.45386  0.62782  0.81061  1.0000
  S   S742      1.0  0.47185  0.60230  0.79222  1.0000
  C   C2452     1.0  0.45823  0.83284  0.83430  1.0000
  S   S743      1.0  0.46733  0.63229  0.83083  1.0000
  Fe  Fe372     1.0  0.45535  0.61979  0.83029  1.0000
  S   S744      1.0  0.43796  0.61749  0.84437  1.0000
  Fe  Fe373     1.0  0.46760  0.63852  0.81062  1.0000
  S   S745      1.0  0.46775  0.65807  0.80087  1.0000
  H   H4186     1.0  0.32045  0.81814  0.90316  1.0000
  S   S746      1.0  0.48420  0.62439  0.80496  1.0000
  Fe  Fe374     1.0  0.37371  0.58757  0.84276  1.0000
  S   S747      1.0  0.39306  0.58590  0.83173  1.0000
  S   S748      1.0  0.36248  0.60673  0.84435  1.0000
  Fe  Fe375     1.0  0.37570  0.55953  0.85040  1.0000
  S   S749      1.0  0.39561  0.55597  0.84074  1.0000
  S   S750      1.0  0.36827  0.54209  0.86008  1.0000
  Fe  Fe376     1.0  0.39777  0.57146  0.84803  1.0000
  S   S751      1.0  0.41433  0.57075  0.85562  1.0000
  Fe  Fe377     1.0  0.38916  0.57073  0.82546  1.0000
  S   S752      1.0  0.39724  0.56776  0.80625  1.0000
  S   S753      1.0  0.37851  0.57358  0.85946  1.0000
  S   S754      1.0  0.36911  0.57377  0.83464  1.0000
  Fe  Fe378     1.0  0.40098  0.68488  0.82559  1.0000
  S   S755      1.0  0.39390  0.67945  0.84590  1.0000
  S   S756      1.0  0.41774  0.69328  0.81845  1.0000
  Fe  Fe379     1.0  0.37847  0.68136  0.81891  1.0000
  S   S757      1.0  0.36900  0.67643  0.83878  1.0000
  S   S758      1.0  0.36979  0.68064  0.80367  1.0000
  Fe  Fe380     1.0  0.37613  0.69181  0.84181  1.0000
  S   S759      1.0  0.36509  0.70672  0.85251  1.0000
  Fe  Fe381     1.0  0.38750  0.66460  0.84110  1.0000
  S   S760      1.0  0.39084  0.64455  0.85095  1.0000
  S   S761      1.0  0.38356  0.69788  0.82161  1.0000
  S   S762      1.0  0.39664  0.66880  0.82111  1.0000
  H   H4187     1.0  0.46326  0.83533  0.82464  1.0000
  S   S763      1.0  0.48138  0.90829  0.84220  1.0000
  C   C2453     1.0  0.37027  0.61727  0.84631  1.0000
  C   C2454     1.0  0.38289  0.61397  0.84623  1.0000
  C   C2455     1.0  0.38917  0.62258  0.84709  1.0000
  C   C2456     1.0  0.38287  0.63456  0.84829  1.0000
  C   C2457     1.0  0.37025  0.63798  0.84824  1.0000
  C   C2458     1.0  0.36397  0.62934  0.84727  1.0000
  H   H4188     1.0  0.38784  0.60477  0.84538  1.0000
  H   H4189     1.0  0.39895  0.61993  0.84685  1.0000
  H   H4190     1.0  0.36526  0.64718  0.84922  1.0000
  H   H4191     1.0  0.35420  0.63202  0.84727  1.0000
  C   C2459     1.0  0.45373  0.66771  0.80567  1.0000
  C   C2460     1.0  0.44308  0.66294  0.81111  1.0000
  C   C2461     1.0  0.43179  0.67086  0.81448  1.0000
  C   C2462     1.0  0.43132  0.68343  0.81299  1.0000
  C   C2463     1.0  0.44199  0.68818  0.80763  1.0000
  C   C2464     1.0  0.45316  0.68034  0.80380  1.0000
  H   H4192     1.0  0.44348  0.65319  0.81260  1.0000
  H   H4193     1.0  0.42353  0.66722  0.81848  1.0000
  H   H4194     1.0  0.44161  0.69792  0.80645  1.0000
  H   H4195     1.0  0.46138  0.68405  0.79955  1.0000
  C   C2465     1.0  0.43282  0.60397  0.84559  1.0000
  C   C2466     1.0  0.43751  0.59297  0.85314  1.0000
  C   C2467     1.0  0.43194  0.58276  0.85588  1.0000
  C   C2468     1.0  0.42163  0.58348  0.85115  1.0000
  C   C2469     1.0  0.41717  0.59440  0.84331  1.0000
  C   C2470     1.0  0.42275  0.60461  0.84054  1.0000
  H   H4196     1.0  0.44519  0.59244  0.85720  1.0000
  H   H4197     1.0  0.43548  0.57436  0.86192  1.0000
  H   H4198     1.0  0.40925  0.59512  0.83963  1.0000
  H   H4199     1.0  0.41902  0.61315  0.83480  1.0000
  H   H4200     1.0  0.40995  0.60534  0.86560  1.0000
  C   C2471     1.0  0.44650  0.60816  0.76532  1.0000
  C   C2472     1.0  0.44249  0.61474  0.77488  1.0000
  C   C2473     1.0  0.45027  0.61348  0.78309  1.0000
  C   C2474     1.0  0.46202  0.60564  0.78170  1.0000
  C   C2475     1.0  0.46594  0.59936  0.77203  1.0000
  C   C2476     1.0  0.45827  0.60060  0.76393  1.0000
  H   H4201     1.0  0.43328  0.62037  0.77617  1.0000
  H   H4202     1.0  0.44706  0.61817  0.79070  1.0000
  H   H4203     1.0  0.47493  0.59325  0.77091  1.0000
  C   C2477     1.0  0.36010  0.86639  0.88949  1.0000
  C   C2478     1.0  0.39594  0.66855  0.76939  1.0000
  C   C2479     1.0  0.38353  0.66777  0.77211  1.0000
  C   C2480     1.0  0.37549  0.67185  0.78246  1.0000
  C   C2481     1.0  0.37993  0.67624  0.79041  1.0000
  C   C2482     1.0  0.39236  0.67695  0.78773  1.0000
  C   C2483     1.0  0.40026  0.67339  0.77709  1.0000
  H   H4204     1.0  0.38006  0.66424  0.76611  1.0000
  H   H4205     1.0  0.36585  0.67142  0.78443  1.0000
  H   H4206     1.0  0.39581  0.68056  0.79367  1.0000
  H   H4207     1.0  0.40972  0.67437  0.77485  1.0000
  C   C2484     1.0  0.38128  0.60254  0.78113  1.0000
  C   C2485     1.0  0.39370  0.59685  0.77813  1.0000
  C   C2486     1.0  0.39836  0.58560  0.78535  1.0000
  C   C2487     1.0  0.39078  0.58041  0.79602  1.0000
  C   C2488     1.0  0.37827  0.58589  0.79887  1.0000
  C   C2489     1.0  0.37344  0.59677  0.79120  1.0000
  H   H4208     1.0  0.39985  0.60122  0.77044  1.0000
  H   H4209     1.0  0.40801  0.58131  0.78301  1.0000
  H   H4210     1.0  0.37234  0.58186  0.80706  1.0000
  H   H4211     1.0  0.36379  0.60111  0.79351  1.0000
  C   C2490     1.0  0.34412  0.52512  0.84548  1.0000
  C   C2491     1.0  0.34406  0.53781  0.84177  1.0000
  C   C2492     1.0  0.35154  0.54311  0.84598  1.0000
  C   C2493     1.0  0.35894  0.53581  0.85424  1.0000
  C   C2494     1.0  0.35894  0.52313  0.85804  1.0000
  C   C2495     1.0  0.35179  0.51776  0.85346  1.0000
  H   H4212     1.0  0.33816  0.54358  0.83559  1.0000
  H   H4213     1.0  0.35138  0.55289  0.84306  1.0000
  H   H4214     1.0  0.36469  0.51740  0.86436  1.0000
  H   H4215     1.0  0.35222  0.50794  0.85609  1.0000
  C   C2496     1.0  0.46558  0.87437  0.84633  1.0000
  C   C2497     1.0  0.45807  0.88617  0.84483  1.0000
  C   C2498     1.0  0.46305  0.89655  0.84336  1.0000
  C   C2499     1.0  0.47554  0.89519  0.84344  1.0000
  C   C2500     1.0  0.48309  0.88341  0.84479  1.0000
  C   C2501     1.0  0.47813  0.87304  0.84617  1.0000
  H   H4216     1.0  0.44843  0.88731  0.84476  1.0000
  H   H4217     1.0  0.45719  0.90566  0.84225  1.0000
  H   H4218     1.0  0.47158  0.86392  0.87639  1.0000
  H   H4219     1.0  0.48402  0.86394  0.84727  1.0000
  C   C2502     1.0  0.27823  0.88257  0.85504  1.0000
  C   C2503     1.0  0.26552  0.88299  0.85752  1.0000
  C   C2504     1.0  0.25946  0.88436  0.84794  1.0000
  C   C2505     1.0  0.26603  0.88553  0.83576  1.0000
  C   C2506     1.0  0.27883  0.88478  0.83330  1.0000
  C   C2507     1.0  0.28493  0.88330  0.84291  1.0000
  H   H4220     1.0  0.26032  0.88226  0.86691  1.0000
  H   H4221     1.0  0.28399  0.88565  0.82389  1.0000
  H   H4222     1.0  0.29472  0.88310  0.84090  1.0000
  C   C2508     1.0  0.36007  0.88562  0.84954  1.0000
  C   C2509     1.0  0.36618  0.87352  0.85355  1.0000
  C   C2510     1.0  0.37907  0.87001  0.84974  1.0000
  C   C2511     1.0  0.38578  0.87850  0.84158  1.0000
  C   C2512     1.0  0.37962  0.89050  0.83740  1.0000
  C   C2513     1.0  0.36686  0.89411  0.84156  1.0000
  H   H4223     1.0  0.36105  0.86701  0.85991  1.0000
  H   H4224     1.0  0.38382  0.86074  0.85302  1.0000
  H   H4225     1.0  0.38475  0.89708  0.83103  1.0000
  H   H4226     1.0  0.36222  0.90350  0.83848  1.0000
  C   C2514     1.0  0.40633  0.85397  0.92729  1.0000
  C   C2515     1.0  0.41669  0.85187  0.91790  1.0000
  C   C2516     1.0  0.41748  0.85998  0.90639  1.0000
  C   C2517     1.0  0.40813  0.87043  0.90439  1.0000
  C   C2518     1.0  0.39816  0.87293  0.91405  1.0000
  C   C2519     1.0  0.39711  0.86455  0.92540  1.0000
  H   H4227     1.0  0.42392  0.84380  0.91942  1.0000
  H   H4228     1.0  0.42539  0.85820  0.89913  1.0000
  H   H4229     1.0  0.39100  0.88111  0.91264  1.0000
  H   H4230     1.0  0.38914  0.86629  0.93267  1.0000
  C   C2520     1.0  0.34023  0.86179  0.92479  1.0000
  C   C2521     1.0  0.34263  0.84898  0.92613  1.0000
  C   C2522     1.0  0.33817  0.84376  0.91885  1.0000
  C   C2523     1.0  0.33151  0.85132  0.91004  1.0000
  C   C2524     1.0  0.32899  0.86412  0.90878  1.0000
  C   C2525     1.0  0.33321  0.86934  0.91627  1.0000
  H   H4231     1.0  0.34785  0.84307  0.93282  1.0000
  H   H4232     1.0  0.34000  0.83386  0.91997  1.0000
  H   H4233     1.0  0.32368  0.87000  0.90215  1.0000
  H   H4234     1.0  0.33118  0.87924  0.91533  1.0000
  C   C2526     1.0  0.38071  0.78505  0.92203  1.0000
  C   C2527     1.0  0.37970  0.77966  0.93454  1.0000
  C   C2528     1.0  0.37478  0.78684  0.94349  1.0000
  C   C2529     1.0  0.37116  0.79964  0.94013  1.0000
  C   C2530     1.0  0.37229  0.80524  0.92755  1.0000
  C   C2531     1.0  0.37701  0.79792  0.91848  1.0000
  H   H4235     1.0  0.38268  0.76978  0.93737  1.0000
  H   H4236     1.0  0.37383  0.78240  0.95313  1.0000
  H   H4237     1.0  0.36927  0.81511  0.92487  1.0000
  H   H4238     1.0  0.37799  0.80220  0.90881  1.0000
  C   C2532     1.0  0.40600  0.80416  0.85904  1.0000
  C   C2533     1.0  0.41112  0.81435  0.85228  1.0000
  C   C2534     1.0  0.41536  0.82114  0.85828  1.0000
  C   C2535     1.0  0.41486  0.81747  0.87097  1.0000
  C   C2536     1.0  0.40978  0.80728  0.87767  1.0000
  C   C2537     1.0  0.40527  0.80071  0.87175  1.0000
  H   H4239     1.0  0.41174  0.81702  0.84244  1.0000
  H   H4240     1.0  0.41921  0.82903  0.85303  1.0000
  H   H4241     1.0  0.40916  0.80450  0.88747  1.0000
  H   H4242     1.0  0.40135  0.79287  0.87705  1.0000
  C   C2538     1.0  0.33997  0.80258  0.87055  1.0000
  C   C2539     1.0  0.33677  0.81342  0.87503  1.0000
  C   C2540     1.0  0.33450  0.82488  0.86709  1.0000
  C   C2541     1.0  0.33542  0.82558  0.85459  1.0000
  C   C2542     1.0  0.33862  0.81475  0.85003  1.0000
  C   C2543     1.0  0.34096  0.80323  0.85801  1.0000
  H   H4243     1.0  0.33626  0.81303  0.88460  1.0000
  H   H4244     1.0  0.33230  0.83313  0.87069  1.0000
  H   H4245     1.0  0.33942  0.81526  0.84034  1.0000
  H   H4246     1.0  0.34345  0.79484  0.85452  1.0000
  C   C2544     1.0  0.38298  0.72973  0.86762  1.0000
  C   C2545     1.0  0.38966  0.71837  0.86468  1.0000
  C   C2546     1.0  0.38431  0.71126  0.86005  1.0000
  C   C2547     1.0  0.37209  0.71530  0.85855  1.0000
  C   C2548     1.0  0.36530  0.72655  0.86174  1.0000
  C   C2549     1.0  0.37075  0.73379  0.86614  1.0000
  H   H4247     1.0  0.39910  0.71511  0.86586  1.0000
  H   H4248     1.0  0.38960  0.70260  0.85773  1.0000
  H   H4249     1.0  0.35583  0.72974  0.86065  1.0000
  H   H4250     1.0  0.36548  0.74250  0.86839  1.0000
  N   N174      1.0  0.38215  0.63414  0.80628  1.0000
  C   C2550     1.0  0.39599  0.62980  0.80278  1.0000
  C   C2551     1.0  0.37726  0.62334  0.81494  1.0000
  C   C2552     1.0  0.37973  0.64449  0.81298  1.0000
  C   C2553     1.0  0.40345  0.63970  0.79521  1.0000
  C   C2554     1.0  0.37793  0.61247  0.80917  1.0000
  H   H4251     1.0  0.39998  0.62542  0.81115  1.0000
  H   H4252     1.0  0.39833  0.62258  0.79724  1.0000
  H   H4253     1.0  0.42407  0.82653  0.97018  1.0000
  H   H4254     1.0  0.38239  0.61960  0.82251  1.0000
  H   H4255     1.0  0.38426  0.64131  0.82107  1.0000
  H   H4256     1.0  0.38380  0.65233  0.80697  1.0000
  H   H4257     1.0  0.36860  0.85561  0.91055  1.0000
  H   H4258     1.0  0.47060  0.81508  0.83690  1.0000
  H   H4259     1.0  0.41310  0.63508  0.79188  1.0000
  H   H4260     1.0  0.39980  0.64518  0.78697  1.0000
  H   H4261     1.0  0.40389  0.64593  0.80093  1.0000
  H   H4262     1.0  0.41001  0.60081  0.79272  1.0000
  H   H4263     1.0  0.36870  0.86728  0.98014  1.0000
  H   H4264     1.0  0.38752  0.60806  0.80546  1.0000
  C   C2555     1.0  0.44923  0.81562  0.85713  1.0000
  C   C2556     1.0  0.44875  0.80555  0.85070  1.0000
  H   H4265     1.0  0.44565  0.81221  0.86708  1.0000
  H   H4266     1.0  0.44208  0.82396  0.85469  1.0000
  H   H4267     1.0  0.44764  0.82327  0.87927  1.0000
  H   H4268     1.0  0.45029  0.79629  0.85684  1.0000
  H   H4269     1.0  0.43954  0.80742  0.84837  1.0000
  N   N175      1.0  0.37450  0.83327  0.84157  1.0000
  C   C2557     1.0  0.37672  0.82776  0.85442  1.0000
  C   C2558     1.0  0.38676  0.83408  0.83289  1.0000
  C   C2559     1.0  0.36832  0.82544  0.83743  1.0000
  C   C2560     1.0  0.36617  0.84582  0.84154  1.0000
  C   C2561     1.0  0.36536  0.82479  0.86438  1.0000
  C   C2562     1.0  0.39378  0.84305  0.83472  1.0000
  C   C2563     1.0  0.37451  0.81167  0.83862  1.0000
  C   C2564     1.0  0.36403  0.85361  0.82885  1.0000
  H   H4270     1.0  0.38387  0.81915  0.85458  1.0000
  H   H4271     1.0  0.38044  0.83403  0.85773  1.0000
  H   H4272     1.0  0.38572  0.83669  0.82313  1.0000
  H   H4273     1.0  0.39312  0.82489  0.83375  1.0000
  H   H4274     1.0  0.35866  0.82598  0.84253  1.0000
  H   H4275     1.0  0.36771  0.82899  0.82759  1.0000
  H   H4276     1.0  0.35685  0.84498  0.84719  1.0000
  H   H4277     1.0  0.36968  0.85136  0.84592  1.0000
  H   H4278     1.0  0.36828  0.82082  0.87332  1.0000
  H   H4279     1.0  0.35811  0.83312  0.86564  1.0000
  H   H4280     1.0  0.36141  0.81781  0.86252  1.0000
  H   H4281     1.0  0.40269  0.84265  0.82794  1.0000
  H   H4282     1.0  0.38870  0.85276  0.83303  1.0000
  H   H4283     1.0  0.39607  0.84051  0.84396  1.0000
  H   H4284     1.0  0.36911  0.80705  0.83518  1.0000
  H   H4285     1.0  0.37458  0.80687  0.84831  1.0000
  H   H4286     1.0  0.38402  0.81024  0.83303  1.0000
  H   H4287     1.0  0.37265  0.85593  0.82266  1.0000
  H   H4288     1.0  0.35762  0.86248  0.83020  1.0000
  H   H4289     1.0  0.35962  0.84905  0.82428  1.0000
  C   C2565     1.0  0.30762  0.51188  0.87077  1.0000
  H   H4290     1.0  0.36576  0.59880  0.76440  1.0000
  H   H4291     1.0  0.49456  0.89211  0.80489  1.0000
  C   C2566     1.0  0.37251  0.59666  0.75595  1.0000
  C   C2567     1.0  0.48945  0.65705  0.81938  1.0000
  H   H4292     1.0  0.38421  0.61363  0.89845  1.0000
  H   H4293     1.0  0.40197  0.57997  0.90523  1.0000
  C   C2568     1.0  0.42211  0.58550  0.80222  1.0000
  H   H4294     1.0  0.32582  0.80209  0.90255  1.0000
  H   H4295     1.0  0.33559  0.51070  0.87530  1.0000
  H   H4296     1.0  0.41177  0.59708  0.89287  1.0000
  S   S764      1.0  0.38804  0.64272  0.74591  1.0000
  S   S765      1.0  0.40508  0.61447  0.74659  1.0000
  H   H4297     1.0  0.36726  0.57870  0.75922  1.0000
  H   H4298     1.0  0.32512  0.52191  0.89409  1.0000
  H   H4299     1.0  0.30291  0.51333  0.88980  1.0000
  H   H4300     1.0  0.39206  0.58527  0.87817  1.0000
  H   H4301     1.0  0.49274  0.88226  0.84488  1.0000
  C   C2569     1.0  0.37277  0.55043  0.81311  1.0000
  C   C2570     1.0  0.39613  0.58872  0.90127  1.0000
  C   C2571     1.0  0.32114  0.80858  0.90875  1.0000
  N   N176      1.0  0.39734  0.60722  0.88293  1.0000
  C   C2572     1.0  0.38667  0.60514  0.87888  1.0000
  C   C2573     1.0  0.43577  0.56821  0.81273  1.0000
  H   H4302     1.0  0.43422  0.56195  0.80762  1.0000
  C   C2574     1.0  0.42387  0.83653  0.96841  1.0000
  H   H4303     1.0  0.36755  0.62592  0.81968  1.0000
  C   C2575     1.0  0.31147  0.51220  0.88255  1.0000
  C   C2576     1.0  0.39225  0.61632  0.89132  1.0000
  N   N177      1.0  0.45114  0.88286  0.88536  1.0000
  C   C2577     1.0  0.45513  0.86929  0.89066  1.0000
  C   C2578     1.0  0.44558  0.88922  0.89608  1.0000
  C   C2579     1.0  0.46253  0.88753  0.87774  1.0000
  C   C2580     1.0  0.44202  0.88413  0.87752  1.0000
  C   C2581     1.0  0.46270  0.86118  0.88132  1.0000
  C   C2582     1.0  0.43363  0.88559  0.90446  1.0000
  C   C2583     1.0  0.46196  0.90151  0.87510  1.0000
  C   C2584     1.0  0.43534  0.89727  0.87240  1.0000
  H   H4304     1.0  0.46079  0.86794  0.89764  1.0000
  H   H4305     1.0  0.44701  0.86509  0.89558  1.0000
  H   H4306     1.0  0.44330  0.89938  0.89306  1.0000
  H   H4307     1.0  0.45243  0.88752  0.90197  1.0000
  H   H4308     1.0  0.47056  0.88319  0.88228  1.0000
  H   H4309     1.0  0.46525  0.88478  0.86867  1.0000
  H   H4310     1.0  0.44660  0.87997  0.86936  1.0000
  H   H4311     1.0  0.43488  0.87860  0.88241  1.0000
  H   H4312     1.0  0.46503  0.85150  0.88636  1.0000
  C   C2585     1.0  0.25226  0.93620  0.84396  1.0000
  C   C2586     1.0  0.37401  0.52224  0.82387  1.0000
  H   H4313     1.0  0.43504  0.87576  0.90919  1.0000
  H   H4314     1.0  0.43033  0.89106  0.91179  1.0000
  H   H4315     1.0  0.42614  0.88780  0.89931  1.0000
  H   H4316     1.0  0.47067  0.90349  0.86876  1.0000
  H   H4317     1.0  0.46147  0.90471  0.88355  1.0000
  H   H4318     1.0  0.45438  0.90705  0.87048  1.0000
  H   H4319     1.0  0.44046  0.90104  0.86314  1.0000
  H   H4320     1.0  0.43361  0.90385  0.87844  1.0000
  H   H4321     1.0  0.42602  0.89694  0.87151  1.0000
  N   N178      1.0  0.38504  0.52825  0.81935  1.0000
  C   C2587     1.0  0.33304  0.50152  0.87769  1.0000
  C   C2588     1.0  0.38099  0.54123  0.82159  1.0000
  H   H4322     1.0  0.36691  0.52678  0.81821  1.0000
  C   C2589     1.0  0.27443  0.91713  0.85269  1.0000
  H   H4323     1.0  0.39441  0.86709  0.97412  1.0000
  H   H4324     1.0  0.24970  0.88456  0.85002  1.0000
  H   H4325     1.0  0.36761  0.50516  0.82775  1.0000
  C   C2590     1.0  0.39659  0.84722  0.97463  1.0000
  C   C2591     1.0  0.48331  0.80893  0.85996  1.0000
  H   H4326     1.0  0.49632  0.93999  0.81809  1.0000
  H   H4327     1.0  0.49264  0.65742  0.82754  1.0000
  H   H4328     1.0  0.37573  0.54129  0.83119  1.0000
  H   H4329     1.0  0.33197  0.50030  0.86877  1.0000
  H   H4330     1.0  0.48231  0.91498  0.81569  1.0000
  H   H4331     1.0  0.48730  0.66644  0.81369  1.0000
  H   H4332     1.0  0.26943  0.90721  0.84190  1.0000
  H   H4333     1.0  0.48866  0.80003  0.86428  1.0000
  H   H4334     1.0  0.39220  0.86367  0.96073  1.0000
  H   H4335     1.0  0.40494  0.82356  0.98057  1.0000
  C   C2592     1.0  0.49196  0.93523  0.81362  1.0000
  H   H4336     1.0  0.27277  0.92174  0.83387  1.0000
  H   H4337     1.0  0.38432  0.51445  0.84444  1.0000
  H   H4338     1.0  0.26326  0.83639  0.84565  1.0000
  C   C2593     1.0  0.40090  0.53440  0.79947  1.0000
  H   H4339     1.0  0.48058  0.65388  0.82289  1.0000
  C   C2594     1.0  0.39171  0.51977  0.84025  1.0000
  H   H4340     1.0  0.31473  0.52097  0.88055  1.0000
  H   H4341     1.0  0.25827  0.93249  0.81970  1.0000
  N   N179      1.0  0.40942  0.81144  0.92399  1.0000
  C   C2595     1.0  0.39874  0.81340  0.93469  1.0000
  C   C2596     1.0  0.40721  0.82231  0.91351  1.0000
  C   C2597     1.0  0.42104  0.81114  0.92804  1.0000
  C   C2598     1.0  0.40984  0.79935  0.92089  1.0000
  C   C2599     1.0  0.39935  0.80361  0.94675  1.0000
  C   C2600     1.0  0.39580  0.82364  0.90817  1.0000
  C   C2601     1.0  0.43230  0.81408  0.91788  1.0000
  C   C2602     1.0  0.41924  0.79595  0.90939  1.0000
  H   H4342     1.0  0.39772  0.82250  0.93695  1.0000
  H   H4343     1.0  0.38990  0.81368  0.93234  1.0000
  H   H4344     1.0  0.41512  0.82218  0.90558  1.0000
  H   H4345     1.0  0.40634  0.83108  0.91644  1.0000
  H   H4346     1.0  0.41922  0.81794  0.93402  1.0000
  H   H4347     1.0  0.42415  0.80196  0.93381  1.0000
  H   H4348     1.0  0.41209  0.79154  0.92858  1.0000
  H   H4349     1.0  0.40059  0.79859  0.92018  1.0000
  H   H4350     1.0  0.39871  0.79447  0.94575  1.0000
  H   H4351     1.0  0.40765  0.80284  0.95034  1.0000
  H   H4352     1.0  0.39121  0.80637  0.95391  1.0000
  H   H4353     1.0  0.39593  0.81527  0.90503  1.0000
  H   H4354     1.0  0.38705  0.82612  0.91473  1.0000
  H   H4355     1.0  0.39586  0.83130  0.89993  1.0000
  H   H4356     1.0  0.43494  0.80827  0.91095  1.0000
  H   H4357     1.0  0.44036  0.81239  0.92219  1.0000
  H   H4358     1.0  0.43072  0.82395  0.91320  1.0000
  H   H4359     1.0  0.42817  0.79061  0.91180  1.0000
  H   H4360     1.0  0.42088  0.80395  0.90187  1.0000
  H   H4361     1.0  0.41556  0.79011  0.90547  1.0000
  H   H4362     1.0  0.36437  0.54722  0.81344  1.0000
  C   C2603     1.0  0.47743  0.93076  0.79491  1.0000
  N   N180      1.0  0.29055  0.84281  0.84859  1.0000
  C   C2604     1.0  0.29345  0.85063  0.83581  1.0000
  C   C2605     1.0  0.28159  0.83535  0.84839  1.0000
  C   C2606     1.0  0.30244  0.83442  0.85153  1.0000
  C   C2607     1.0  0.28507  0.85141  0.85742  1.0000
  C   C2608     1.0  0.30471  0.85669  0.83296  1.0000
  C   C2609     1.0  0.26908  0.84286  0.84535  1.0000
  C   C2610     1.0  0.30148  0.82246  0.86138  1.0000
  C   C2611     1.0  0.28042  0.84570  0.87102  1.0000
  H   H4363     1.0  0.29519  0.84511  0.82864  1.0000
  H   H4364     1.0  0.28546  0.85827  0.83395  1.0000
  H   H4365     1.0  0.27940  0.82889  0.85728  1.0000
  H   H4366     1.0  0.28585  0.82931  0.84156  1.0000
  H   H4367     1.0  0.30850  0.83129  0.84315  1.0000
  H   H4368     1.0  0.30779  0.83951  0.85450  1.0000
  H   H4369     1.0  0.29190  0.85666  0.85754  1.0000
  H   H4370     1.0  0.27743  0.85878  0.85427  1.0000
  H   H4371     1.0  0.30495  0.86106  0.84038  1.0000
  C   C2612     1.0  0.32247  0.50266  0.89937  1.0000
  N   N181      1.0  0.36768  0.60382  0.74456  1.0000
  H   H4372     1.0  0.35631  0.63254  0.75310  1.0000
  H   H4373     1.0  0.43628  0.64715  0.74785  1.0000
  H   H4374     1.0  0.26392  0.84861  0.85219  1.0000
  H   H4375     1.0  0.29535  0.82405  0.87021  1.0000
  H   H4376     1.0  0.31079  0.81800  0.86337  1.0000
  H   H4377     1.0  0.29852  0.81573  0.85796  1.0000
  H   H4378     1.0  0.28803  0.84271  0.87615  1.0000
  H   H4379     1.0  0.27583  0.83799  0.87233  1.0000
  H   H4380     1.0  0.27321  0.85278  0.87531  1.0000
  N   N182      1.0  0.44490  0.65589  0.77100  1.0000
  C   C2613     1.0  0.43823  0.65009  0.76505  1.0000
  C   C2614     1.0  0.44144  0.65149  0.78477  1.0000
  C   C2615     1.0  0.45870  0.65224  0.76695  1.0000
  C   C2616     1.0  0.44118  0.66970  0.76725  1.0000
  C   C2617     1.0  0.44168  0.65214  0.75089  1.0000
  C   C2618     1.0  0.42831  0.65719  0.79100  1.0000
  C   C2619     1.0  0.46411  0.63826  0.76922  1.0000
  C   C2620     1.0  0.44663  0.67727  0.77301  1.0000
  H   H4381     1.0  0.43958  0.63999  0.76866  1.0000
  H   H4382     1.0  0.42808  0.65356  0.76745  1.0000
  H   H4383     1.0  0.44805  0.65297  0.78953  1.0000
  H   H4384     1.0  0.44217  0.64133  0.78718  1.0000
  H   H4385     1.0  0.46176  0.65619  0.75701  1.0000
  H   H4386     1.0  0.46345  0.65620  0.77183  1.0000
  H   H4387     1.0  0.44408  0.67276  0.75712  1.0000
  H   H4388     1.0  0.43097  0.67287  0.76892  1.0000
  H   H4389     1.0  0.43915  0.66198  0.74643  1.0000
  H   H4390     1.0  0.45154  0.64834  0.74744  1.0000
  H   H4391     1.0  0.34015  0.49248  0.79661  1.0000
  H   H4392     1.0  0.42645  0.65247  0.80084  1.0000
  H   H4393     1.0  0.42729  0.66711  0.79080  1.0000
  H   H4394     1.0  0.42119  0.65601  0.78677  1.0000
  H   H4395     1.0  0.46051  0.63342  0.76418  1.0000
  H   H4396     1.0  0.46252  0.63396  0.77917  1.0000
  H   H4397     1.0  0.47427  0.63670  0.76582  1.0000
  H   H4398     1.0  0.45515  0.67987  0.76679  1.0000
  H   H4399     1.0  0.44890  0.67239  0.78203  1.0000
  H   H4400     1.0  0.43975  0.68578  0.77473  1.0000
  N   N183      1.0  0.40154  0.73572  0.82874  1.0000
  C   C2621     1.0  0.40431  0.74098  0.83824  1.0000
  C   C2622     1.0  0.40811  0.72236  0.83025  1.0000
  C   C2623     1.0  0.38773  0.73672  0.83118  1.0000
  C   C2624     1.0  0.40609  0.74316  0.81622  1.0000
  C   C2625     1.0  0.39667  0.75390  0.83994  1.0000
  C   C2626     1.0  0.42226  0.71983  0.82867  1.0000
  C   C2627     1.0  0.38309  0.72701  0.82746  1.0000
  C   C2628     1.0  0.40523  0.73871  0.80503  1.0000
  H   H4401     1.0  0.40295  0.73470  0.84744  1.0000
  H   H4402     1.0  0.41415  0.74175  0.83606  1.0000
  H   H4403     1.0  0.40633  0.71780  0.82368  1.0000
  H   H4404     1.0  0.40445  0.71712  0.83954  1.0000
  H   H4405     1.0  0.38372  0.73578  0.84121  1.0000
  H   H4406     1.0  0.38306  0.74600  0.82680  1.0000
  H   H4407     1.0  0.40091  0.75288  0.81521  1.0000
  H   H4408     1.0  0.41590  0.74361  0.81513  1.0000
  H   H4409     1.0  0.39800  0.76104  0.83141  1.0000
  H   H4410     1.0  0.38669  0.75395  0.84348  1.0000
  H   H4411     1.0  0.39978  0.75667  0.84701  1.0000
  H   H4412     1.0  0.42590  0.70974  0.82967  1.0000
  H   H4413     1.0  0.42676  0.72420  0.81938  1.0000
  H   H4414     1.0  0.42506  0.72263  0.83589  1.0000
  H   H4415     1.0  0.37286  0.72951  0.82887  1.0000
  H   H4416     1.0  0.38534  0.71781  0.83347  1.0000
  H   H4417     1.0  0.38676  0.72613  0.81780  1.0000
  H   H4418     1.0  0.41021  0.72905  0.80495  1.0000
  H   H4419     1.0  0.40961  0.74451  0.79650  1.0000
  H   H4420     1.0  0.39552  0.73987  0.80440  1.0000
  N   N184      1.0  0.33927  0.79772  0.91986  1.0000
  C   C2629     1.0  0.34455  0.79846  0.93029  1.0000
  C   C2630     1.0  0.34863  0.80011  0.90802  1.0000
  C   C2631     1.0  0.33663  0.78512  0.92159  1.0000
  C   C2632     1.0  0.32738  0.80717  0.91961  1.0000
  C   C2633     1.0  0.33675  0.79531  0.94338  1.0000
  C   C2634     1.0  0.35064  0.81345  0.90340  1.0000
  C   C2635     1.0  0.34752  0.77414  0.92376  1.0000
  H   H4421     1.0  0.46142  0.59545  0.75665  1.0000
  H   H4422     1.0  0.35379  0.79229  0.93020  1.0000
  H   H4423     1.0  0.34607  0.80789  0.92923  1.0000
  H   H4424     1.0  0.34630  0.79747  0.90041  1.0000
  H   H4425     1.0  0.35784  0.79417  0.90895  1.0000
  H   H4426     1.0  0.32866  0.78358  0.92932  1.0000
  H   H4427     1.0  0.33377  0.78425  0.91336  1.0000
  H   H4428     1.0  0.32041  0.80495  0.92816  1.0000
  H   H4429     1.0  0.32876  0.81642  0.91963  1.0000
  H   H4430     1.0  0.34204  0.79559  0.95011  1.0000
  H   H4431     1.0  0.32801  0.80221  0.94484  1.0000
  H   H4432     1.0  0.33483  0.78592  0.94566  1.0000
  H   H4433     1.0  0.35810  0.81381  0.89502  1.0000
  H   H4434     1.0  0.38153  0.63184  0.78836  1.0000
  H   H4435     1.0  0.35361  0.81668  0.91021  1.0000
  H   H4436     1.0  0.35571  0.77476  0.91614  1.0000
  H   H4437     1.0  0.34468  0.76548  0.92418  1.0000
  H   H4438     1.0  0.35020  0.77316  0.93261  1.0000
  H   H4439     1.0  0.34245  0.88838  0.88922  1.0000
  H   H4440     1.0  0.38900  0.54525  0.82099  1.0000
  N   N185      1.0  0.43562  0.65764  0.85342  1.0000
  C   C2636     1.0  0.43561  0.66892  0.84311  1.0000
  C   C2637     1.0  0.43301  0.64774  0.84863  1.0000
  C   C2638     1.0  0.44835  0.65379  0.85640  1.0000
  C   C2639     1.0  0.42589  0.66110  0.86432  1.0000
  C   C2640     1.0  0.43894  0.68011  0.84557  1.0000
  C   C2641     1.0  0.41989  0.64994  0.84632  1.0000
  C   C2642     1.0  0.45231  0.64037  0.86318  1.0000
  C   C2643     1.0  0.42291  0.65057  0.87537  1.0000
  H   H4441     1.0  0.44224  0.66660  0.83466  1.0000
  H   H4442     1.0  0.42640  0.67241  0.84060  1.0000
  H   H4443     1.0  0.43436  0.63865  0.85497  1.0000
  H   H4444     1.0  0.43969  0.64629  0.83989  1.0000
  H   H4445     1.0  0.45557  0.65499  0.84779  1.0000
  H   H4446     1.0  0.44943  0.65981  0.86206  1.0000
  H   H4447     1.0  0.42858  0.66774  0.86812  1.0000
  H   H4448     1.0  0.41706  0.66632  0.86149  1.0000
  H   H4449     1.0  0.44832  0.67796  0.84756  1.0000
  H   H4450     1.0  0.43893  0.68751  0.83712  1.0000
  H   H4451     1.0  0.43201  0.68402  0.85304  1.0000
  H   H4452     1.0  0.41765  0.65829  0.83926  1.0000
  H   H4453     1.0  0.41914  0.64204  0.84288  1.0000
  H   H4454     1.0  0.41279  0.65040  0.85492  1.0000
  H   H4455     1.0  0.44574  0.63769  0.87179  1.0000
  H   H4456     1.0  0.46130  0.63932  0.86571  1.0000
  H   H4457     1.0  0.45390  0.63374  0.85714  1.0000
  H   H4458     1.0  0.42849  0.64944  0.88232  1.0000
  H   H4459     1.0  0.42416  0.64161  0.87287  1.0000
  H   H4460     1.0  0.41298  0.65284  0.87980  1.0000
  H   H4461     1.0  0.38359  0.85601  0.91207  1.0000
  H   H4462     1.0  0.38110  0.59436  0.86917  1.0000
  C   C2644     1.0  0.49080  0.90975  0.81071  1.0000
  H   H4463     1.0  0.45547  0.80530  0.84187  1.0000
  H   H4464     1.0  0.45283  0.83689  0.85864  1.0000
  H   H4465     1.0  0.45610  0.83421  0.87932  1.0000
  C   C2645     1.0  0.36296  0.64018  0.79611  1.0000
  H   H4466     1.0  0.38484  0.86285  0.89053  1.0000
  H   H4467     1.0  0.38321  0.87597  0.89644  1.0000
  H   H4468     1.0  0.36154  0.84946  0.88364  1.0000
  H   H4469     1.0  0.31154  0.80711  0.91232  1.0000
  H   H4470     1.0  0.37308  0.84838  0.89189  1.0000
  H   H4471     1.0  0.37087  0.86813  0.91594  1.0000
  H   H4472     1.0  0.35433  0.86324  0.89860  1.0000
  N   N186      1.0  0.46168  0.81869  0.85518  1.0000
  C   C2646     1.0  0.46018  0.82903  0.86163  1.0000
  H   H4473     1.0  0.40746  0.86105  0.96295  1.0000
  H   H4474     1.0  0.46387  0.81857  0.87992  1.0000
  H   H4475     1.0  0.45010  0.82952  0.83396  1.0000
  H   H4476     1.0  0.49222  0.91991  0.78412  1.0000
  H   H4477     1.0  0.30367  0.50375  0.87182  1.0000
  C   C2647     1.0  0.37805  0.86915  0.89612  1.0000
  H   H4478     1.0  0.34232  0.81994  0.90071  1.0000
  H   H4479     1.0  0.45521  0.84142  0.83793  1.0000
  H   H4480     1.0  0.38273  0.61355  0.87260  1.0000
  C   C2648     1.0  0.36787  0.85463  0.88498  1.0000
  C   C2649     1.0  0.37493  0.86182  0.90940  1.0000
  H   H4481     1.0  0.35418  0.87943  0.90674  1.0000
  H   H4482     1.0  0.47164  0.79990  0.85512  1.0000
  C   C2650     1.0  0.46699  0.82293  0.84170  1.0000
  C   C2651     1.0  0.47029  0.80727  0.86030  1.0000
  H   H4483     1.0  0.36377  0.89005  0.90033  1.0000
  H   H4484     1.0  0.40164  0.62038  0.86581  1.0000
  H   H4485     1.0  0.38931  0.88798  0.87430  1.0000
  H   H4486     1.0  0.36173  0.65598  0.80991  1.0000
  N   N187      1.0  0.36718  0.87550  0.89018  1.0000
  C   C2652     1.0  0.35865  0.88446  0.89774  1.0000
  H   H4487     1.0  0.37434  0.85669  0.87609  1.0000
  H   H4488     1.0  0.46867  0.83292  0.85897  1.0000
  H   H4489     1.0  0.30444  0.86401  0.82446  1.0000
  H   H4490     1.0  0.37731  0.89953  0.86795  1.0000
  H   H4491     1.0  0.35343  0.87083  0.88331  1.0000
  H   H4492     1.0  0.36598  0.65699  0.82328  1.0000
  C   C2653     1.0  0.37187  0.88202  0.87728  1.0000
  C   C2654     1.0  0.34815  0.89335  0.89182  1.0000
  H   H4493     1.0  0.37817  0.87531  0.87187  1.0000
  H   H4494     1.0  0.47520  0.82691  0.84055  1.0000
  H   H4495     1.0  0.37684  0.89633  0.88397  1.0000
  H   H4496     1.0  0.35174  0.90007  0.88366  1.0000
  H   H4497     1.0  0.46622  0.80322  0.86995  1.0000
  H   H4498     1.0  0.35453  0.61786  0.76262  1.0000
  H   H4499     1.0  0.38890  0.52876  0.84314  1.0000
  H   H4500     1.0  0.32885  0.51344  0.90853  1.0000
  H   H4501     1.0  0.37381  0.60527  0.81638  1.0000
  C   C2655     1.0  0.37925  0.89196  0.87594  1.0000
  H   H4502     1.0  0.36429  0.88619  0.87215  1.0000
  H   H4503     1.0  0.39921  0.51212  0.82388  1.0000
  H   H4504     1.0  0.42568  0.60722  0.87340  1.0000
  C   C2656     1.0  0.40627  0.61210  0.87169  1.0000
  H   H4505     1.0  0.41825  0.56382  0.82404  1.0000
  H   H4506     1.0  0.42019  0.62325  0.86701  1.0000
  H   H4507     1.0  0.27224  0.91007  0.86116  1.0000
  H   H4508     1.0  0.35895  0.65001  0.79265  1.0000
  H   H4509     1.0  0.27233  0.92635  0.85498  1.0000
  C   C2657     1.0  0.41770  0.61513  0.87406  1.0000
  H   H4510     1.0  0.39989  0.51455  0.84420  1.0000
  H   H4511     1.0  0.41496  0.58630  0.81078  1.0000
  C   C2658     1.0  0.37560  0.58250  0.75767  1.0000
  H   H4512     1.0  0.43850  0.59863  0.80542  1.0000
  H   H4513     1.0  0.38317  0.63539  0.89206  1.0000
  C   C2659     1.0  0.43677  0.58988  0.81187  1.0000
  H   H4514     1.0  0.37245  0.61535  0.80192  1.0000
  C   C2660     1.0  0.38954  0.59440  0.87217  1.0000
  H   H4515     1.0  0.41966  0.84134  0.96032  1.0000
  H   H4516     1.0  0.34888  0.60220  0.75405  1.0000
  H   H4517     1.0  0.38263  0.57928  0.74990  1.0000
  H   H4518     1.0  0.45646  0.58215  0.81247  1.0000
  H   H4519     1.0  0.39687  0.59542  0.86379  1.0000
  H   H4520     1.0  0.39562  0.63401  0.87911  1.0000
  H   H4521     1.0  0.37889  0.60352  0.88682  1.0000
  H   H4522     1.0  0.42834  0.59279  0.81868  1.0000
  Fe  Fe382     1.0  0.33546  0.49844  0.84197  1.0000
  H   H4523     1.0  0.39292  0.51853  0.80444  1.0000
  H   H4524     1.0  0.36054  0.64381  0.82364  1.0000
  H   H4525     1.0  0.37964  0.64719  0.78943  1.0000
  H   H4526     1.0  0.39904  0.61627  0.89669  1.0000
  H   H4527     1.0  0.38233  0.53216  0.80054  1.0000
  H   H4528     1.0  0.47193  0.92508  0.79301  1.0000
  H   H4529     1.0  0.35784  0.63742  0.80559  1.0000
  H   H4530     1.0  0.41620  0.61763  0.88306  1.0000
  C   C2661     1.0  0.38780  0.62981  0.88495  1.0000
  C   C2662     1.0  0.40407  0.59539  0.88973  1.0000
  C   C2663     1.0  0.37709  0.63836  0.79469  1.0000
  H   H4531     1.0  0.38833  0.58624  0.89913  1.0000
  C   C2664     1.0  0.48680  0.90005  0.80637  1.0000
  H   H4532     1.0  0.43361  0.83763  0.96583  1.0000
  H   H4533     1.0  0.40866  0.58879  0.88350  1.0000
  H   H4534     1.0  0.42525  0.59763  0.78381  1.0000
  H   H4535     1.0  0.42306  0.57515  0.82879  1.0000
  H   H4536     1.0  0.45740  0.86114  0.87457  1.0000
  C   C2665     1.0  0.42640  0.56666  0.82509  1.0000
  H   H4537     1.0  0.42198  0.60549  0.79645  1.0000
  H   H4538     1.0  0.25180  0.91797  0.86469  1.0000
  C   C2666     1.0  0.41990  0.59809  0.79328  1.0000
  H   H4539     1.0  0.43077  0.55957  0.83219  1.0000
  H   H4540     1.0  0.38102  0.63066  0.87928  1.0000
  H   H4541     1.0  0.39260  0.59428  0.90850  1.0000
  S   S766      1.0  0.47113  0.60416  0.82635  1.0000
  H   H4542     1.0  0.41978  0.57859  0.79848  1.0000
  H   H4543     1.0  0.40310  0.52626  0.82302  1.0000
  H   H4544     1.0  0.31535  0.51236  0.86265  1.0000
  N   N188      1.0  0.43481  0.58112  0.80511  1.0000
  H   H4545     1.0  0.44527  0.56413  0.81442  1.0000
  H   H4546     1.0  0.44575  0.57758  0.82673  1.0000
  Fe  Fe383     1.0  0.48322  0.61729  0.82530  1.0000
  C   C2667     1.0  0.44759  0.58515  0.81866  1.0000
  C   C2668     1.0  0.44465  0.58096  0.79353  1.0000
  H   H4547     1.0  0.44486  0.59044  0.78820  1.0000
  H   H4548     1.0  0.44492  0.56352  0.78854  1.0000
  H   H4549     1.0  0.44871  0.59277  0.82230  1.0000
  C   C2669     1.0  0.36617  0.65040  0.81763  1.0000
  H   H4550     1.0  0.37479  0.61908  0.74592  1.0000
  H   H4551     1.0  0.45097  0.57481  0.77621  1.0000
  H   H4552     1.0  0.41848  0.85171  0.97790  1.0000
  C   C2670     1.0  0.44355  0.57355  0.78458  1.0000
  H   H4553     1.0  0.45399  0.57728  0.79573  1.0000
  H   H4554     1.0  0.36966  0.55929  0.81626  1.0000
  H   H4555     1.0  0.32718  0.49381  0.90449  1.0000
  H   H4556     1.0  0.27012  0.84873  0.83595  1.0000
  H   H4557     1.0  0.38658  0.84757  0.97845  1.0000
  H   H4558     1.0  0.30032  0.52015  0.86864  1.0000
  H   H4559     1.0  0.35275  0.49526  0.87773  1.0000
  H   H4560     1.0  0.36935  0.52352  0.83329  1.0000
  H   H4561     1.0  0.43471  0.57685  0.78139  1.0000
  C   C2671     1.0  0.26773  0.91695  0.84273  1.0000
  H   H4562     1.0  0.37958  0.57852  0.76605  1.0000
  C   C2672     1.0  0.39788  0.86049  0.96788  1.0000
  H   H4563     1.0  0.40131  0.54185  0.80369  1.0000
  C   C2673     1.0  0.38980  0.52816  0.80587  1.0000
  H   H4564     1.0  0.37797  0.55249  0.80348  1.0000
  H   H4565     1.0  0.34647  0.62442  0.75006  1.0000
  H   H4566     1.0  0.38275  0.50274  0.83036  1.0000
  H   H4567     1.0  0.26018  0.93993  0.83754  1.0000
  H   H4568     1.0  0.47498  0.94010  0.78917  1.0000
  C   C2674     1.0  0.24819  0.91620  0.85737  1.0000
  H   H4569     1.0  0.40022  0.53883  0.78978  1.0000
  H   H4570     1.0  0.48706  0.94255  0.80711  1.0000
  H   H4571     1.0  0.31347  0.84991  0.83112  1.0000
  H   H4572     1.0  0.25216  0.93804  0.85303  1.0000
  H   H4573     1.0  0.38097  0.59949  0.75628  1.0000
  C   C2675     1.0  0.37650  0.50831  0.82412  1.0000
  H   H4574     1.0  0.25057  0.90604  0.85818  1.0000
  H   H4575     1.0  0.47950  0.89628  0.81377  1.0000
  H   H4576     1.0  0.48923  0.63424  0.84230  1.0000
  H   H4577     1.0  0.40974  0.52752  0.79954  1.0000
  C   C2676     1.0  0.35524  0.62322  0.75303  1.0000
  C   C2677     1.0  0.41731  0.84201  0.97991  1.0000
  H   H4578     1.0  0.49607  0.90465  0.81800  1.0000
  H   H4579     1.0  0.39897  0.84159  0.96750  1.0000
  N   N189      1.0  0.25407  0.92252  0.84476  1.0000
  H   H4580     1.0  0.38008  0.50621  0.81481  1.0000
  H   H4581     1.0  0.33925  0.51036  0.89466  1.0000
  H   H4582     1.0  0.48542  0.93056  0.82112  1.0000
  H   H4583     1.0  0.39442  0.59497  0.73866  1.0000
  C   C2678     1.0  0.39525  0.52140  0.82611  1.0000
  H   H4584     1.0  0.29711  0.49474  0.89334  1.0000
  H   H4585     1.0  0.48848  0.81145  0.85039  1.0000
  C   C2679     1.0  0.35546  0.60086  0.74524  1.0000
  H   H4586     1.0  0.47423  0.93178  0.80459  1.0000
  C   C2680     1.0  0.49142  0.92561  0.79090  1.0000
  H   H4587     1.0  0.25014  0.92349  0.81532  1.0000
  C   C2681     1.0  0.32932  0.51272  0.89896  1.0000
  H   H4588     1.0  0.31325  0.50477  0.90549  1.0000
  H   H4589     1.0  0.48298  0.90393  0.79794  1.0000
  H   H4590     1.0  0.48308  0.81585  0.86521  1.0000
  C   C2682     1.0  0.34425  0.49142  0.88104  1.0000
  C   C2683     1.0  0.24905  0.91965  0.83516  1.0000
  H   H4591     1.0  0.35659  0.59089  0.74548  1.0000
  H   H4592     1.0  0.24927  0.90960  0.83696  1.0000
  H   H4593     1.0  0.26455  0.91630  0.81970  1.0000
  C   C2684     1.0  0.25596  0.92329  0.82174  1.0000
  H   H4594     1.0  0.49583  0.93353  0.78563  1.0000
  S   S767      1.0  0.33704  0.49117  0.82514  1.0000
  S   S768      1.0  0.41827  0.63801  0.73740  1.0000
  C   C2685     1.0  0.36640  0.61735  0.74406  1.0000
  H   H4595     1.0  0.32445  0.49109  0.79853  1.0000
  H   H4596     1.0  0.33888  0.60928  0.73762  1.0000
  H   H4597     1.0  0.33094  0.88159  0.98319  1.0000
  H   H4598     1.0  0.49423  0.64771  0.80431  1.0000
  N   N190      1.0  0.40393  0.84127  0.98458  1.0000
  H   H4599     1.0  0.36580  0.62293  0.73473  1.0000
  H   H4600     1.0  0.53560  0.41485  0.16082  1.0000
  S   S769      1.0  0.60303  0.36674  0.20874  1.0000
  Fe  Fe384     1.0  0.57256  0.38355  0.19686  1.0000
  S   S770      1.0  0.58914  0.37386  0.18527  1.0000
  S   S771      1.0  0.55831  0.39487  0.18556  1.0000
  Fe  Fe385     1.0  0.59042  0.35902  0.20202  1.0000
  S   S772      1.0  0.59480  0.33939  0.19959  1.0000
  Fe  Fe386     1.0  0.60002  0.38251  0.19284  1.0000
  S   S773      1.0  0.61457  0.39208  0.17984  1.0000
  H   H4601     1.0  0.61962  0.47757  0.14140  1.0000
  S   S774      1.0  0.58345  0.39331  0.20346  1.0000
  S   S775      1.0  0.50827  0.39300  0.11751  1.0000
  Fe  Fe387     1.0  0.51671  0.38010  0.14988  1.0000
  S   S776      1.0  0.53056  0.38650  0.13321  1.0000
  S   S777      1.0  0.52135  0.37290  0.16885  1.0000
  Fe  Fe388     1.0  0.51494  0.40212  0.12893  1.0000
  S   S778      1.0  0.51755  0.42171  0.12278  1.0000
  Fe  Fe389     1.0  0.52268  0.37678  0.12346  1.0000
  S   S779      1.0  0.53447  0.36610  0.10940  1.0000
  S   S780      1.0  0.51040  0.36860  0.14049  1.0000
  Fe  Fe390     1.0  0.61197  0.32740  0.13281  1.0000
  S   S781      1.0  0.62149  0.32978  0.11284  1.0000
  S   S782      1.0  0.62209  0.32735  0.14722  1.0000
  Fe  Fe391     1.0  0.58853  0.32447  0.12753  1.0000
  S   S783      1.0  0.59584  0.32705  0.10714  1.0000
  S   S784      1.0  0.56946  0.32116  0.13621  1.0000
  Fe  Fe392     1.0  0.61298  0.31428  0.11224  1.0000
  S   S785      1.0  0.62267  0.29658  0.10532  1.0000
  Fe  Fe393     1.0  0.60342  0.34234  0.10965  1.0000
  S   S786      1.0  0.59982  0.36177  0.09824  1.0000
  S   S787      1.0  0.60516  0.31087  0.13262  1.0000
  S   S788      1.0  0.59450  0.34068  0.12967  1.0000
  Fe  Fe394     1.0  0.59372  0.43552  0.12688  1.0000
  S   S789      1.0  0.61339  0.43508  0.11706  1.0000
  S   S790      1.0  0.58650  0.43758  0.14645  1.0000
  Fe  Fe395     1.0  0.58509  0.43522  0.10433  1.0000
  S   S791      1.0  0.60392  0.43548  0.09223  1.0000
  S   S792      1.0  0.56923  0.43526  0.09619  1.0000
  Fe  Fe396     1.0  0.61033  0.42113  0.10801  1.0000
  S   S793      1.0  0.62348  0.40298  0.10576  1.0000
  Fe  Fe397     1.0  0.60525  0.44945  0.10225  1.0000
  S   S794      1.0  0.61002  0.46840  0.09385  1.0000
  S   S795      1.0  0.59141  0.42019  0.11952  1.0000
  S   S796      1.0  0.58563  0.45053  0.11273  1.0000
  H   H4602     1.0  0.60118  0.40438  0.23095  1.0000
  S   S797      1.0  0.72353  0.11641  0.13545  1.0000
  Fe  Fe398     1.0  0.63116  0.15782  0.00707  1.0000
  H   H4603     1.0  0.63385  0.26171  0.00835  1.0000
  S   S798      1.0  0.64989  0.15236  0.01180  1.0000
  Fe  Fe399     1.0  0.60591  0.15224  0.01213  1.0000
  S   S799      1.0  0.59915  0.16955  0.99930  1.0000
  S   S800      1.0  0.59293  0.13922  0.02050  1.0000
  H   H4604     1.0  0.51334  0.09394  0.16576  1.0000
  Fe  Fe400     1.0  0.60886  0.17872  0.00792  1.0000
  S   S801      1.0  0.59789  0.19580  0.01530  1.0000
  H   H4605     1.0  0.51742  0.41969  0.15211  1.0000
  S   S802      1.0  0.61428  0.16158  0.02175  1.0000
  Fe  Fe401     1.0  0.61113  0.23060  0.05944  1.0000
  S   S803      1.0  0.60536  0.21637  0.07595  1.0000
  S   S804      1.0  0.62009  0.22588  0.04065  1.0000
  Fe  Fe402     1.0  0.60498  0.25073  0.07460  1.0000
  S   S805      1.0  0.59864  0.23797  0.09227  1.0000
  S   S806      1.0  0.60311  0.27138  0.07282  1.0000
  Fe  Fe403     1.0  0.61516  0.22404  0.08570  1.0000
  S   S807      1.0  0.62536  0.20996  0.09918  1.0000
  Fe  Fe404     1.0  0.58935  0.23129  0.08114  1.0000
  S   S808      1.0  0.57095  0.22630  0.08989  1.0000
  S   S809      1.0  0.62243  0.23726  0.06881  1.0000
  S   S810      1.0  0.59417  0.24513  0.06382  1.0000
  Fe  Fe405     1.0  0.65879  0.12930  0.07715  1.0000
  S   S811      1.0  0.66330  0.11803  0.09510  1.0000
  S   S812      1.0  0.64992  0.12177  0.06621  1.0000
  Fe  Fe406     1.0  0.66475  0.15204  0.08078  1.0000
  S   S813      1.0  0.66964  0.14298  0.09919  1.0000
  S   S814      1.0  0.66478  0.17164  0.07094  1.0000
  Fe  Fe407     1.0  0.67964  0.12701  0.09021  1.0000
  S   S815      1.0  0.69834  0.11535  0.09289  1.0000
  Fe  Fe408     1.0  0.65299  0.13472  0.10269  1.0000
  S   S816      1.0  0.64019  0.13224  0.12118  1.0000
  S   S817      1.0  0.67612  0.13673  0.07134  1.0000
  S   S818      1.0  0.64716  0.14534  0.08523  1.0000
  Fe  Fe409     1.0  0.54758  0.14696  0.10562  1.0000
  S   S819      1.0  0.55365  0.15001  0.08507  1.0000
  S   S820      1.0  0.52796  0.14647  0.11602  1.0000
  Fe  Fe410     1.0  0.57310  0.14657  0.10927  1.0000
  S   S821      1.0  0.58150  0.14934  0.08913  1.0000
  S   S822      1.0  0.58251  0.14559  0.12451  1.0000
  Fe  Fe411     1.0  0.56401  0.16326  0.08697  1.0000
  S   S823      1.0  0.56600  0.18036  0.07246  1.0000
  Fe  Fe412     1.0  0.57056  0.13591  0.08886  1.0000
  S   S824      1.0  0.57797  0.12094  0.07808  1.0000
  S   S825      1.0  0.55641  0.16170  0.10717  1.0000
  S   S826      1.0  0.56373  0.13165  0.10936  1.0000
  C   C2686     1.0  0.62426  0.13552  0.12151  1.0000
  C   C2687     1.0  0.61613  0.13541  0.13292  1.0000
  C   C2688     1.0  0.60337  0.13832  0.13365  1.0000
  C   C2689     1.0  0.59859  0.14127  0.12299  1.0000
  C   C2690     1.0  0.60667  0.14131  0.11152  1.0000
  C   C2691     1.0  0.61953  0.13839  0.11078  1.0000
  H   H4606     1.0  0.61970  0.13322  0.14124  1.0000
  H   H4607     1.0  0.59717  0.13836  0.14253  1.0000
  H   H4608     1.0  0.60299  0.14414  0.10325  1.0000
  H   H4609     1.0  0.62573  0.13850  0.10193  1.0000
  C   C2692     1.0  0.56965  0.21347  0.08510  1.0000
  C   C2693     1.0  0.57578  0.21136  0.07339  1.0000
  C   C2694     1.0  0.57450  0.20123  0.06953  1.0000
  C   C2695     1.0  0.56748  0.19292  0.07754  1.0000
  C   C2696     1.0  0.56159  0.19486  0.08936  1.0000
  C   C2697     1.0  0.56249  0.20526  0.09305  1.0000
  H   H4610     1.0  0.58122  0.21774  0.06718  1.0000
  H   H4611     1.0  0.57898  0.19983  0.06034  1.0000
  H   H4612     1.0  0.55603  0.18857  0.09552  1.0000
  H   H4613     1.0  0.55770  0.20691  0.10209  1.0000
  C   C2698     1.0  0.63686  0.19947  0.09159  1.0000
  C   C2699     1.0  0.63995  0.18717  0.09765  1.0000
  C   C2700     1.0  0.64848  0.17851  0.09135  1.0000
  C   C2701     1.0  0.65430  0.18229  0.07911  1.0000
  C   C2702     1.0  0.65159  0.19469  0.07322  1.0000
  C   C2703     1.0  0.64272  0.20323  0.07938  1.0000
  H   H4614     1.0  0.63567  0.18434  0.10717  1.0000
  H   H4615     1.0  0.65065  0.16898  0.09599  1.0000
  H   H4616     1.0  0.65618  0.19765  0.06380  1.0000
  H   H4617     1.0  0.64048  0.21274  0.07471  1.0000
  C   C2704     1.0  0.60431  0.20387  0.02243  1.0000
  C   C2705     1.0  0.59689  0.20915  0.03234  1.0000
  C   C2706     1.0  0.60167  0.21572  0.03815  1.0000
  C   C2707     1.0  0.61380  0.21742  0.03382  1.0000
  C   C2708     1.0  0.62114  0.21240  0.02373  1.0000
  C   C2709     1.0  0.61647  0.20553  0.01814  1.0000
  H   H4618     1.0  0.58743  0.20810  0.03563  1.0000
  H   H4619     1.0  0.59590  0.21961  0.04585  1.0000
  H   H4620     1.0  0.63052  0.21373  0.02027  1.0000
  H   H4621     1.0  0.62222  0.20169  0.01038  1.0000
  C   C2710     1.0  0.58243  0.12631  0.06216  1.0000
  C   C2711     1.0  0.58712  0.13711  0.05735  1.0000
  C   C2712     1.0  0.59097  0.14091  0.04452  1.0000
  C   C2713     1.0  0.58956  0.13422  0.03656  1.0000
  C   C2714     1.0  0.58479  0.12353  0.04143  1.0000
  C   C2715     1.0  0.58148  0.11946  0.05418  1.0000
  H   H4622     1.0  0.58791  0.14242  0.06349  1.0000
  H   H4623     1.0  0.59471  0.14914  0.04081  1.0000
  H   H4624     1.0  0.58371  0.11832  0.03532  1.0000
  H   H4625     1.0  0.57790  0.11110  0.05786  1.0000
  C   C2716     1.0  0.65005  0.14354  0.02676  1.0000
  C   C2717     1.0  0.65919  0.14365  0.03277  1.0000
  C   C2718     1.0  0.65916  0.13704  0.04492  1.0000
  C   C2719     1.0  0.65029  0.12992  0.05091  1.0000
  C   C2720     1.0  0.64133  0.12959  0.04480  1.0000
  C   C2721     1.0  0.64105  0.13659  0.03283  1.0000
  H   H4626     1.0  0.66617  0.14901  0.02809  1.0000
  H   H4627     1.0  0.66613  0.13731  0.04954  1.0000
  H   H4628     1.0  0.63453  0.12400  0.04932  1.0000
  H   H4629     1.0  0.63404  0.13639  0.02820  1.0000
  C   C2722     1.0  0.71652  0.11609  0.12365  1.0000
  C   C2723     1.0  0.70577  0.12481  0.12152  1.0000
  C   C2724     1.0  0.70003  0.12468  0.11215  1.0000
  C   C2725     1.0  0.70499  0.11576  0.10492  1.0000
  C   C2726     1.0  0.71568  0.10701  0.10713  1.0000
  C   C2727     1.0  0.72144  0.10717  0.11645  1.0000
  H   H4630     1.0  0.70196  0.13175  0.12705  1.0000
  H   H4631     1.0  0.69186  0.13154  0.11044  1.0000
  H   H4632     1.0  0.71954  0.10005  0.10161  1.0000
  H   H4633     1.0  0.72958  0.10027  0.11818  1.0000
  C   C2728     1.0  0.50652  0.12098  0.10975  1.0000
  C   C2729     1.0  0.51886  0.12065  0.10359  1.0000
  C   C2730     1.0  0.52574  0.12815  0.10567  1.0000
  C   C2731     1.0  0.52033  0.13587  0.11409  1.0000
  C   C2732     1.0  0.50818  0.13578  0.12062  1.0000
  H   H4634     1.0  0.74062  0.15406  0.07890  1.0000
  H   H4635     1.0  0.52304  0.11479  0.09697  1.0000
  H   H4636     1.0  0.53513  0.12813  0.10062  1.0000
  H   H4637     1.0  0.58215  0.41538  0.21491  1.0000
  C   C2733     1.0  0.62034  0.47421  0.09880  1.0000
  C   C2734     1.0  0.64089  0.47296  0.10178  1.0000
  C   C2735     1.0  0.63226  0.46746  0.09957  1.0000
  H   H4638     1.0  0.65018  0.46775  0.10206  1.0000
  H   H4639     1.0  0.63497  0.45814  0.09804  1.0000
  C   C2736     1.0  0.61709  0.28972  0.09625  1.0000
  C   C2737     1.0  0.60925  0.29672  0.08831  1.0000
  C   C2738     1.0  0.60518  0.29097  0.08111  1.0000
  C   C2739     1.0  0.60875  0.27815  0.08189  1.0000
  C   C2740     1.0  0.61653  0.27113  0.08989  1.0000
  C   C2741     1.0  0.62076  0.27692  0.09695  1.0000
  H   H4640     1.0  0.60649  0.30660  0.08755  1.0000
  H   H4641     1.0  0.59923  0.29648  0.07490  1.0000
  H   H4642     1.0  0.61938  0.26127  0.09057  1.0000
  H   H4643     1.0  0.62689  0.27143  0.10299  1.0000
  C   C2742     1.0  0.60668  0.37307  0.10025  1.0000
  C   C2743     1.0  0.61805  0.36993  0.10385  1.0000
  C   C2744     1.0  0.62328  0.37919  0.10525  1.0000
  C   C2745     1.0  0.61705  0.39159  0.10334  1.0000
  C   C2746     1.0  0.60567  0.39470  0.09980  1.0000
  C   C2747     1.0  0.60065  0.38551  0.09803  1.0000
  H   H4644     1.0  0.62289  0.36041  0.10540  1.0000
  H   H4645     1.0  0.63213  0.37673  0.10790  1.0000
  H   H4646     1.0  0.60086  0.40423  0.09816  1.0000
  H   H4647     1.0  0.59207  0.38808  0.09493  1.0000
  C   C2748     1.0  0.53224  0.42531  0.11660  1.0000
  C   C2749     1.0  0.53290  0.43663  0.10846  1.0000
  C   C2750     1.0  0.54431  0.43981  0.10279  1.0000
  C   C2751     1.0  0.55522  0.43195  0.10555  1.0000
  C   C2752     1.0  0.55465  0.42080  0.11418  1.0000
  C   C2753     1.0  0.54314  0.41739  0.11958  1.0000
  H   H4648     1.0  0.52454  0.44281  0.10616  1.0000
  H   H4649     1.0  0.54469  0.44831  0.09599  1.0000
  H   H4650     1.0  0.56309  0.41456  0.11614  1.0000
  H   H4651     1.0  0.54269  0.40867  0.12595  1.0000
  C   C2754     1.0  0.54394  0.35343  0.11688  1.0000
  C   C2755     1.0  0.53887  0.34476  0.12662  1.0000
  C   C2756     1.0  0.54668  0.33459  0.13243  1.0000
  C   C2757     1.0  0.55949  0.33341  0.12879  1.0000
  C   C2758     1.0  0.56444  0.34230  0.11932  1.0000
  C   C2759     1.0  0.55670  0.35215  0.11325  1.0000
  H   H4652     1.0  0.52897  0.34587  0.12962  1.0000
  H   H4653     1.0  0.54281  0.32781  0.13988  1.0000
  H   H4654     1.0  0.57424  0.34178  0.11673  1.0000
  H   H4655     1.0  0.56068  0.35894  0.10598  1.0000
  C   C2760     1.0  0.54897  0.38770  0.18082  1.0000
  C   C2761     1.0  0.54757  0.39110  0.16855  1.0000
  C   C2762     1.0  0.53894  0.38688  0.16481  1.0000
  C   C2763     1.0  0.53176  0.37902  0.17333  1.0000
  C   C2764     1.0  0.53342  0.37533  0.18554  1.0000
  C   C2765     1.0  0.54195  0.37969  0.18929  1.0000
  H   H4656     1.0  0.55311  0.39710  0.16193  1.0000
  H   H4657     1.0  0.53787  0.38967  0.15536  1.0000
  H   H4658     1.0  0.52795  0.36921  0.19218  1.0000
  H   H4659     1.0  0.54283  0.37713  0.19882  1.0000
  C   C2766     1.0  0.60688  0.40510  0.17085  1.0000
  C   C2767     1.0  0.61341  0.41354  0.16235  1.0000
  C   C2768     1.0  0.60720  0.42357  0.15473  1.0000
  C   C2769     1.0  0.59441  0.42540  0.15602  1.0000
  C   C2770     1.0  0.58787  0.41721  0.16480  1.0000
  C   C2771     1.0  0.59414  0.40696  0.17200  1.0000
  H   H4660     1.0  0.62330  0.41206  0.16134  1.0000
  H   H4661     1.0  0.61234  0.42973  0.14776  1.0000
  H   H4662     1.0  0.57801  0.41851  0.16579  1.0000
  H   H4663     1.0  0.58904  0.40037  0.17822  1.0000
  C   C2772     1.0  0.60227  0.33660  0.18479  1.0000
  C   C2773     1.0  0.59797  0.34358  0.17419  1.0000
  C   C2774     1.0  0.60354  0.34040  0.16266  1.0000
  C   C2775     1.0  0.61383  0.33068  0.16161  1.0000
  C   C2776     1.0  0.61826  0.32395  0.17217  1.0000
  C   C2777     1.0  0.61232  0.32669  0.18373  1.0000
  H   H4664     1.0  0.59023  0.35124  0.17495  1.0000
  H   H4665     1.0  0.60007  0.34562  0.15454  1.0000
  H   H4666     1.0  0.62626  0.31649  0.17145  1.0000
  H   H4667     1.0  0.61566  0.32122  0.19187  1.0000
  C   C2778     1.0  0.55786  0.19256  0.02608  1.0000
  C   C2779     1.0  0.57309  0.17351  0.02488  1.0000
  C   C2780     1.0  0.56644  0.16815  0.01808  1.0000
  H   H4668     1.0  0.56438  0.19696  0.01814  1.0000
  H   H4669     1.0  0.55140  0.18990  0.02202  1.0000
  H   H4670     1.0  0.57944  0.17892  0.01781  1.0000
  H   H4671     1.0  0.57639  0.19376  0.03322  1.0000
  H   H4672     1.0  0.54293  0.19944  0.04083  1.0000
  H   H4673     1.0  0.57342  0.16174  0.01274  1.0000
  H   H4674     1.0  0.56177  0.17542  0.01135  1.0000
  N   N191      1.0  0.55653  0.39696  0.08945  1.0000
  C   C2781     1.0  0.55878  0.40962  0.08823  1.0000
  C   C2782     1.0  0.55496  0.39059  0.10286  1.0000
  C   C2783     1.0  0.54493  0.39780  0.08513  1.0000
  C   C2784     1.0  0.56734  0.38996  0.08163  1.0000
  C   C2785     1.0  0.55995  0.41786  0.07520  1.0000
  C   C2786     1.0  0.56664  0.38672  0.10836  1.0000
  C   C2787     1.0  0.53321  0.40630  0.09089  1.0000
  C   C2788     1.0  0.56741  0.37619  0.08294  1.0000
  H   H4675     1.0  0.55131  0.41481  0.09438  1.0000
  H   H4676     1.0  0.56741  0.40905  0.09125  1.0000
  H   H4677     1.0  0.55118  0.38219  0.10460  1.0000
  H   H4678     1.0  0.54803  0.39660  0.10867  1.0000
  H   H4679     1.0  0.54627  0.40086  0.07494  1.0000
  H   H4680     1.0  0.54258  0.38858  0.08715  1.0000
  H   H4681     1.0  0.56785  0.39430  0.07171  1.0000
  H   H4682     1.0  0.57616  0.39050  0.08362  1.0000
  H   H4683     1.0  0.56084  0.42709  0.07579  1.0000
  H   H4684     1.0  0.56840  0.41422  0.06883  1.0000
  H   H4685     1.0  0.55171  0.41933  0.07126  1.0000
  H   H4686     1.0  0.57354  0.37933  0.10432  1.0000
  H   H4687     1.0  0.57092  0.39459  0.10745  1.0000
  H   H4688     1.0  0.56404  0.38286  0.11837  1.0000
  H   H4689     1.0  0.53383  0.41616  0.08799  1.0000
  H   H4690     1.0  0.53107  0.40371  0.10108  1.0000
  H   H4691     1.0  0.52518  0.40545  0.08771  1.0000
  H   H4692     1.0  0.56947  0.37402  0.07365  1.0000
  H   H4693     1.0  0.55861  0.37340  0.08791  1.0000
  H   H4694     1.0  0.57497  0.37024  0.08750  1.0000
  H   H4695     1.0  0.59182  0.47909  0.11731  1.0000
  C   C2789     1.0  0.72151  0.14371  0.08928  1.0000
  H   H4696     1.0  0.60700  0.45153  0.13811  1.0000
  H   H4697     1.0  0.55074  0.18048  0.05039  1.0000
  C   C2790     1.0  0.61056  0.27027  0.04141  1.0000
  C   C2791     1.0  0.71357  0.14715  0.07940  1.0000
  C   C2792     1.0  0.59498  0.47176  0.12497  1.0000
  H   H4698     1.0  0.71645  0.13833  0.09768  1.0000
  H   H4699     1.0  0.72135  0.15253  0.09167  1.0000
  H   H4700     1.0  0.54710  0.28932  0.12935  1.0000
  C   C2793     1.0  0.50904  0.34008  0.10222  1.0000
  H   H4701     1.0  0.50421  0.33224  0.10512  1.0000
  H   H4702     1.0  0.50398  0.14171  0.12717  1.0000
  H   H4703     1.0  0.60745  0.24607  0.01662  1.0000
  H   H4704     1.0  0.59266  0.48526  0.13559  1.0000
  H   H4705     1.0  0.71737  0.15340  0.07096  1.0000
  H   H4706     1.0  0.71217  0.13895  0.07696  1.0000
  H   H4707     1.0  0.70422  0.15216  0.08318  1.0000
  H   H4708     1.0  0.56083  0.13281  0.00298  1.0000
  H   H4709     1.0  0.51395  0.33952  0.09259  1.0000
  H   H4710     1.0  0.52732  0.33090  0.10576  1.0000
  H   H4711     1.0  0.64196  0.16689  0.06475  1.0000
  H   H4712     1.0  0.57385  0.31711  0.11066  1.0000
  H   H4713     1.0  0.56978  0.28060  0.13242  1.0000
  H   H4714     1.0  0.57955  0.28220  0.09123  1.0000
  H   H4715     1.0  0.61930  0.20120  0.05720  1.0000
  H   H4716     1.0  0.65543  0.10973  0.15388  1.0000
  C   C2794     1.0  0.56685  0.28857  0.12516  1.0000
  C   C2795     1.0  0.57384  0.30074  0.10405  1.0000
  H   H4717     1.0  0.55895  0.31287  0.11463  1.0000
  H   H4718     1.0  0.61676  0.36199  0.16934  1.0000
  H   H4719     1.0  0.53572  0.43474  0.18192  1.0000
  C   C2796     1.0  0.59949  0.40742  0.22144  1.0000
  H   H4720     1.0  0.53403  0.44611  0.13894  1.0000
  H   H4721     1.0  0.61301  0.13360  0.06064  1.0000
  H   H4722     1.0  0.62950  0.27700  0.00016  1.0000
  H   H4723     1.0  0.52387  0.43047  0.17773  1.0000
  H   H4724     1.0  0.58697  0.46765  0.13030  1.0000
  H   H4725     1.0  0.62642  0.12256  0.08844  1.0000
  H   H4726     1.0  0.54926  0.45550  0.14360  1.0000
  H   H4727     1.0  0.63704  0.10926  0.10411  1.0000
  H   H4728     1.0  0.60681  0.13643  0.07578  1.0000
  H   H4729     1.0  0.60219  0.46475  0.12064  1.0000
  C   C2797     1.0  0.53551  0.42212  0.15230  1.0000
  H   H4730     1.0  0.52853  0.44493  0.16003  1.0000
  N   N192      1.0  0.54295  0.43134  0.15187  1.0000
  N   N193      1.0  0.55853  0.34502  0.16529  1.0000
  C   C2798     1.0  0.55088  0.33714  0.16327  1.0000
  C   C2799     1.0  0.57197  0.33916  0.16179  1.0000
  C   C2800     1.0  0.55622  0.35781  0.15743  1.0000
  C   C2801     1.0  0.55497  0.34599  0.17864  1.0000
  C   C2802     1.0  0.53693  0.34261  0.16456  1.0000
  C   C2803     1.0  0.57633  0.32643  0.16971  1.0000
  C   C2804     1.0  0.55832  0.35864  0.14346  1.0000
  C   C2805     1.0  0.56350  0.35163  0.18305  1.0000
  H   H4731     1.0  0.55435  0.33480  0.15406  1.0000
  H   H4732     1.0  0.55174  0.32811  0.16989  1.0000
  H   H4733     1.0  0.57792  0.34536  0.16186  1.0000
  H   H4734     1.0  0.57425  0.33773  0.15220  1.0000
  H   H4735     1.0  0.54664  0.36270  0.16037  1.0000
  H   H4736     1.0  0.56209  0.36355  0.15859  1.0000
  H   H4737     1.0  0.54547  0.35159  0.18073  1.0000
  H   H4738     1.0  0.55470  0.33669  0.18467  1.0000
  H   H4739     1.0  0.53231  0.33570  0.16347  1.0000
  H   H4740     1.0  0.53258  0.34484  0.17373  1.0000
  H   H4741     1.0  0.53491  0.35089  0.15728  1.0000
  H   H4742     1.0  0.57180  0.31937  0.16881  1.0000
  H   H4743     1.0  0.58640  0.32331  0.16635  1.0000
  H   H4744     1.0  0.57502  0.32665  0.17954  1.0000
  H   H4745     1.0  0.55609  0.36849  0.13884  1.0000
  H   H4746     1.0  0.55213  0.35399  0.14121  1.0000
  H   H4747     1.0  0.56804  0.35501  0.13937  1.0000
  H   H4748     1.0  0.55793  0.35648  0.19050  1.0000
  H   H4749     1.0  0.56809  0.35844  0.17588  1.0000
  H   H4750     1.0  0.57042  0.34431  0.18747  1.0000
  H   H4751     1.0  0.62582  0.15266  0.07369  1.0000
  N   N194      1.0  0.61743  0.26473  0.03034  1.0000
  C   C2806     1.0  0.64374  0.17886  0.02750  1.0000
  H   H4752     1.0  0.64480  0.09459  0.15145  1.0000
  H   H4753     1.0  0.61606  0.27585  0.04352  1.0000
  H   H4754     1.0  0.73415  0.12828  0.07105  1.0000
  H   H4755     1.0  0.60999  0.18529  0.06534  1.0000
  H   H4756     1.0  0.63289  0.36091  0.16706  1.0000
  H   H4757     1.0  0.73469  0.12595  0.10424  1.0000
  C   C2807     1.0  0.58333  0.27857  0.10982  1.0000
  H   H4758     1.0  0.51661  0.43216  0.15902  1.0000
  H   H4759     1.0  0.63276  0.20503  0.05850  1.0000
  H   H4760     1.0  0.56182  0.44475  0.13636  1.0000
  C   C2808     1.0  0.60284  0.11818  0.09581  1.0000
  H   H4761     1.0  0.59426  0.29726  0.11116  1.0000
  C   C2809     1.0  0.62179  0.40208  0.21436  1.0000
  H   H4762     1.0  0.59317  0.27848  0.10528  1.0000
  H   H4763     1.0  0.50714  0.14645  0.09500  1.0000
  H   H4764     1.0  0.59385  0.09980  0.09235  1.0000
  H   H4765     1.0  0.52094  0.43367  0.14241  1.0000
  H   H4766     1.0  0.61827  0.41277  0.19299  1.0000
  H   H4767     1.0  0.56769  0.27603  0.10331  1.0000
  C   C2810     1.0  0.55553  0.17493  0.04324  1.0000
  H   H4768     1.0  0.58790  0.46102  0.14996  1.0000
  H   H4769     1.0  0.55547  0.41738  0.16217  1.0000
  H   H4770     1.0  0.49886  0.37167  0.09977  1.0000
  H   H4771     1.0  0.63233  0.45592  0.13537  1.0000
  H   H4772     1.0  0.74479  0.13828  0.11155  1.0000
  H   H4773     1.0  0.59589  0.11837  0.11533  1.0000
  C   C2811     1.0  0.61418  0.25142  0.01676  1.0000
  H   H4774     1.0  0.72540  0.12245  0.08551  1.0000
  H   H4775     1.0  0.50051  0.10619  0.16939  1.0000
  H   H4776     1.0  0.63030  0.40576  0.20975  1.0000
  H   H4777     1.0  0.58297  0.30165  0.12382  1.0000
  H   H4778     1.0  0.60657  0.43375  0.19193  1.0000
  C   C2812     1.0  0.61403  0.09778  0.09021  1.0000
  H   H4779     1.0  0.59736  0.48443  0.16202  1.0000
  H   H4780     1.0  0.64616  0.18659  0.05219  1.0000
  H   H4781     1.0  0.60137  0.19064  0.05368  1.0000
  H   H4782     1.0  0.59473  0.28369  0.04826  1.0000
  H   H4783     1.0  0.60283  0.08475  0.09116  1.0000
  H   H4784     1.0  0.63213  0.48901  0.06155  1.0000
  H   H4785     1.0  0.60758  0.48198  0.12662  1.0000
  H   H4786     1.0  0.62217  0.41608  0.23020  1.0000
  H   H4787     1.0  0.51140  0.17264  0.08302  1.0000
  C   C2813     1.0  0.63770  0.48524  0.10326  1.0000
  H   H4788     1.0  0.64006  0.27401  0.00990  1.0000
  H   H4789     1.0  0.60447  0.43144  0.21306  1.0000
  H   H4790     1.0  0.59483  0.12057  0.09130  1.0000
  H   H4791     1.0  0.62769  0.19216  0.06921  1.0000
  C   C2814     1.0  0.51545  0.36450  0.08764  1.0000
  C   C2815     1.0  0.57769  0.27582  0.10028  1.0000
  H   H4792     1.0  0.60036  0.42565  0.18452  1.0000
  C   C2816     1.0  0.55533  0.28609  0.12249  1.0000
  H   H4793     1.0  0.60420  0.17468  0.06028  1.0000
  N   N195      1.0  0.67116  0.10759  0.13871  1.0000
  C   C2817     1.0  0.67331  0.11927  0.14075  1.0000
  C   C2818     1.0  0.68015  0.09701  0.14458  1.0000
  C   C2819     1.0  0.65804  0.10655  0.14500  1.0000
  C   C2820     1.0  0.67307  0.10862  0.12502  1.0000
  C   C2821     1.0  0.66419  0.13128  0.13665  1.0000
  C   C2822     1.0  0.69394  0.09694  0.13898  1.0000
  C   C2823     1.0  0.67355  0.09698  0.12047  1.0000
  H   H4794     1.0  0.67308  0.11850  0.15067  1.0000
  H   H4795     1.0  0.68262  0.12088  0.13576  1.0000
  H   H4796     1.0  0.67869  0.08794  0.14432  1.0000
  H   H4797     1.0  0.67865  0.09689  0.15459  1.0000
  H   H4798     1.0  0.65143  0.11275  0.13932  1.0000
  H   H4799     1.0  0.66560  0.11579  0.12127  1.0000
  H   H4800     1.0  0.68150  0.11219  0.11995  1.0000
  H   H4801     1.0  0.65455  0.13113  0.14166  1.0000
  H   H4802     1.0  0.58209  0.30212  0.09658  1.0000
  H   H4803     1.0  0.66464  0.13338  0.12660  1.0000
  H   H4804     1.0  0.69958  0.08817  0.14318  1.0000
  H   H4805     1.0  0.69620  0.09744  0.12891  1.0000
  H   H4806     1.0  0.69696  0.10444  0.14107  1.0000
  H   H4807     1.0  0.65763  0.08916  0.14025  1.0000
  H   H4808     1.0  0.66425  0.09665  0.11954  1.0000
  H   H4809     1.0  0.67750  0.08822  0.12614  1.0000
  H   H4810     1.0  0.67979  0.09728  0.11123  1.0000
  H   H4811     1.0  0.50421  0.34839  0.12736  1.0000
  H   H4812     1.0  0.56611  0.13674  0.98703  1.0000
  C   C2824     1.0  0.74165  0.14531  0.07593  1.0000
  H   H4813     1.0  0.74546  0.14948  0.09752  1.0000
  H   H4814     1.0  0.60012  0.44825  0.16521  1.0000
  N   N196      1.0  0.61035  0.41191  0.21247  1.0000
  Fe  Fe413     1.0  0.74412  0.10883  0.13270  1.0000
  C   C2825     1.0  0.59528  0.45780  0.16601  1.0000
  C   C2826     1.0  0.60904  0.41374  0.19933  1.0000
  H   H4815     1.0  0.58088  0.41370  0.23116  1.0000
  H   H4816     1.0  0.50428  0.11084  0.14344  1.0000
  C   C2827     1.0  0.61230  0.45685  0.14085  1.0000
  N   N197      1.0  0.59148  0.12840  0.98701  1.0000
  C   C2828     1.0  0.62425  0.45803  0.13100  1.0000
  C   C2829     1.0  0.62328  0.39023  0.20967  1.0000
  C   C2830     1.0  0.60691  0.11547  0.00086  1.0000
  H   H4817     1.0  0.50964  0.16632  0.09960  1.0000
  C   C2831     1.0  0.60009  0.47746  0.13284  1.0000
  H   H4818     1.0  0.51117  0.36651  0.07954  1.0000
  H   H4819     1.0  0.58708  0.42596  0.22099  1.0000
  H   H4820     1.0  0.49848  0.35348  0.08387  1.0000
  H   H4821     1.0  0.63261  0.48912  0.07682  1.0000
  C   C2832     1.0  0.51189  0.16416  0.09032  1.0000
  C   C2833     1.0  0.60467  0.48644  0.15377  1.0000
  Fe  Fe414     1.0  0.61720  0.16470  0.98636  1.0000
  C   C2834     1.0  0.50594  0.36295  0.09988  1.0000
  H   H4822     1.0  0.74261  0.10914  0.09309  1.0000
  C   C2835     1.0  0.59301  0.46591  0.15347  1.0000
  H   H4823     1.0  0.61539  0.45057  0.14913  1.0000
  C   C2836     1.0  0.62578  0.11271  0.09062  1.0000
  C   C2837     1.0  0.56373  0.41799  0.14313  1.0000
  H   H4824     1.0  0.61251  0.27972  0.01540  1.0000
  C   C2838     1.0  0.53717  0.43839  0.16203  1.0000
  C   C2839     1.0  0.59826  0.11164  0.10924  1.0000
  C   C2840     1.0  0.56033  0.16195  0.05046  1.0000
  H   H4825     1.0  0.60488  0.10368  0.11315  1.0000
  H   H4826     1.0  0.57300  0.41378  0.14530  1.0000
  H   H4827     1.0  0.58951  0.10876  0.11009  1.0000
  H   H4828     1.0  0.63373  0.26268  0.04757  1.0000
  C   C2841     1.0  0.62789  0.10785  0.10388  1.0000
  C   C2842     1.0  0.61395  0.11675  0.07470  1.0000
  C   C2843     1.0  0.55577  0.42456  0.15355  1.0000
  H   H4829     1.0  0.55144  0.45550  0.12764  1.0000
  H   H4830     1.0  0.63388  0.10805  0.08451  1.0000
  H   H4831     1.0  0.54790  0.17431  0.03926  1.0000
  H   H4832     1.0  0.56331  0.16247  0.05872  1.0000
  H   H4833     1.0  0.55985  0.41044  0.14231  1.0000
  H   H4834     1.0  0.56519  0.42444  0.13411  1.0000
  H   H4835     1.0  0.61486  0.09281  0.09968  1.0000
  H   H4836     1.0  0.53962  0.41715  0.14464  1.0000
  H   H4837     1.0  0.60453  0.12715  0.09610  1.0000
  H   H4838     1.0  0.56105  0.43089  0.15474  1.0000
  H   H4839     1.0  0.62236  0.09320  0.08425  1.0000
  H   H4840     1.0  0.64825  0.18663  0.02637  1.0000
  C   C2844     1.0  0.60269  0.09474  0.08768  1.0000
  H   H4841     1.0  0.60286  0.09664  0.07767  1.0000
  H   H4842     1.0  0.60552  0.11584  0.07226  1.0000
  C   C2845     1.0  0.74011  0.14265  0.10367  1.0000
  N   N198      1.0  0.64773  0.29148  0.13564  1.0000
  C   C2846     1.0  0.65682  0.29962  0.12873  1.0000
  C   C2847     1.0  0.65457  0.28031  0.14326  1.0000
  C   C2848     1.0  0.63754  0.29871  0.14388  1.0000
  C   C2849     1.0  0.64269  0.28823  0.12630  1.0000
  C   C2850     1.0  0.65142  0.31238  0.12143  1.0000
  C   C2851     1.0  0.66512  0.27195  0.13595  1.0000
  C   C2852     1.0  0.62991  0.29141  0.15517  1.0000
  C   C2853     1.0  0.63432  0.27871  0.13106  1.0000
  H   H4843     1.0  0.66167  0.30134  0.13517  1.0000
  H   H4844     1.0  0.66414  0.29509  0.12188  1.0000
  H   H4845     1.0  0.64835  0.27426  0.14936  1.0000
  H   H4846     1.0  0.65853  0.28321  0.14968  1.0000
  H   H4847     1.0  0.64134  0.30458  0.14771  1.0000
  H   H4848     1.0  0.63085  0.30520  0.13848  1.0000
  H   H4849     1.0  0.63705  0.29663  0.12152  1.0000
  H   H4850     1.0  0.65014  0.28522  0.11863  1.0000
  H   H4851     1.0  0.65897  0.31749  0.11699  1.0000
  H   H4852     1.0  0.64744  0.31161  0.11391  1.0000
  H   H4853     1.0  0.64444  0.31815  0.12743  1.0000
  H   H4854     1.0  0.66890  0.26371  0.14251  1.0000
  H   H4855     1.0  0.66186  0.26855  0.12943  1.0000
  H   H4856     1.0  0.67290  0.27658  0.13099  1.0000
  H   H4857     1.0  0.62205  0.29803  0.15943  1.0000
  H   H4858     1.0  0.63543  0.28663  0.16233  1.0000
  H   H4859     1.0  0.62592  0.28477  0.15283  1.0000
  H   H4860     1.0  0.62451  0.28335  0.13361  1.0000
  H   H4861     1.0  0.63692  0.27131  0.13882  1.0000
  H   H4862     1.0  0.63513  0.27389  0.12358  1.0000
  H   H4863     1.0  0.63707  0.19555  0.04124  1.0000
  H   H4864     1.0  0.63411  0.25062  0.02662  1.0000
  H   H4865     1.0  0.62654  0.17327  0.07032  1.0000
  C   C2854     1.0  0.60904  0.25804  0.02765  1.0000
  H   H4866     1.0  0.58346  0.27043  0.11763  1.0000
  C   C2855     1.0  0.60155  0.42622  0.19363  1.0000
  H   H4867     1.0  0.56782  0.15625  0.04491  1.0000
  C   C2856     1.0  0.62889  0.15675  0.06382  1.0000
  C   C2857     1.0  0.62849  0.19711  0.05948  1.0000
  H   H4868     1.0  0.58225  0.11861  0.00423  1.0000
  C   C2858     1.0  0.63663  0.18913  0.05036  1.0000
  H   H4869     1.0  0.63913  0.16284  0.04042  1.0000
  C   C2859     1.0  0.64179  0.17133  0.04087  1.0000
  H   H4870     1.0  0.62293  0.24464  0.01757  1.0000
  H   H4871     1.0  0.60044  0.26448  0.02548  1.0000
  H   H4872     1.0  0.55621  0.27608  0.12319  1.0000
  H   H4873     1.0  0.60605  0.25107  0.03595  1.0000
  H   H4874     1.0  0.65013  0.17282  0.02142  1.0000
  H   H4875     1.0  0.59075  0.27345  0.04145  1.0000
  C   C2860     1.0  0.62068  0.27499  0.01961  1.0000
  H   H4876     1.0  0.62308  0.28220  0.02291  1.0000
  H   H4877     1.0  0.62104  0.11315  0.11037  1.0000
  S   S827      1.0  0.57291  0.36796  0.21352  1.0000
  N   N199      1.0  0.61397  0.11131  0.08819  1.0000
  H   H4878     1.0  0.62626  0.39179  0.19951  1.0000
  C   C2861     1.0  0.54335  0.44033  0.13965  1.0000
  H   H4879     1.0  0.54513  0.21025  0.02655  1.0000
  H   H4880     1.0  0.58135  0.16791  0.04981  1.0000
  H   H4881     1.0  0.65921  0.08756  0.15590  1.0000
  H   H4882     1.0  0.62191  0.11167  0.06877  1.0000
  N   N200      1.0  0.63240  0.17777  0.05031  1.0000
  C   C2862     1.0  0.63756  0.26079  0.03817  1.0000
  H   H4883     1.0  0.61521  0.25810  0.00783  1.0000
  H   H4884     1.0  0.59221  0.42867  0.19919  1.0000
  N   N201      1.0  0.59760  0.18065  0.11266  1.0000
  C   C2863     1.0  0.61043  0.17268  0.11053  1.0000
  C   C2864     1.0  0.59087  0.17906  0.10370  1.0000
  C   C2865     1.0  0.59107  0.17622  0.12571  1.0000
  C   C2866     1.0  0.59912  0.19373  0.11058  1.0000
  C   C2867     1.0  0.61770  0.16994  0.12087  1.0000
  C   C2868     1.0  0.59675  0.18270  0.08999  1.0000
  C   C2869     1.0  0.57681  0.17922  0.12856  1.0000
  C   C2870     1.0  0.58731  0.20381  0.11174  1.0000
  H   H4885     1.0  0.61008  0.16362  0.10911  1.0000
  H   H4886     1.0  0.61637  0.17686  0.10195  1.0000
  H   H4887     1.0  0.58125  0.18443  0.10482  1.0000
  H   H4888     1.0  0.58998  0.16927  0.10554  1.0000
  H   H4889     1.0  0.59354  0.16597  0.12833  1.0000
  H   H4890     1.0  0.59413  0.17976  0.13232  1.0000
  H   H4891     1.0  0.60424  0.19455  0.11722  1.0000
  H   H4892     1.0  0.60519  0.19655  0.10151  1.0000
  H   H4893     1.0  0.62727  0.16501  0.11764  1.0000
  H   H4894     1.0  0.61832  0.17843  0.12330  1.0000
  H   H4895     1.0  0.61374  0.16370  0.12925  1.0000
  H   H4896     1.0  0.59679  0.19268  0.08722  1.0000
  H   H4897     1.0  0.60617  0.17717  0.08760  1.0000
  H   H4898     1.0  0.59110  0.18084  0.08442  1.0000
  H   H4899     1.0  0.57312  0.17386  0.12410  1.0000
  H   H4900     1.0  0.57277  0.18912  0.12594  1.0000
  H   H4901     1.0  0.57344  0.17632  0.13863  1.0000
  H   H4902     1.0  0.58365  0.20480  0.12145  1.0000
  H   H4903     1.0  0.58003  0.20238  0.10795  1.0000
  H   H4904     1.0  0.58949  0.21274  0.10612  1.0000
  H   H4905     1.0  0.66677  0.13911  0.13868  1.0000
  H   H4906     1.0  0.50738  0.15416  0.07950  1.0000
  N   N202      1.0  0.61447  0.37682  0.14531  1.0000
  C   C2871     1.0  0.62521  0.37321  0.15176  1.0000
  C   C2872     1.0  0.61643  0.38806  0.13537  1.0000
  C   C2873     1.0  0.61505  0.36648  0.13925  1.0000
  C   C2874     1.0  0.60267  0.37899  0.15476  1.0000
  C   C2875     1.0  0.61552  0.39985  0.13979  1.0000
  C   C2876     1.0  0.60407  0.36757  0.13340  1.0000
  C   C2877     1.0  0.59084  0.38667  0.15014  1.0000
  H   H4907     1.0  0.63415  0.37179  0.14502  1.0000
  H   H4908     1.0  0.62541  0.38073  0.15610  1.0000
  H   H4909     1.0  0.60993  0.39047  0.12910  1.0000
  H   H4910     1.0  0.62569  0.38618  0.12922  1.0000
  H   H4911     1.0  0.62362  0.36535  0.13198  1.0000
  H   H4912     1.0  0.61563  0.35753  0.14586  1.0000
  H   H4913     1.0  0.60396  0.38371  0.16152  1.0000
  H   H4914     1.0  0.61610  0.40763  0.13171  1.0000
  H   H4915     1.0  0.60660  0.40235  0.14607  1.0000
  H   H4916     1.0  0.62329  0.39910  0.14415  1.0000
  H   H4917     1.0  0.60216  0.37628  0.12665  1.0000
  H   H4918     1.0  0.59562  0.36626  0.14050  1.0000
  H   H4919     1.0  0.60636  0.36007  0.12826  1.0000
  H   H4920     1.0  0.58345  0.38125  0.15342  1.0000
  H   H4921     1.0  0.59187  0.38978  0.14008  1.0000
  H   H4922     1.0  0.58725  0.39498  0.15427  1.0000
  N   N203      1.0  0.60432  0.46874  0.14399  1.0000
  C   C2878     1.0  0.58678  0.41623  0.22193  1.0000
  C   C2879     1.0  0.50125  0.12852  0.11832  1.0000
  H   H4923     1.0  0.63063  0.38298  0.21351  1.0000
  H   H4924     1.0  0.62393  0.46727  0.12498  1.0000
  H   H4925     1.0  0.61006  0.37236  0.23274  1.0000
  H   H4926     1.0  0.52319  0.35638  0.08732  1.0000
  H   H4927     1.0  0.49899  0.13781  0.08025  1.0000
  H   H4928     1.0  0.59823  0.39892  0.21947  1.0000
  C   C2880     1.0  0.73417  0.12570  0.08108  1.0000
  S   S828      1.0  0.49782  0.11218  0.10629  1.0000
  S   S829      1.0  0.50128  0.39633  0.14614  1.0000
  C   C2881     1.0  0.61430  0.13058  0.07030  1.0000
  H   H4929     1.0  0.52194  0.34470  0.11103  1.0000
  C   C2882     1.0  0.53390  0.43047  0.17513  1.0000
  C   C2883     1.0  0.57254  0.18595  0.03965  1.0000
  H   H4930     1.0  0.59815  0.28593  0.03184  1.0000
  C   C2884     1.0  0.62543  0.36158  0.16225  1.0000
  H   H4931     1.0  0.73069  0.14728  0.10764  1.0000
  H   H4932     1.0  0.60051  0.36999  0.16022  1.0000
  H   H4933     1.0  0.62764  0.35295  0.15878  1.0000
  C   C2885     1.0  0.50416  0.15557  0.08913  1.0000
  C   C2886     1.0  0.51883  0.33670  0.11020  1.0000
  H   H4934     1.0  0.62567  0.24807  0.04175  1.0000
  H   H4935     1.0  0.57933  0.16557  0.02945  1.0000
  H   H4936     1.0  0.56746  0.29858  0.09954  1.0000
  H   H4937     1.0  0.55321  0.29126  0.11348  1.0000
  H   H4938     1.0  0.60852  0.10713  0.99707  1.0000
  H   H4939     1.0  0.58070  0.15280  0.99094  1.0000
  C   C2887     1.0  0.55201  0.44944  0.13685  1.0000
  C   C2888     1.0  0.65495  0.09365  0.14822  1.0000
  H   H4940     1.0  0.59214  0.10915  0.98769  1.0000
  H   H4941     1.0  0.49818  0.08015  0.15857  1.0000
  C   C2889     1.0  0.58080  0.12777  0.99789  1.0000
  H   H4942     1.0  0.58620  0.45707  0.17229  1.0000
  C   C2890     1.0  0.52188  0.42742  0.15142  1.0000
  C   C2891     1.0  0.56756  0.31331  0.10753  1.0000
  H   H4943     1.0  0.56500  0.32005  0.09925  1.0000
  N   N204      1.0  0.57751  0.29038  0.11445  1.0000
  H   H4944     1.0  0.56385  0.29643  0.13000  1.0000
  H   H4945     1.0  0.58226  0.26641  0.09866  1.0000
  H   H4946     1.0  0.59128  0.17469  0.03609  1.0000
  H   H4947     1.0  0.58727  0.18079  0.04965  1.0000
  C   C2892     1.0  0.58711  0.29386  0.11900  1.0000
  C   C2893     1.0  0.58368  0.17662  0.04400  1.0000
  H   H4948     1.0  0.61892  0.17384  0.04255  1.0000
  S   S830      1.0  0.62338  0.14668  0.99870  1.0000
  H   H4949     1.0  0.60066  0.28736  0.13065  1.0000
  C   C2894     1.0  0.55005  0.20281  0.03300  1.0000
  C   C2895     1.0  0.63257  0.16908  0.06264  1.0000
  C   C2896     1.0  0.60846  0.18290  0.05728  1.0000
  H   H4950     1.0  0.53921  0.42085  0.17650  1.0000
  C   C2897     1.0  0.59402  0.28357  0.12797  1.0000
  H   H4951     1.0  0.59962  0.27577  0.12363  1.0000
  C   C2898     1.0  0.61997  0.18109  0.04681  1.0000
  H   H4952     1.0  0.61935  0.18961  0.03958  1.0000
  H   H4953     1.0  0.56675  0.18986  0.04766  1.0000
  Fe  Fe415     1.0  0.58556  0.37692  0.21907  1.0000
  H   H4954     1.0  0.58771  0.28016  0.13656  1.0000
  H   H4955     1.0  0.65099  0.16821  0.04349  1.0000
  H   H4956     1.0  0.63503  0.18218  0.02406  1.0000
  C   C2899     1.0  0.63164  0.27145  0.00913  1.0000
  H   H4957     1.0  0.55981  0.16274  0.02456  1.0000
  N   N205      1.0  0.56483  0.18141  0.03366  1.0000
  H   H4958     1.0  0.62129  0.15767  0.05917  1.0000
  C   C2900     1.0  0.61178  0.47477  0.14878  1.0000
  C   C2901     1.0  0.50799  0.10306  0.16190  1.0000
  H   H4959     1.0  0.63995  0.26925  0.03171  1.0000
  H   H4960     1.0  0.58632  0.47452  0.15524  1.0000
  H   H4961     1.0  0.64627  0.25378  0.03869  1.0000
  C   C2902     1.0  0.62861  0.25554  0.03400  1.0000
  H   H4962     1.0  0.62813  0.09785  0.10712  1.0000
  C   C2903     1.0  0.60287  0.12749  0.99174  1.0000
  H   H4963     1.0  0.63697  0.15013  0.06001  1.0000
  H   H4964     1.0  0.54595  0.43542  0.13192  1.0000
  H   H4965     1.0  0.62336  0.13234  0.07017  1.0000
  H   H4966     1.0  0.54337  0.44420  0.16249  1.0000
  H   H4967     1.0  0.55586  0.20713  0.03627  1.0000
  H   H4968     1.0  0.55280  0.15672  0.05360  1.0000
  C   C2904     1.0  0.59785  0.27881  0.04046  1.0000
  H   H4969     1.0  0.60911  0.26289  0.04979  1.0000
  H   H4970     1.0  0.62587  0.45150  0.12485  1.0000
  H   H4971     1.0  0.60030  0.46179  0.17050  1.0000
  H   H4972     1.0  0.60483  0.40641  0.19841  1.0000
  H   H4973     1.0  0.66672  0.48255  0.06760  1.0000
  C   C2905     1.0  0.65681  0.48659  0.07071  1.0000
  S   S831      1.0  0.62637  0.17566  0.99371  1.0000
  H   H4974     1.0  0.73780  0.14804  0.06745  1.0000
  H   H4975     1.0  0.51546  0.33143  0.11953  1.0000
  N   N206      1.0  0.73459  0.13671  0.08580  1.0000
  H   H4976     1.0  0.65190  0.47884  0.07355  1.0000
  H   H4977     1.0  0.62049  0.42644  0.20820  1.0000
  H   H4978     1.0  0.56628  0.12071  0.99434  1.0000
  C   C2906     1.0  0.61706  0.48641  0.10054  1.0000
  H   H4979     1.0  0.61481  0.38645  0.21248  1.0000
  H   H4980     1.0  0.58029  0.13426  0.00378  1.0000
  H   H4981     1.0  0.61493  0.43197  0.22854  1.0000
  C   C2907     1.0  0.74430  0.11397  0.08328  1.0000
  H   H4982     1.0  0.61624  0.46815  0.15612  1.0000
  C   C2908     1.0  0.56789  0.12953  0.99522  1.0000
  H   H4983     1.0  0.51080  0.36271  0.10711  1.0000
  N   N207      1.0  0.49983  0.35209  0.10275  1.0000
  H   H4984     1.0  0.52175  0.15933  0.08893  1.0000
  C   C2909     1.0  0.61221  0.42356  0.21480  1.0000
  H   H4985     1.0  0.51028  0.09500  0.14653  1.0000
  H   H4986     1.0  0.62218  0.39906  0.22430  1.0000
  H   H4987     1.0  0.74388  0.10745  0.07784  1.0000
  H   H4988     1.0  0.51403  0.10990  0.15897  1.0000
  H   H4989     1.0  0.51954  0.37252  0.08686  1.0000
  H   H4990     1.0  0.60025  0.11468  0.00982  1.0000
  H   H4991     1.0  0.60169  0.13507  0.99651  1.0000
  C   C2910     1.0  0.73992  0.13249  0.09726  1.0000
  C   C2911     1.0  0.50333  0.10233  0.15070  1.0000
  H   H4992     1.0  0.61579  0.11572  0.00290  1.0000
  C   C2912     1.0  0.61380  0.42285  0.22792  1.0000
  H   H4993     1.0  0.50512  0.09045  0.13135  1.0000
  H   H4994     1.0  0.65763  0.45186  0.27854  1.0000
  Fe  Fe416     1.0  0.73299  0.39982  0.32822  1.0000
  S   S832      1.0  0.72013  0.39028  0.32410  1.0000
  Fe  Fe417     1.0  0.71198  0.41640  0.34238  1.0000
  S   S833      1.0  0.69750  0.40815  0.33976  1.0000
  S   S834      1.0  0.70843  0.43073  0.35361  1.0000
  Fe  Fe418     1.0  0.71067  0.39012  0.34377  1.0000
  S   S835      1.0  0.70374  0.37406  0.35689  1.0000
  Fe  Fe419     1.0  0.70825  0.40923  0.32038  1.0000
  S   S836      1.0  0.69693  0.41766  0.30578  1.0000
  S   S837      1.0  0.72423  0.39823  0.34820  1.0000
  S   S838      1.0  0.72199  0.41890  0.32264  1.0000
  Fe  Fe420     1.0  0.64654  0.47434  0.34562  1.0000
  S   S839      1.0  0.63938  0.46036  0.34062  1.0000
  S   S840      1.0  0.65833  0.47002  0.35960  1.0000
  H   H4995     1.0  0.74249  0.39867  0.36734  1.0000
  Fe  Fe421     1.0  0.62158  0.47427  0.34167  1.0000
  S   S841      1.0  0.60293  0.46967  0.34988  1.0000
  Fe  Fe422     1.0  0.64392  0.47107  0.32131  1.0000
  S   S842      1.0  0.65336  0.46017  0.30666  1.0000
  S   S843      1.0  0.62553  0.48396  0.32189  1.0000
  S   S844      1.0  0.65279  0.48390  0.32618  1.0000
  Fe  Fe423     1.0  0.62621  0.41579  0.28879  1.0000
  S   S845      1.0  0.61259  0.40458  0.28934  1.0000
  S   S846      1.0  0.61994  0.43623  0.28790  1.0000
  Fe  Fe424     1.0  0.64744  0.39391  0.29042  1.0000
  S   S847      1.0  0.63573  0.38080  0.29111  1.0000
  S   S848      1.0  0.66728  0.38590  0.29192  1.0000
  Fe  Fe425     1.0  0.62771  0.39500  0.27605  1.0000
  S   S849      1.0  0.62653  0.38882  0.25904  1.0000
  Fe  Fe426     1.0  0.62161  0.39134  0.30421  1.0000
  S   S850      1.0  0.61071  0.38136  0.32132  1.0000
  S   S851      1.0  0.64077  0.40738  0.27428  1.0000
  S   S852      1.0  0.63389  0.40326  0.30478  1.0000
  Fe  Fe427     1.0  0.64095  0.39626  0.39189  1.0000
  S   S853      1.0  0.63968  0.37643  0.39724  1.0000
  S   S854      1.0  0.65840  0.40246  0.38982  1.0000
  Fe  Fe428     1.0  0.61394  0.40520  0.39195  1.0000
  S   S855      1.0  0.61029  0.38602  0.39743  1.0000
  S   S856      1.0  0.59799  0.42130  0.39065  1.0000
  Fe  Fe429     1.0  0.62267  0.38264  0.41077  1.0000
  S   S857      1.0  0.61914  0.37135  0.43020  1.0000
  Fe  Fe430     1.0  0.62761  0.38176  0.38333  1.0000
  S   S858      1.0  0.63059  0.36873  0.37069  1.0000
  S   S859      1.0  0.62486  0.40221  0.40642  1.0000
  S   S860      1.0  0.63035  0.40121  0.37682  1.0000
  S   S861      1.0  0.65073  0.37445  0.46656  1.0000
  C   C2913     1.0  0.62752  0.37250  0.44054  1.0000
  C   C2914     1.0  0.63330  0.38241  0.43824  1.0000
  C   C2915     1.0  0.64023  0.38297  0.44642  1.0000
  C   C2916     1.0  0.64134  0.37370  0.45701  1.0000
  C   C2917     1.0  0.63530  0.36393  0.45951  1.0000
  C   C2918     1.0  0.62839  0.36335  0.45129  1.0000
  H   H4996     1.0  0.63251  0.38960  0.43010  1.0000
  H   H4997     1.0  0.64477  0.39062  0.44453  1.0000
  H   H4998     1.0  0.63617  0.35670  0.46763  1.0000
  H   H4999     1.0  0.62386  0.35569  0.45315  1.0000
  C   C2919     1.0  0.61619  0.37848  0.33502  1.0000
  C   C2920     1.0  0.61548  0.36722  0.34327  1.0000
  C   C2921     1.0  0.61977  0.36450  0.35422  1.0000
  C   C2922     1.0  0.62429  0.37320  0.35735  1.0000
  C   C2923     1.0  0.62476  0.38466  0.34927  1.0000
  C   C2924     1.0  0.62094  0.38720  0.33798  1.0000
  H   H5000     1.0  0.61182  0.36046  0.34109  1.0000
  H   H5001     1.0  0.61950  0.35559  0.36034  1.0000
  H   H5002     1.0  0.62840  0.39136  0.35157  1.0000
  H   H5003     1.0  0.62159  0.39587  0.33162  1.0000
  C   C2925     1.0  0.60214  0.45620  0.36129  1.0000
  C   C2926     1.0  0.61230  0.44634  0.36206  1.0000
  C   C2927     1.0  0.61113  0.43542  0.37093  1.0000
  C   C2928     1.0  0.59986  0.43450  0.37915  1.0000
  C   C2929     1.0  0.58973  0.44434  0.37829  1.0000
  C   C2930     1.0  0.59084  0.45511  0.36933  1.0000
  H   H5004     1.0  0.62093  0.44699  0.35563  1.0000
  H   H5005     1.0  0.61892  0.42778  0.37146  1.0000
  H   H5006     1.0  0.58097  0.44362  0.38456  1.0000
  H   H5007     1.0  0.58292  0.46264  0.36867  1.0000
  C   C2931     1.0  0.64325  0.45350  0.30266  1.0000
  C   C2932     1.0  0.64618  0.44084  0.30299  1.0000
  C   C2933     1.0  0.63903  0.43549  0.29854  1.0000
  C   C2934     1.0  0.62884  0.44278  0.29376  1.0000
  C   C2935     1.0  0.62571  0.45543  0.29368  1.0000
  C   C2936     1.0  0.63289  0.46079  0.29816  1.0000
  H   H5008     1.0  0.65404  0.43521  0.30667  1.0000
  H   H5009     1.0  0.64153  0.42577  0.29859  1.0000
  H   H5010     1.0  0.61782  0.46112  0.29001  1.0000
  H   H5011     1.0  0.63062  0.47062  0.29780  1.0000
  C   C2937     1.0  0.69387  0.44063  0.35593  1.0000
  C   C2938     1.0  0.69234  0.44996  0.36226  1.0000
  C   C2939     1.0  0.68132  0.45877  0.36344  1.0000
  C   C2940     1.0  0.67180  0.45849  0.35810  1.0000
  C   C2941     1.0  0.67312  0.44896  0.35201  1.0000
  C   C2942     1.0  0.68414  0.43994  0.35104  1.0000
  H   H5012     1.0  0.69980  0.45050  0.36611  1.0000
  H   H5013     1.0  0.68030  0.46601  0.36828  1.0000
  H   H5014     1.0  0.66568  0.44854  0.34809  1.0000
  H   H5015     1.0  0.68519  0.43263  0.34633  1.0000
  C   C2943     1.0  0.69169  0.38097  0.36732  1.0000
  C   C2944     1.0  0.69231  0.39197  0.36998  1.0000
  C   C2945     1.0  0.68210  0.39841  0.37710  1.0000
  C   C2946     1.0  0.67117  0.39401  0.38132  1.0000
  C   C2947     1.0  0.67060  0.38291  0.37882  1.0000
  C   C2948     1.0  0.68096  0.37625  0.37203  1.0000
  H   H5016     1.0  0.70060  0.39565  0.36640  1.0000
  H   H5017     1.0  0.68258  0.40700  0.37900  1.0000
  H   H5018     1.0  0.66219  0.37949  0.38198  1.0000
  H   H5019     1.0  0.68051  0.36774  0.36999  1.0000
  C   C2949     1.0  0.68823  0.40815  0.30369  1.0000
  C   C2950     1.0  0.67621  0.41327  0.30183  1.0000
  C   C2951     1.0  0.66955  0.40640  0.29856  1.0000
  C   C2952     1.0  0.67504  0.39444  0.29684  1.0000
  C   C2953     1.0  0.68698  0.38918  0.29901  1.0000
  C   C2954     1.0  0.69352  0.39598  0.30257  1.0000
  H   H5020     1.0  0.67223  0.42269  0.30265  1.0000
  H   H5021     1.0  0.66031  0.41043  0.29703  1.0000
  H   H5022     1.0  0.69124  0.37989  0.29774  1.0000
  H   H5023     1.0  0.70286  0.39200  0.30386  1.0000
  H   H5024     1.0  0.60423  0.40185  0.44528  1.0000
  C   C2955     1.0  0.59242  0.38925  0.25374  1.0000
  C   C2956     1.0  0.60181  0.39121  0.25843  1.0000
  C   C2957     1.0  0.61421  0.38633  0.25390  1.0000
  N   N208      1.0  0.67805  0.43550  0.26499  1.0000
  C   C2958     1.0  0.60591  0.39204  0.46387  1.0000
  H   H5025     1.0  0.58287  0.39318  0.25720  1.0000
  H   H5026     1.0  0.59947  0.39667  0.26540  1.0000
  C   C2959     1.0  0.68030  0.44506  0.31846  1.0000
  C   C2960     1.0  0.59628  0.40122  0.48188  1.0000
  N   N209      1.0  0.63776  0.44383  0.38665  1.0000
  C   C2961     1.0  0.62538  0.44021  0.39150  1.0000
  C   C2962     1.0  0.64165  0.44326  0.37319  1.0000
  C   C2963     1.0  0.63705  0.45673  0.38791  1.0000
  C   C2964     1.0  0.64684  0.43515  0.39396  1.0000
  C   C2965     1.0  0.61927  0.44100  0.40497  1.0000
  C   C2966     1.0  0.64647  0.43028  0.37028  1.0000
  C   C2967     1.0  0.62743  0.46685  0.38176  1.0000
  C   C2968     1.0  0.66034  0.43691  0.38963  1.0000
  H   H5027     1.0  0.61863  0.44593  0.38579  1.0000
  H   H5028     1.0  0.62606  0.43057  0.39081  1.0000
  H   H5029     1.0  0.64885  0.44865  0.36832  1.0000
  H   H5030     1.0  0.63387  0.44778  0.36842  1.0000
  H   H5031     1.0  0.63524  0.45731  0.39775  1.0000
  H   H5032     1.0  0.64614  0.45943  0.38385  1.0000
  H   H5033     1.0  0.64411  0.43608  0.40373  1.0000
  H   H5034     1.0  0.64668  0.42539  0.39455  1.0000
  H   H5035     1.0  0.61011  0.43847  0.40712  1.0000
  H   H5036     1.0  0.62466  0.43433  0.41152  1.0000
  H   H5037     1.0  0.61759  0.45045  0.40658  1.0000
  H   H5038     1.0  0.65587  0.42629  0.37215  1.0000
  H   H5039     1.0  0.64030  0.42388  0.37548  1.0000
  H   H5040     1.0  0.64721  0.43094  0.36031  1.0000
  H   H5041     1.0  0.62826  0.47598  0.38268  1.0000
  H   H5042     1.0  0.61784  0.46579  0.38621  1.0000
  H   H5043     1.0  0.62904  0.46716  0.37177  1.0000
  H   H5044     1.0  0.66219  0.44283  0.39491  1.0000
  H   H5045     1.0  0.66283  0.44105  0.37974  1.0000
  H   H5046     1.0  0.66673  0.42777  0.39100  1.0000
  N   N210      1.0  0.60747  0.43453  0.33294  1.0000
  C   C2969     1.0  0.61325  0.44574  0.32806  1.0000
  C   C2970     1.0  0.61598  0.42478  0.34025  1.0000
  C   C2971     1.0  0.59508  0.43821  0.34118  1.0000
  C   C2972     1.0  0.60597  0.43043  0.32208  1.0000
  C   C2973     1.0  0.60517  0.45761  0.32196  1.0000
  C   C2974     1.0  0.62923  0.42067  0.33318  1.0000
  C   C2975     1.0  0.59000  0.42799  0.35143  1.0000
  C   C2976     1.0  0.60054  0.41883  0.32482  1.0000
  H   H5047     1.0  0.61606  0.44815  0.33556  1.0000
  H   H5048     1.0  0.62183  0.44389  0.32103  1.0000
  H   H5049     1.0  0.61230  0.41628  0.34441  1.0000
  H   H5050     1.0  0.61675  0.42809  0.34823  1.0000
  H   H5051     1.0  0.59543  0.44520  0.34615  1.0000
  H   H5052     1.0  0.58789  0.44278  0.33562  1.0000
  H   H5053     1.0  0.59976  0.43780  0.31681  1.0000
  H   H5054     1.0  0.61476  0.42918  0.31518  1.0000
  H   H5055     1.0  0.59665  0.46093  0.32843  1.0000
  H   H5056     1.0  0.61049  0.46507  0.31897  1.0000
  H   H5057     1.0  0.60282  0.45654  0.31359  1.0000
  H   H5058     1.0  0.63450  0.42815  0.33035  1.0000
  H   H5059     1.0  0.63420  0.41303  0.33941  1.0000
  H   H5060     1.0  0.62939  0.41710  0.32507  1.0000
  H   H5061     1.0  0.58923  0.42020  0.34792  1.0000
  H   H5062     1.0  0.58057  0.43196  0.35611  1.0000
  H   H5063     1.0  0.59561  0.42452  0.35865  1.0000
  H   H5064     1.0  0.59030  0.42127  0.32658  1.0000
  H   H5065     1.0  0.60346  0.41165  0.33256  1.0000
  H   H5066     1.0  0.60396  0.41435  0.31675  1.0000
  H   H5067     1.0  0.68497  0.43063  0.28183  1.0000
  H   H5068     1.0  0.67476  0.46417  0.31177  1.0000
  H   H5069     1.0  0.72832  0.38277  0.37254  1.0000
  H   H5070     1.0  0.70171  0.41357  0.27760  1.0000
  C   C2977     1.0  0.60983  0.38011  0.48377  1.0000
  H   H5071     1.0  0.70229  0.44367  0.29424  1.0000
  H   H5072     1.0  0.65771  0.39853  0.35270  1.0000
  H   H5073     1.0  0.70499  0.43938  0.30947  1.0000
  H   H5074     1.0  0.73448  0.39603  0.38321  1.0000
  H   H5075     1.0  0.65225  0.34519  0.42953  1.0000
  C   C2978     1.0  0.59531  0.38258  0.24432  1.0000
  H   H5076     1.0  0.67074  0.44365  0.32249  1.0000
  H   H5077     1.0  0.67253  0.34538  0.41523  1.0000
  C   C2979     1.0  0.68200  0.43324  0.25208  1.0000
  C   C2980     1.0  0.66039  0.39328  0.33480  1.0000
  H   H5078     1.0  0.62553  0.35760  0.29293  1.0000
  H   H5079     1.0  0.66610  0.35805  0.40477  1.0000
  H   H5080     1.0  0.64733  0.36904  0.33664  1.0000
  H   H5081     1.0  0.58771  0.39853  0.48161  1.0000
  H   H5082     1.0  0.71932  0.45399  0.31345  1.0000
  H   H5083     1.0  0.59824  0.41155  0.45624  1.0000
  C   C2981     1.0  0.66543  0.37403  0.32771  1.0000
  C   C2982     1.0  0.66526  0.35982  0.43449  1.0000
  H   H5084     1.0  0.71652  0.36704  0.38114  1.0000
  H   H5085     1.0  0.62660  0.37569  0.24104  1.0000
  H   H5086     1.0  0.65073  0.34610  0.41423  1.0000
  H   H5087     1.0  0.66947  0.37881  0.31840  1.0000
  H   H5088     1.0  0.67569  0.46043  0.32747  1.0000
  C   C2983     1.0  0.66193  0.40145  0.34285  1.0000
  C   C2984     1.0  0.69099  0.47537  0.31492  1.0000
  H   H5089     1.0  0.71438  0.46580  0.32256  1.0000
  H   H5090     1.0  0.64538  0.35958  0.42065  1.0000
  H   H5091     1.0  0.67442  0.43754  0.24693  1.0000
  H   H5092     1.0  0.67493  0.38768  0.41491  1.0000
  H   H5093     1.0  0.68250  0.44337  0.30899  1.0000
  H   H5094     1.0  0.69573  0.43556  0.26864  1.0000
  C   C2985     1.0  0.72671  0.36380  0.37894  1.0000
  H   H5095     1.0  0.66353  0.39773  0.32501  1.0000
  H   H5096     1.0  0.66432  0.38542  0.42963  1.0000
  H   H5097     1.0  0.66455  0.34340  0.44916  1.0000
  H   H5098     1.0  0.61478  0.40677  0.45091  1.0000
  H   H5099     1.0  0.65711  0.41108  0.33976  1.0000
  H   H5100     1.0  0.65911  0.39522  0.41645  1.0000
  H   H5101     1.0  0.65196  0.37657  0.41954  1.0000
  H   H5102     1.0  0.65508  0.36115  0.43764  1.0000
  H   H5103     1.0  0.67161  0.44834  0.28444  1.0000
  H   H5104     1.0  0.64661  0.38313  0.32482  1.0000
  C   C2986     1.0  0.65276  0.35120  0.42021  1.0000
  C   C2987     1.0  0.68985  0.36802  0.33317  1.0000
  C   C2988     1.0  0.65571  0.43403  0.26581  1.0000
  H   H5105     1.0  0.66771  0.36625  0.43874  1.0000
  H   H5106     1.0  0.66326  0.37797  0.40593  1.0000
  C   C2989     1.0  0.70609  0.44637  0.30086  1.0000
  H   H5107     1.0  0.68349  0.38742  0.32886  1.0000
  H   H5108     1.0  0.69557  0.45785  0.33360  1.0000
  H   H5109     1.0  0.68550  0.47727  0.32404  1.0000
  H   H5110     1.0  0.71825  0.45000  0.32968  1.0000
  C   C2990     1.0  0.66723  0.45323  0.27648  1.0000
  C   C2991     1.0  0.71379  0.45642  0.32224  1.0000
  H   H5111     1.0  0.66326  0.37805  0.35711  1.0000
  S   S862      1.0  0.62821  0.48744  0.34852  1.0000
  H   H5112     1.0  0.68769  0.35264  0.42010  1.0000
  H   H5113     1.0  0.61328  0.38474  0.46009  1.0000
  C   C2992     1.0  0.67120  0.34678  0.44078  1.0000
  H   H5114     1.0  0.68612  0.36040  0.39775  1.0000
  H   H5115     1.0  0.65028  0.39408  0.33613  1.0000
  N   N211      1.0  0.66697  0.37994  0.33735  1.0000
  H   H5116     1.0  0.68550  0.36786  0.42205  1.0000
  H   H5117     1.0  0.69986  0.41528  0.26232  1.0000
  C   C2993     1.0  0.66545  0.38647  0.41959  1.0000
  H   H5118     1.0  0.65228  0.36855  0.32068  1.0000
  H   H5119     1.0  0.66648  0.35485  0.34708  1.0000
  C   C2994     1.0  0.68267  0.36224  0.41711  1.0000
  H   H5120     1.0  0.67350  0.33987  0.43498  1.0000
  C   C2995     1.0  0.66568  0.35426  0.41481  1.0000
  C   C2996     1.0  0.69342  0.43827  0.24415  1.0000
  C   C2997     1.0  0.66205  0.37584  0.41612  1.0000
  H   H5121     1.0  0.68433  0.37600  0.39954  1.0000
  H   H5122     1.0  0.62566  0.36498  0.27737  1.0000
  C   C2998     1.0  0.60580  0.40385  0.45365  1.0000
  C   C2999     1.0  0.61966  0.36091  0.28594  1.0000
  C   C3000     1.0  0.68793  0.36614  0.40321  1.0000
  H   H5123     1.0  0.69810  0.36492  0.40168  1.0000
  C   C3001     1.0  0.66728  0.42943  0.27157  1.0000
  S   S863      1.0  0.58325  0.38108  0.23810  1.0000
  N   N212      1.0  0.66894  0.36302  0.42065  1.0000
  C   C3002     1.0  0.65208  0.37377  0.32765  1.0000
  H   H5124     1.0  0.61744  0.35295  0.28394  1.0000
  C   C3003     1.0  0.68448  0.48453  0.30492  1.0000
  H   H5125     1.0  0.65617  0.42861  0.25893  1.0000
  N   N213      1.0  0.59618  0.36742  0.29518  1.0000
  C   C3004     1.0  0.58803  0.37657  0.30280  1.0000
  C   C3005     1.0  0.59722  0.35487  0.30362  1.0000
  C   C3006     1.0  0.58973  0.36772  0.28518  1.0000
  C   C3007     1.0  0.60850  0.37111  0.28981  1.0000
  C   C3008     1.0  0.58429  0.38992  0.29572  1.0000
  C   C3009     1.0  0.60279  0.35344  0.31492  1.0000
  C   C3010     1.0  0.59642  0.35922  0.27606  1.0000
  H   H5126     1.0  0.57932  0.37346  0.30796  1.0000
  H   H5127     1.0  0.59262  0.37725  0.30994  1.0000
  H   H5128     1.0  0.60274  0.34746  0.29875  1.0000
  H   H5129     1.0  0.58796  0.35244  0.30718  1.0000
  H   H5130     1.0  0.58041  0.36555  0.28931  1.0000
  H   H5131     1.0  0.58814  0.37709  0.27928  1.0000
  H   H5132     1.0  0.60786  0.37883  0.28168  1.0000
  H   H5133     1.0  0.61112  0.37478  0.29661  1.0000
  H   H5134     1.0  0.58052  0.39612  0.30240  1.0000
  H   H5135     1.0  0.59220  0.39335  0.28915  1.0000
  H   H5136     1.0  0.57687  0.39080  0.29080  1.0000
  H   H5137     1.0  0.61147  0.35689  0.31245  1.0000
  H   H5138     1.0  0.59615  0.35822  0.32197  1.0000
  H   H5139     1.0  0.60495  0.34352  0.31936  1.0000
  H   H5140     1.0  0.59031  0.36001  0.26968  1.0000
  H   H5141     1.0  0.59849  0.34937  0.28063  1.0000
  H   H5142     1.0  0.60489  0.36221  0.27016  1.0000
  C   C3011     1.0  0.66532  0.36000  0.35431  1.0000
  H   H5143     1.0  0.69073  0.36741  0.32349  1.0000
  H   H5144     1.0  0.69910  0.36862  0.33401  1.0000
  H   H5145     1.0  0.67064  0.36438  0.32840  1.0000
  N   N214      1.0  0.69315  0.46181  0.31484  1.0000
  H   H5146     1.0  0.67972  0.34698  0.44354  1.0000
  H   H5147     1.0  0.67390  0.35757  0.35792  1.0000
  H   H5148     1.0  0.65423  0.44392  0.26138  1.0000
  C   C3012     1.0  0.69983  0.45978  0.30216  1.0000
  H   H5149     1.0  0.72906  0.35573  0.38633  1.0000
  C   C3013     1.0  0.68066  0.45843  0.31828  1.0000
  H   H5150     1.0  0.69336  0.46331  0.29569  1.0000
  H   H5151     1.0  0.68763  0.35946  0.33947  1.0000
  C   C3014     1.0  0.68046  0.37968  0.33625  1.0000
  H   H5152     1.0  0.65101  0.37639  0.35185  1.0000
  H   H5153     1.0  0.69984  0.47823  0.31363  1.0000
  C   C3015     1.0  0.61706  0.37953  0.24461  1.0000
  C   C3016     1.0  0.66126  0.37407  0.35020  1.0000
  H   H5154     1.0  0.68624  0.43798  0.32416  1.0000
  H   H5155     1.0  0.68203  0.38117  0.34486  1.0000
  H   H5156     1.0  0.66658  0.46325  0.27550  1.0000
  H   H5157     1.0  0.70067  0.44488  0.32691  1.0000
  H   H5158     1.0  0.62616  0.39504  0.46618  1.0000
  H   H5159     1.0  0.67171  0.40176  0.34193  1.0000
  H   H5160     1.0  0.68375  0.42322  0.25213  1.0000
  H   H5161     1.0  0.65788  0.35654  0.36175  1.0000
  C   C3017     1.0  0.70033  0.45491  0.32475  1.0000
  C   C3018     1.0  0.60769  0.37766  0.23985  1.0000
  H   H5162     1.0  0.70714  0.46533  0.29841  1.0000
  H   H5163     1.0  0.68301  0.45325  0.26162  1.0000
  H   H5164     1.0  0.66448  0.43002  0.28146  1.0000
  H   H5165     1.0  0.64734  0.43301  0.27315  1.0000
  C   C3019     1.0  0.69477  0.41653  0.27166  1.0000
  H   H5166     1.0  0.66990  0.41934  0.27191  1.0000
  C   C3020     1.0  0.68836  0.43009  0.27197  1.0000
  H   H5167     1.0  0.68829  0.41017  0.27537  1.0000
  C   C3021     1.0  0.67461  0.44922  0.26441  1.0000
  H   H5168     1.0  0.66921  0.45412  0.25715  1.0000
  H   H5169     1.0  0.61662  0.40870  0.47064  1.0000
  H   H5170     1.0  0.72883  0.36089  0.37007  1.0000
  C   C3022     1.0  0.73283  0.37441  0.37851  1.0000
  H   H5171     1.0  0.73872  0.37018  0.35130  1.0000
  H   H5172     1.0  0.67502  0.48339  0.30563  1.0000
  H   H5173     1.0  0.59708  0.38919  0.46489  1.0000
  N   N215      1.0  0.60769  0.39301  0.47613  1.0000
  H   H5174     1.0  0.71615  0.44562  0.29706  1.0000
  C   C3023     1.0  0.62564  0.39580  0.48451  1.0000
  H   H5175     1.0  0.70172  0.43425  0.24821  1.0000
  H   H5176     1.0  0.72988  0.37621  0.38802  1.0000
  H   H5177     1.0  0.69166  0.44847  0.24252  1.0000
  H   H5178     1.0  0.61818  0.37436  0.47900  1.0000
  H   H5179     1.0  0.68995  0.48409  0.29549  1.0000
  H   H5180     1.0  0.59536  0.41078  0.47630  1.0000
  H   H5181     1.0  0.63297  0.40127  0.48180  1.0000
  C   C3024     1.0  0.61894  0.39850  0.47378  1.0000
  C   C3025     1.0  0.74368  0.39499  0.37695  1.0000
  H   H5182     1.0  0.74617  0.38454  0.35666  1.0000
  H   H5183     1.0  0.59764  0.37125  0.47843  1.0000
  N   N216      1.0  0.74672  0.37247  0.37447  1.0000
  H   H5184     1.0  0.69562  0.43580  0.23500  1.0000
  H   H5185     1.0  0.60558  0.42072  0.23502  1.0000
  H   H5186     1.0  0.63052  0.04943  0.60040  1.0000
  H   H5187     1.0  0.71978  0.30764  0.53652  1.0000
  S   S864      1.0  0.62695  0.01373  0.58663  1.0000
  C   C3026     1.0  0.50351  0.33454  0.63628  1.0000
  S   S865      1.0  0.73231  0.40517  0.61041  1.0000
  H   H5188     1.0  0.62822  0.03882  0.58505  1.0000
  H   H5189     1.0  0.61192  0.37981  0.49274  1.0000
  C   C3027     1.0  0.50858  0.35893  0.63929  1.0000
  S   S866      1.0  0.64925  0.37316  0.50048  1.0000
  Fe  Fe431     1.0  0.64406  0.34018  0.50535  1.0000
  S   S867      1.0  0.64367  0.34825  0.52120  1.0000
  S   S868      1.0  0.64172  0.32093  0.50737  1.0000
  Fe  Fe432     1.0  0.63273  0.36534  0.51121  1.0000
  S   S869      1.0  0.61621  0.37787  0.51999  1.0000
  Fe  Fe433     1.0  0.66018  0.35521  0.50888  1.0000
  S   S870      1.0  0.67714  0.35156  0.51658  1.0000
  S   S871      1.0  0.63143  0.35660  0.49648  1.0000
  S   S872      1.0  0.66130  0.34602  0.49353  1.0000
  Fe  Fe434     1.0  0.64910  0.25408  0.58926  1.0000
  S   S873      1.0  0.63783  0.26763  0.60086  1.0000
  S   S874      1.0  0.65056  0.23393  0.59864  1.0000
  Fe  Fe435     1.0  0.65432  0.27451  0.56682  1.0000
  S   S875      1.0  0.64318  0.28973  0.57639  1.0000
  S   S876      1.0  0.66443  0.27764  0.54707  1.0000
  Fe  Fe436     1.0  0.65237  0.27885  0.59203  1.0000
  S   S877      1.0  0.65862  0.28820  0.60359  1.0000
  Fe  Fe437     1.0  0.62971  0.27728  0.58433  1.0000
  S   S878      1.0  0.60944  0.28445  0.58561  1.0000
  S   S879      1.0  0.66463  0.26436  0.58191  1.0000
  S   S880      1.0  0.63985  0.26300  0.57326  1.0000
  Fe  Fe438     1.0  0.56466  0.36170  0.60225  1.0000
  S   S881      1.0  0.56999  0.34285  0.59803  1.0000
  S   S882      1.0  0.54461  0.37096  0.60773  1.0000
  Fe  Fe439     1.0  0.59156  0.36476  0.59558  1.0000
  S   S883      1.0  0.59886  0.34621  0.59072  1.0000
  S   S884      1.0  0.60389  0.37803  0.59308  1.0000
  Fe  Fe440     1.0  0.58284  0.35092  0.58143  1.0000
  S   S885      1.0  0.58440  0.34582  0.56343  1.0000
  Fe  Fe441     1.0  0.58531  0.34003  0.60780  1.0000
  S   S886      1.0  0.59144  0.32236  0.62054  1.0000
  S   S887      1.0  0.57652  0.37011  0.58481  1.0000
  S   S888      1.0  0.57909  0.35828  0.61347  1.0000
  Fe  Fe442     1.0  0.69899  0.36290  0.58838  1.0000
  S   S889      1.0  0.70075  0.35866  0.56984  1.0000
  S   S890      1.0  0.71584  0.36294  0.59551  1.0000
  Fe  Fe443     1.0  0.67143  0.36336  0.59540  1.0000
  S   S891      1.0  0.67082  0.35925  0.57770  1.0000
  S   S892      1.0  0.65450  0.36653  0.61037  1.0000
  Fe  Fe444     1.0  0.68825  0.34541  0.57980  1.0000
  S   S893      1.0  0.68985  0.32829  0.57289  1.0000
  Fe  Fe445     1.0  0.68310  0.37272  0.56891  1.0000
  S   S894      1.0  0.67795  0.38539  0.55166  1.0000
  S   S895      1.0  0.68794  0.34824  0.59849  1.0000
  S   S896      1.0  0.68234  0.37822  0.58652  1.0000
  H   H5190     1.0  0.63492  0.17165  0.61755  1.0000
  S   S897      1.0  0.51430  0.13446  0.62200  1.0000
  Fe  Fe446     1.0  0.52158  0.12378  0.65491  1.0000
  S   S898      1.0  0.53557  0.12989  0.63834  1.0000
  S   S899      1.0  0.52737  0.11625  0.67333  1.0000
  Fe  Fe447     1.0  0.51993  0.14491  0.63285  1.0000
  S   S900      1.0  0.52127  0.16467  0.62504  1.0000
  Fe  Fe448     1.0  0.52867  0.11875  0.62921  1.0000
  S   S901      1.0  0.54277  0.10679  0.61724  1.0000
  H   H5191     1.0  0.56753  0.09318  0.71186  1.0000
  S   S902      1.0  0.51560  0.11144  0.64619  1.0000
  Fe  Fe449     1.0  0.59612  0.13498  0.70114  1.0000
  S   S903      1.0  0.57967  0.14128  0.71515  1.0000
  S   S904      1.0  0.60718  0.14882  0.68912  1.0000
  Fe  Fe450     1.0  0.59253  0.10876  0.70820  1.0000
  H   H5192     1.0  0.57848  0.16251  0.72419  1.0000
  S   S905      1.0  0.59665  0.08947  0.70502  1.0000
  Fe  Fe451     1.0  0.57038  0.12990  0.70866  1.0000
  S   S906      1.0  0.55091  0.13735  0.70536  1.0000
  H   H5193     1.0  0.52203  0.31405  0.64011  1.0000
  S   S907      1.0  0.58637  0.12488  0.69365  1.0000
  S   S908      1.0  0.60419  0.11827  0.71410  1.0000
  Fe  Fe452     1.0  0.58907  0.18093  0.62994  1.0000
  S   S909      1.0  0.60901  0.18204  0.62286  1.0000
  S   S910      1.0  0.57805  0.18296  0.64885  1.0000
  Fe  Fe453     1.0  0.58632  0.17588  0.60642  1.0000
  S   S911      1.0  0.60595  0.17645  0.59722  1.0000
  S   S912      1.0  0.57409  0.17297  0.59556  1.0000
  Fe  Fe454     1.0  0.61028  0.16548  0.61527  1.0000
  S   S913      1.0  0.62635  0.14940  0.61659  1.0000
  Fe  Fe455     1.0  0.60304  0.19298  0.60539  1.0000
  S   S914      1.0  0.60936  0.20980  0.59263  1.0000
  S   S915      1.0  0.59082  0.16338  0.62388  1.0000
  S   S916      1.0  0.58287  0.19335  0.61311  1.0000
  Fe  Fe456     1.0  0.62541  0.05968  0.62716  1.0000
  S   S917      1.0  0.61672  0.06139  0.64667  1.0000
  S   S918      1.0  0.63359  0.03983  0.62577  1.0000
  Fe  Fe457     1.0  0.61826  0.08731  0.61760  1.0000
  S   S919      1.0  0.60882  0.09111  0.63629  1.0000
  S   S920      1.0  0.61726  0.10365  0.60178  1.0000
  Fe  Fe458     1.0  0.62527  0.07781  0.64240  1.0000
  S   S921      1.0  0.63440  0.08219  0.65539  1.0000
  Fe  Fe459     1.0  0.60117  0.07440  0.63874  1.0000
  S   S922      1.0  0.58168  0.07352  0.64861  1.0000
  S   S923      1.0  0.63545  0.07514  0.62345  1.0000
  S   S924      1.0  0.60915  0.07161  0.61947  1.0000
  C   C3028     1.0  0.62422  0.13675  0.61199  1.0000
  C   C3029     1.0  0.61751  0.13854  0.60288  1.0000
  C   C3030     1.0  0.61598  0.12832  0.59930  1.0000
  C   C3031     1.0  0.62038  0.11633  0.60540  1.0000
  C   C3032     1.0  0.62706  0.11455  0.61451  1.0000
  C   C3033     1.0  0.62932  0.12474  0.61748  1.0000
  H   H5194     1.0  0.61376  0.14778  0.59838  1.0000
  H   H5195     1.0  0.61131  0.12969  0.59186  1.0000
  H   H5196     1.0  0.63074  0.10531  0.61907  1.0000
  H   H5197     1.0  0.63496  0.12323  0.62411  1.0000
  C   C3034     1.0  0.60765  0.08666  0.69172  1.0000
  C   C3035     1.0  0.61913  0.08991  0.68909  1.0000
  C   C3036     1.0  0.62772  0.08760  0.67832  1.0000
  C   C3037     1.0  0.62450  0.08294  0.66977  1.0000
  C   C3038     1.0  0.61312  0.07948  0.67253  1.0000
  C   C3039     1.0  0.60493  0.08093  0.68369  1.0000
  H   H5198     1.0  0.62145  0.09395  0.69547  1.0000
  H   H5199     1.0  0.63675  0.08976  0.67643  1.0000
  H   H5200     1.0  0.61065  0.07563  0.66611  1.0000
  H   H5201     1.0  0.59639  0.07779  0.68599  1.0000
  C   C3040     1.0  0.59887  0.15929  0.67856  1.0000
  C   C3041     1.0  0.60512  0.16614  0.66793  1.0000
  C   C3042     1.0  0.59878  0.17344  0.65873  1.0000
  C   C3043     1.0  0.58608  0.17434  0.66043  1.0000
  C   C3044     1.0  0.57975  0.16801  0.67136  1.0000
  C   C3045     1.0  0.58617  0.16026  0.68028  1.0000
  H   H5202     1.0  0.61496  0.16540  0.66657  1.0000
  H   H5203     1.0  0.60369  0.17843  0.65038  1.0000
  H   H5204     1.0  0.56993  0.16881  0.67278  1.0000
  H   H5205     1.0  0.58127  0.15502  0.68846  1.0000
  C   C3046     1.0  0.59337  0.04313  0.61145  1.0000
  C   C3047     1.0  0.53391  0.12447  0.68009  1.0000
  C   C3048     1.0  0.54675  0.12347  0.67767  1.0000
  C   C3049     1.0  0.55217  0.12741  0.68528  1.0000
  C   C3050     1.0  0.54474  0.13246  0.69529  1.0000
  C   C3051     1.0  0.53191  0.13402  0.69726  1.0000
  C   C3052     1.0  0.52655  0.12987  0.68985  1.0000
  H   H5206     1.0  0.55253  0.11923  0.67019  1.0000
  H   H5207     1.0  0.56207  0.12644  0.68351  1.0000
  H   H5208     1.0  0.52609  0.13802  0.70488  1.0000
  H   H5209     1.0  0.51668  0.13041  0.69201  1.0000
  C   C3053     1.0  0.57088  0.08248  0.63977  1.0000
  C   C3054     1.0  0.57339  0.08341  0.62702  1.0000
  C   C3055     1.0  0.56452  0.09043  0.62015  1.0000
  C   C3056     1.0  0.55338  0.09702  0.62594  1.0000
  C   C3057     1.0  0.55094  0.09613  0.63866  1.0000
  C   C3058     1.0  0.55956  0.08868  0.64559  1.0000
  H   H5210     1.0  0.58207  0.07859  0.62249  1.0000
  H   H5211     1.0  0.56635  0.09091  0.61035  1.0000
  H   H5212     1.0  0.54235  0.10110  0.64323  1.0000
  H   H5213     1.0  0.55749  0.08790  0.65543  1.0000
  C   C3059     1.0  0.53604  0.16659  0.61680  1.0000
  C   C3060     1.0  0.54651  0.15995  0.62147  1.0000
  C   C3061     1.0  0.55819  0.16242  0.61536  1.0000
  C   C3062     1.0  0.55948  0.17087  0.60411  1.0000
  C   C3063     1.0  0.54905  0.17719  0.59925  1.0000
  C   C3064     1.0  0.53732  0.17532  0.60576  1.0000
  H   H5214     1.0  0.54552  0.15314  0.62994  1.0000
  H   H5215     1.0  0.56624  0.15753  0.61914  1.0000
  H   H5216     1.0  0.55003  0.18370  0.59053  1.0000
  H   H5217     1.0  0.52923  0.18049  0.60214  1.0000
  C   C3065     1.0  0.61741  0.37309  0.59912  1.0000
  C   C3066     1.0  0.61851  0.37859  0.60819  1.0000
  C   C3067     1.0  0.62983  0.37630  0.61178  1.0000
  C   C3068     1.0  0.64032  0.36901  0.60587  1.0000
  C   C3069     1.0  0.63927  0.36355  0.59673  1.0000
  C   C3070     1.0  0.62776  0.36526  0.59365  1.0000
  H   H5218     1.0  0.61062  0.38481  0.61232  1.0000
  H   H5219     1.0  0.63054  0.38055  0.61886  1.0000
  H   H5220     1.0  0.64725  0.35773  0.59231  1.0000
  H   H5221     1.0  0.62699  0.36091  0.58670  1.0000
  C   C3071     1.0  0.68044  0.31790  0.58177  1.0000
  C   C3072     1.0  0.67934  0.31421  0.59454  1.0000
  C   C3073     1.0  0.67275  0.30496  0.60120  1.0000
  C   C3074     1.0  0.66717  0.29947  0.59512  1.0000
  C   C3075     1.0  0.66811  0.30334  0.58240  1.0000
  C   C3076     1.0  0.67465  0.31257  0.57579  1.0000
  H   H5222     1.0  0.68391  0.31819  0.59920  1.0000
  H   H5223     1.0  0.67212  0.30192  0.61103  1.0000
  H   H5224     1.0  0.66384  0.29920  0.57764  1.0000
  H   H5225     1.0  0.67519  0.31563  0.56603  1.0000
  C   C3077     1.0  0.60414  0.29453  0.59580  1.0000
  C   C3078     1.0  0.61152  0.29487  0.60360  1.0000
  C   C3079     1.0  0.60725  0.30291  0.61178  1.0000
  C   C3080     1.0  0.59584  0.31104  0.61175  1.0000
  C   C3081     1.0  0.58843  0.31068  0.60398  1.0000
  C   C3082     1.0  0.59249  0.30229  0.59614  1.0000
  H   H5226     1.0  0.62056  0.28904  0.60333  1.0000
  H   H5227     1.0  0.61294  0.30311  0.61783  1.0000
  H   H5228     1.0  0.57953  0.31684  0.60406  1.0000
  H   H5229     1.0  0.58674  0.30203  0.59014  1.0000
  C   C3083     1.0  0.63956  0.22675  0.59680  1.0000
  C   C3084     1.0  0.63510  0.23019  0.58592  1.0000
  C   C3085     1.0  0.62602  0.22469  0.58472  1.0000
  C   C3086     1.0  0.62128  0.21576  0.59439  1.0000
  C   C3087     1.0  0.62586  0.21213  0.60523  1.0000
  C   C3088     1.0  0.63507  0.21756  0.60638  1.0000
  H   H5230     1.0  0.63869  0.23705  0.57840  1.0000
  H   H5231     1.0  0.62254  0.22749  0.57630  1.0000
  H   H5232     1.0  0.62220  0.20530  0.61276  1.0000
  H   H5233     1.0  0.63853  0.21485  0.61481  1.0000
  C   C3089     1.0  0.64865  0.30954  0.51847  1.0000
  C   C3090     1.0  0.64760  0.31136  0.53033  1.0000
  C   C3091     1.0  0.65203  0.30150  0.53941  1.0000
  C   C3092     1.0  0.65798  0.29002  0.53643  1.0000
  C   C3093     1.0  0.65934  0.28841  0.52448  1.0000
  C   C3094     1.0  0.65445  0.29802  0.51564  1.0000
  H   H5234     1.0  0.64302  0.32023  0.53260  1.0000
  H   H5235     1.0  0.65109  0.30282  0.54860  1.0000
  H   H5236     1.0  0.66399  0.27959  0.52211  1.0000
  H   H5237     1.0  0.65521  0.29654  0.50653  1.0000
  C   C3095     1.0  0.67721  0.36125  0.52608  1.0000
  C   C3096     1.0  0.67214  0.37389  0.52351  1.0000
  C   C3097     1.0  0.67271  0.38144  0.53113  1.0000
  C   C3098     1.0  0.67803  0.37627  0.54150  1.0000
  C   C3099     1.0  0.68295  0.36363  0.54407  1.0000
  C   C3100     1.0  0.68272  0.35619  0.53630  1.0000
  H   H5238     1.0  0.66804  0.37787  0.51551  1.0000
  H   H5239     1.0  0.66895  0.39124  0.52906  1.0000
  H   H5240     1.0  0.68707  0.35952  0.55200  1.0000
  H   H5241     1.0  0.68676  0.34647  0.53832  1.0000
  C   C3101     1.0  0.60684  0.36920  0.53168  1.0000
  C   C3102     1.0  0.60769  0.35681  0.53179  1.0000
  C   C3103     1.0  0.60044  0.34982  0.54140  1.0000
  C   C3104     1.0  0.59273  0.35502  0.55114  1.0000
  C   C3105     1.0  0.59179  0.36745  0.55097  1.0000
  C   C3106     1.0  0.59868  0.37460  0.54112  1.0000
  H   H5242     1.0  0.61391  0.35261  0.52446  1.0000
  H   H5243     1.0  0.60099  0.34030  0.54148  1.0000
  H   H5244     1.0  0.58573  0.37157  0.55838  1.0000
  H   H5245     1.0  0.59800  0.38419  0.54103  1.0000
  C   C3107     1.0  0.51458  0.35208  0.60633  1.0000
  C   C3108     1.0  0.52642  0.34513  0.60734  1.0000
  C   C3109     1.0  0.53559  0.35077  0.60811  1.0000
  C   C3110     1.0  0.53305  0.36344  0.60768  1.0000
  C   C3111     1.0  0.52115  0.37036  0.60687  1.0000
  C   C3112     1.0  0.51192  0.36470  0.60619  1.0000
  H   H5246     1.0  0.52851  0.33535  0.60749  1.0000
  H   H5247     1.0  0.54462  0.34530  0.60905  1.0000
  H   H5248     1.0  0.51910  0.38016  0.60658  1.0000
  H   H5249     1.0  0.60094  0.01835  0.61151  1.0000
  C   C3113     1.0  0.71995  0.37492  0.59970  1.0000
  C   C3114     1.0  0.71342  0.38715  0.59768  1.0000
  C   C3115     1.0  0.71723  0.39631  0.60109  1.0000
  C   C3116     1.0  0.72769  0.39339  0.60637  1.0000
  C   C3117     1.0  0.73412  0.38115  0.60846  1.0000
  C   C3118     1.0  0.73024  0.37199  0.60519  1.0000
  H   H5250     1.0  0.70550  0.38956  0.59342  1.0000
  H   H5251     1.0  0.71216  0.40574  0.59947  1.0000
  C   C3119     1.0  0.58200  0.17762  0.70904  1.0000
  H   H5252     1.0  0.73530  0.36255  0.60689  1.0000
  C   C3120     1.0  0.62745  0.02143  0.59783  1.0000
  C   C3121     1.0  0.62745  0.01518  0.61000  1.0000
  C   C3122     1.0  0.62871  0.02116  0.61863  1.0000
  C   C3123     1.0  0.62996  0.03346  0.61519  1.0000
  C   C3124     1.0  0.62947  0.03994  0.60314  1.0000
  C   C3125     1.0  0.62824  0.03390  0.59447  1.0000
  H   H5253     1.0  0.62672  0.00567  0.61275  1.0000
  H   H5254     1.0  0.62894  0.01614  0.62798  1.0000
  H   H5255     1.0  0.66608  0.99627  0.59084  1.0000
  H   H5256     1.0  0.52494  0.34808  0.56821  1.0000
  H   H5257     1.0  0.68134  0.99518  0.62184  1.0000
  H   H5258     1.0  0.70526  0.31518  0.52261  1.0000
  H   H5259     1.0  0.59054  0.03807  0.60603  1.0000
  H   H5260     1.0  0.57202  0.05216  0.62886  1.0000
  H   H5261     1.0  0.50062  0.35088  0.66620  1.0000
  H   H5262     1.0  0.58702  0.18528  0.70596  1.0000
  H   H5263     1.0  0.60351  0.18247  0.71512  1.0000
  H   H5264     1.0  0.56711  0.10340  0.68241  1.0000
  H   H5265     1.0  0.68658  0.32554  0.51328  1.0000
  H   H5266     1.0  0.58483  0.01811  0.61807  1.0000
  C   C3126     1.0  0.60384  0.15959  0.71602  1.0000
  H   H5267     1.0  0.59665  0.00701  0.62472  1.0000
  C   C3127     1.0  0.64411  0.17203  0.61859  1.0000
  H   H5268     1.0  0.58135  0.23291  0.61615  1.0000
  C   C3128     1.0  0.65854  0.00381  0.59363  1.0000
  H   H5269     1.0  0.52114  0.36304  0.55824  1.0000
  C   C3129     1.0  0.66107  0.01137  0.62330  1.0000
  H   H5270     1.0  0.68375  0.00571  0.60757  1.0000
  C   C3130     1.0  0.51442  0.34542  0.64428  1.0000
  C   C3131     1.0  0.66158  0.01056  0.60211  1.0000
  H   H5271     1.0  0.64275  0.17616  0.62670  1.0000
  H   H5272     1.0  0.64687  0.18964  0.60773  1.0000
  H   H5273     1.0  0.67458  0.30652  0.52765  1.0000
  H   H5274     1.0  0.66070  0.17821  0.60811  1.0000
  H   H5275     1.0  0.60009  0.15154  0.71610  1.0000
  H   H5276     1.0  0.56320  0.10789  0.70223  1.0000
  H   H5277     1.0  0.59204  0.18528  0.72839  1.0000
  H   H5278     1.0  0.70664  0.31798  0.54297  1.0000
  H   H5279     1.0  0.59746  0.03117  0.64846  1.0000
  N   N217      1.0  0.61248  0.29956  0.54688  1.0000
  C   C3132     1.0  0.60386  0.29159  0.55538  1.0000
  C   C3133     1.0  0.61883  0.30369  0.55458  1.0000
  C   C3134     1.0  0.62216  0.29247  0.53816  1.0000
  C   C3135     1.0  0.60509  0.31044  0.53948  1.0000
  C   C3136     1.0  0.59736  0.28546  0.54914  1.0000
  C   C3137     1.0  0.61068  0.31302  0.56246  1.0000
  C   C3138     1.0  0.62965  0.28017  0.54417  1.0000
  C   C3139     1.0  0.61252  0.31974  0.53043  1.0000
  H   H5280     1.0  0.60881  0.28409  0.56176  1.0000
  H   H5281     1.0  0.59642  0.29697  0.56143  1.0000
  H   H5282     1.0  0.62668  0.30785  0.54877  1.0000
  H   H5283     1.0  0.62301  0.29566  0.56108  1.0000
  H   H5284     1.0  0.61809  0.29064  0.53120  1.0000
  H   H5285     1.0  0.62911  0.29802  0.53269  1.0000
  H   H5286     1.0  0.60054  0.30736  0.53373  1.0000
  H   H5287     1.0  0.59749  0.31555  0.54567  1.0000
  H   H5288     1.0  0.59079  0.29233  0.54393  1.0000
  H   H5289     1.0  0.60396  0.27952  0.54310  1.0000
  H   H5290     1.0  0.59185  0.27940  0.55642  1.0000
  H   H5291     1.0  0.60773  0.32220  0.55674  1.0000
  H   H5292     1.0  0.60249  0.30976  0.56862  1.0000
  H   H5293     1.0  0.61617  0.31435  0.56850  1.0000
  H   H5294     1.0  0.62386  0.27332  0.54913  1.0000
  H   H5295     1.0  0.63481  0.28155  0.55044  1.0000
  H   H5296     1.0  0.63665  0.27606  0.53685  1.0000
  H   H5297     1.0  0.61759  0.32355  0.53505  1.0000
  H   H5298     1.0  0.60611  0.32760  0.52591  1.0000
  H   H5299     1.0  0.61913  0.31555  0.52300  1.0000
  Fe  Fe460     1.0  0.58706  0.12396  0.72784  1.0000
  H   H5300     1.0  0.66193  0.20339  0.57621  1.0000
  H   H5301     1.0  0.56654  0.07379  0.71595  1.0000
  H   H5302     1.0  0.51519  0.32594  0.66278  1.0000
  H   H5303     1.0  0.53295  0.08705  0.68253  1.0000
  H   H5304     1.0  0.57135  0.09184  0.66614  1.0000
  H   H5305     1.0  0.68897  0.29772  0.52252  1.0000
  H   H5306     1.0  0.57428  0.06043  0.70983  1.0000
  H   H5307     1.0  0.54644  0.08889  0.71006  1.0000
  N   N218      1.0  0.54393  0.16628  0.65618  1.0000
  C   C3140     1.0  0.53806  0.17621  0.64664  1.0000
  C   C3141     1.0  0.53661  0.15622  0.66022  1.0000
  C   C3142     1.0  0.55695  0.16123  0.65000  1.0000
  C   C3143     1.0  0.54388  0.17204  0.66660  1.0000
  C   C3144     1.0  0.54545  0.18628  0.63947  1.0000
  C   C3145     1.0  0.52263  0.16037  0.66492  1.0000
  C   C3146     1.0  0.56437  0.14985  0.65736  1.0000
  C   C3147     1.0  0.54448  0.16332  0.67928  1.0000
  H   H5308     1.0  0.53619  0.17214  0.63972  1.0000
  H   H5309     1.0  0.52884  0.18112  0.65089  1.0000
  H   H5310     1.0  0.53999  0.14881  0.66763  1.0000
  H   H5311     1.0  0.55691  0.15874  0.64132  1.0000
  H   H5312     1.0  0.56266  0.16833  0.64727  1.0000
  H   H5313     1.0  0.55157  0.17707  0.66409  1.0000
  H   H5314     1.0  0.53523  0.17909  0.66825  1.0000
  H   H5315     1.0  0.55353  0.18270  0.63265  1.0000
  H   H5316     1.0  0.53949  0.19389  0.63412  1.0000
  H   H5317     1.0  0.54855  0.19026  0.64566  1.0000
  C   C3148     1.0  0.65785  0.99275  0.61925  1.0000
  H   H5318     1.0  0.51857  0.15210  0.66939  1.0000
  H   H5319     1.0  0.57326  0.14676  0.65120  1.0000
  H   H5320     1.0  0.55971  0.14194  0.66056  1.0000
  H   H5321     1.0  0.56685  0.15209  0.66507  1.0000
  H   H5322     1.0  0.54889  0.16718  0.68454  1.0000
  H   H5323     1.0  0.54987  0.15393  0.67893  1.0000
  H   H5324     1.0  0.53508  0.16290  0.68494  1.0000
  H   H5325     1.0  0.53118  0.32307  0.64327  1.0000
  H   H5326     1.0  0.53775  0.15156  0.65250  1.0000
  C   C3149     1.0  0.52182  0.35813  0.56779  1.0000
  H   H5327     1.0  0.62025  0.25573  0.62533  1.0000
  H   H5328     1.0  0.59666  0.26134  0.59148  1.0000
  H   H5329     1.0  0.60956  0.26763  0.61078  1.0000
  C   C3150     1.0  0.57704  0.08868  0.67327  1.0000
  N   N219      1.0  0.61893  0.12566  0.65843  1.0000
  C   C3151     1.0  0.61490  0.11655  0.65372  1.0000
  C   C3152     1.0  0.62952  0.13017  0.64900  1.0000
  C   C3153     1.0  0.60855  0.13651  0.66053  1.0000
  C   C3154     1.0  0.62275  0.11934  0.67048  1.0000
  C   C3155     1.0  0.60280  0.11254  0.66117  1.0000
  C   C3156     1.0  0.64162  0.12045  0.64699  1.0000
  C   C3157     1.0  0.60293  0.14372  0.64925  1.0000
  C   C3158     1.0  0.62910  0.12654  0.67579  1.0000
  H   H5330     1.0  0.61395  0.12010  0.64396  1.0000
  H   H5331     1.0  0.62207  0.10793  0.65356  1.0000
  H   H5332     1.0  0.63171  0.13813  0.65118  1.0000
  H   H5333     1.0  0.62690  0.13384  0.63992  1.0000
  H   H5334     1.0  0.60097  0.13374  0.66822  1.0000
  H   H5335     1.0  0.61175  0.14329  0.66355  1.0000
  H   H5336     1.0  0.61469  0.11688  0.67771  1.0000
  H   H5337     1.0  0.62930  0.11052  0.66944  1.0000
  H   H5338     1.0  0.60132  0.10530  0.65725  1.0000
  H   H5339     1.0  0.60320  0.10841  0.67095  1.0000
  H   H5340     1.0  0.59465  0.12021  0.66061  1.0000
  H   H5341     1.0  0.64839  0.12468  0.63931  1.0000
  H   H5342     1.0  0.64587  0.11732  0.65519  1.0000
  H   H5343     1.0  0.64032  0.11234  0.64434  1.0000
  H   H5344     1.0  0.59968  0.13783  0.64506  1.0000
  H   H5345     1.0  0.60955  0.14872  0.64216  1.0000
  H   H5346     1.0  0.59480  0.15081  0.65221  1.0000
  H   H5347     1.0  0.62510  0.12581  0.68579  1.0000
  H   H5348     1.0  0.62815  0.13647  0.67156  1.0000
  H   H5349     1.0  0.63905  0.12226  0.67513  1.0000
  N   N220      1.0  0.63778  0.37971  0.55361  1.0000
  C   C3159     1.0  0.64205  0.39046  0.55526  1.0000
  C   C3160     1.0  0.63822  0.38131  0.54007  1.0000
  C   C3161     1.0  0.64659  0.36801  0.55807  1.0000
  C   C3162     1.0  0.62487  0.37987  0.56113  1.0000
  C   C3163     1.0  0.64412  0.38972  0.56823  1.0000
  C   C3164     1.0  0.62999  0.39311  0.53414  1.0000
  C   C3165     1.0  0.64798  0.35671  0.55254  1.0000
  C   C3166     1.0  0.61857  0.36967  0.56085  1.0000
  H   H5350     1.0  0.65090  0.39169  0.54866  1.0000
  H   H5351     1.0  0.63529  0.39924  0.55321  1.0000
  H   H5352     1.0  0.63561  0.37353  0.53802  1.0000
  H   H5353     1.0  0.64783  0.38124  0.53478  1.0000
  H   H5354     1.0  0.65613  0.36966  0.55602  1.0000
  H   H5355     1.0  0.64412  0.36506  0.56826  1.0000
  H   H5356     1.0  0.62474  0.37900  0.57096  1.0000
  H   H5357     1.0  0.61858  0.38895  0.55893  1.0000
  H   H5358     1.0  0.65123  0.38161  0.57112  1.0000
  H   H5359     1.0  0.64762  0.39794  0.56800  1.0000
  H   H5360     1.0  0.63548  0.38983  0.57535  1.0000
  H   H5361     1.0  0.62007  0.39341  0.53827  1.0000
  H   H5362     1.0  0.63264  0.40161  0.53444  1.0000
  H   H5363     1.0  0.63122  0.39310  0.52423  1.0000
  H   H5364     1.0  0.63913  0.35411  0.55346  1.0000
  H   H5365     1.0  0.65392  0.34868  0.55746  1.0000
  H   H5366     1.0  0.65277  0.35823  0.54271  1.0000
  H   H5367     1.0  0.62141  0.36105  0.56745  1.0000
  H   H5368     1.0  0.62021  0.36773  0.55159  1.0000
  H   H5369     1.0  0.60842  0.37284  0.56351  1.0000
  H   H5370     1.0  0.60363  0.04113  0.60886  1.0000
  H   H5371     1.0  0.70275  0.28433  0.54482  1.0000
  H   H5372     1.0  0.64999  0.00020  0.59791  1.0000
  H   H5373     1.0  0.50143  0.36315  0.64641  1.0000
  C   C3167     1.0  0.59398  0.01685  0.62021  1.0000
  H   H5374     1.0  0.66253  0.02866  0.62661  1.0000
  N   N221      1.0  0.60274  0.25090  0.61387  1.0000
  H   H5375     1.0  0.60166  0.36420  0.49298  1.0000
  C   C3168     1.0  0.52409  0.31739  0.64742  1.0000
  H   H5376     1.0  0.62494  0.23998  0.63240  1.0000
  H   H5377     1.0  0.51224  0.33226  0.62954  1.0000
  H   H5378     1.0  0.67848  0.31767  0.50786  1.0000
  N   N222      1.0  0.58922  0.03879  0.62515  1.0000
  N   N223      1.0  0.66493  0.00300  0.61417  1.0000
  H   H5379     1.0  0.69506  0.31287  0.50610  1.0000
  H   H5380     1.0  0.66253  0.02957  0.61096  1.0000
  H   H5381     1.0  0.73600  0.40693  0.57980  1.0000
  H   H5382     1.0  0.58336  0.04293  0.65031  1.0000
  H   H5383     1.0  0.66467  0.31873  0.54668  1.0000
  H   H5384     1.0  0.57854  0.05963  0.60820  1.0000
  H   H5385     1.0  0.62205  0.14883  0.71038  1.0000
  C   C3169     1.0  0.66599  0.02343  0.61909  1.0000
  S   S925      1.0  0.57587  0.11317  0.72291  1.0000
  H   H5386     1.0  0.66651  0.32662  0.53061  1.0000
  H   H5387     1.0  0.57267  0.03810  0.63936  1.0000
  N   N224      1.0  0.50604  0.33632  0.64785  1.0000
  H   H5388     1.0  0.66409  0.00658  0.63209  1.0000
  H   H5389     1.0  0.74207  0.37874  0.61268  1.0000
  H   H5390     1.0  0.67620  0.02167  0.61720  1.0000
  H   H5391     1.0  0.59195  0.05880  0.59611  1.0000
  H   H5392     1.0  0.73849  0.38602  0.57893  1.0000
  H   H5393     1.0  0.59905  0.26414  0.63342  1.0000
  H   H5394     1.0  0.58470  0.25402  0.60947  1.0000
  S   S926      1.0  0.50629  0.13980  0.65019  1.0000
  H   H5395     1.0  0.55505  0.06993  0.70267  1.0000
  H   H5396     1.0  0.51231  0.35950  0.57348  1.0000
  H   H5397     1.0  0.52057  0.16619  0.67181  1.0000
  H   H5398     1.0  0.59093  0.05535  0.62979  1.0000
  C   C3170     1.0  0.60499  0.25396  0.59029  1.0000
  H   H5399     1.0  0.52824  0.30912  0.65369  1.0000
  H   H5400     1.0  0.51843  0.34534  0.65214  1.0000
  C   C3171     1.0  0.61084  0.24851  0.60178  1.0000
  C   C3172     1.0  0.57015  0.09325  0.68522  1.0000
  H   H5401     1.0  0.59293  0.27859  0.62454  1.0000
  H   H5402     1.0  0.59791  0.04637  0.64897  1.0000
  S   S927      1.0  0.50344  0.34487  0.60486  1.0000
  H   H5403     1.0  0.65317  0.01789  0.60381  1.0000
  H   H5404     1.0  0.58889  0.02128  0.63816  1.0000
  C   C3173     1.0  0.57540  0.04205  0.62938  1.0000
  H   H5405     1.0  0.60385  0.02318  0.62977  1.0000
  H   H5406     1.0  0.58547  0.17126  0.70251  1.0000
  H   H5407     1.0  0.66640  0.33441  0.54215  1.0000
  H   H5408     1.0  0.54545  0.10289  0.69887  1.0000
  H   H5409     1.0  0.59543  0.23275  0.60506  1.0000
  H   H5410     1.0  0.61945  0.25207  0.59986  1.0000
  C   C3174     1.0  0.59093  0.23431  0.61446  1.0000
  H   H5411     1.0  0.53223  0.09276  0.69567  1.0000
  H   H5412     1.0  0.53819  0.07654  0.69545  1.0000
  C   C3175     1.0  0.67870  0.99824  0.61268  1.0000
  H   H5413     1.0  0.55521  0.08242  0.67744  1.0000
  H   H5414     1.0  0.56806  0.06899  0.69041  1.0000
  C   C3176     1.0  0.55091  0.08877  0.68395  1.0000
  H   H5415     1.0  0.66893  0.01561  0.59652  1.0000
  H   H5416     1.0  0.57135  0.03781  0.61315  1.0000
  C   C3177     1.0  0.61736  0.15468  0.71727  1.0000
  C   C3178     1.0  0.57152  0.07063  0.70732  1.0000
  H   H5417     1.0  0.60500  0.04427  0.62767  1.0000
  H   H5418     1.0  0.54953  0.09820  0.67810  1.0000
  C   C3179     1.0  0.56320  0.07408  0.69788  1.0000
  H   H5419     1.0  0.58441  0.26662  0.62892  1.0000
  C   C3180     1.0  0.59405  0.02507  0.62888  1.0000
  N   N225      1.0  0.55926  0.08763  0.69259  1.0000
  C   C3181     1.0  0.55213  0.09466  0.70258  1.0000
  H   H5420     1.0  0.58015  0.07413  0.70364  1.0000
  H   H5421     1.0  0.60287  0.24352  0.63328  1.0000
  H   H5422     1.0  0.58023  0.07854  0.67483  1.0000
  H   H5423     1.0  0.58496  0.24821  0.62523  1.0000
  N   N226      1.0  0.59545  0.16678  0.72539  1.0000
  H   H5424     1.0  0.55840  0.04410  0.62333  1.0000
  C   C3182     1.0  0.60990  0.17667  0.73230  1.0000
  C   C3183     1.0  0.53792  0.08605  0.68996  1.0000
  C   C3184     1.0  0.60067  0.26444  0.61373  1.0000
  H   H5425     1.0  0.59049  0.37832  0.49174  1.0000
  C   C3185     1.0  0.51235  0.32435  0.65488  1.0000
  H   H5426     1.0  0.61139  0.23321  0.62357  1.0000
  H   H5427     1.0  0.65669  0.01051  0.58507  1.0000
  C   C3186     1.0  0.59539  0.40247  0.49514  1.0000
  N   N227      1.0  0.63528  0.32705  0.61058  1.0000
  C   C3187     1.0  0.64256  0.32848  0.59747  1.0000
  C   C3188     1.0  0.64046  0.33339  0.61746  1.0000
  C   C3189     1.0  0.62192  0.33315  0.61024  1.0000
  C   C3190     1.0  0.63659  0.31347  0.61610  1.0000
  C   C3191     1.0  0.63808  0.32336  0.58861  1.0000
  C   C3192     1.0  0.65441  0.32933  0.61725  1.0000
  C   C3193     1.0  0.61425  0.33928  0.62109  1.0000
  C   C3194     1.0  0.63010  0.30995  0.62963  1.0000
  H   H5428     1.0  0.64266  0.33836  0.59334  1.0000
  H   H5429     1.0  0.65236  0.32375  0.59709  1.0000
  H   H5430     1.0  0.63573  0.33234  0.62729  1.0000
  H   H5431     1.0  0.63866  0.34346  0.61375  1.0000
  H   H5432     1.0  0.62124  0.34076  0.60198  1.0000
  H   H5433     1.0  0.61683  0.32652  0.60930  1.0000
  H   H5434     1.0  0.63289  0.30886  0.61090  1.0000
  H   H5435     1.0  0.64648  0.30887  0.61536  1.0000
  H   H5436     1.0  0.62818  0.32707  0.58837  1.0000
  H   H5437     1.0  0.64343  0.32601  0.57912  1.0000
  H   H5438     1.0  0.63988  0.31313  0.59084  1.0000
  H   H5439     1.0  0.65726  0.31930  0.62073  1.0000
  H   H5440     1.0  0.66001  0.33220  0.60796  1.0000
  H   H5441     1.0  0.65671  0.33408  0.62337  1.0000
  H   H5442     1.0  0.61458  0.33312  0.63020  1.0000
  H   H5443     1.0  0.60443  0.34206  0.62024  1.0000
  H   H5444     1.0  0.61718  0.34787  0.62076  1.0000
  H   H5445     1.0  0.63375  0.31326  0.63591  1.0000
  H   H5446     1.0  0.63185  0.29973  0.63244  1.0000
  H   H5447     1.0  0.61996  0.31320  0.63088  1.0000
  H   H5448     1.0  0.70856  0.30153  0.54895  1.0000
  C   C3195     1.0  0.58875  0.05692  0.60628  1.0000
  H   H5449     1.0  0.59263  0.06291  0.60972  1.0000
  H   H5450     1.0  0.65084  0.01403  0.62584  1.0000
  H   H5451     1.0  0.62851  0.24437  0.61608  1.0000
  C   C3196     1.0  0.74597  0.36524  0.57117  1.0000
  H   H5452     1.0  0.60290  0.24654  0.58711  1.0000
  H   H5453     1.0  0.59518  0.27007  0.60678  1.0000
  H   H5454     1.0  0.69045  0.28258  0.53858  1.0000
  N   N228      1.0  0.54345  0.36170  0.56699  1.0000
  C   C3197     1.0  0.52996  0.36333  0.57310  1.0000
  C   C3198     1.0  0.55001  0.36590  0.57445  1.0000
  C   C3199     1.0  0.54912  0.34841  0.56644  1.0000
  C   C3200     1.0  0.54468  0.36919  0.55403  1.0000
  C   C3201     1.0  0.54734  0.37994  0.57364  1.0000
  C   C3202     1.0  0.54745  0.33909  0.57882  1.0000
  C   C3203     1.0  0.55802  0.36897  0.54650  1.0000
  H   H5455     1.0  0.52879  0.35912  0.58307  1.0000
  H   H5456     1.0  0.52564  0.37325  0.57270  1.0000
  H   H5457     1.0  0.56018  0.36264  0.57204  1.0000
  H   H5458     1.0  0.54756  0.36163  0.58436  1.0000
  H   H5459     1.0  0.54554  0.34537  0.55987  1.0000
  H   H5460     1.0  0.55924  0.34723  0.56270  1.0000
  H   H5461     1.0  0.54003  0.36580  0.54859  1.0000
  H   H5462     1.0  0.53967  0.37894  0.55372  1.0000
  H   H5463     1.0  0.53736  0.38386  0.57623  1.0000
  H   H5464     1.0  0.55174  0.38181  0.58030  1.0000
  H   H5465     1.0  0.55131  0.38489  0.56439  1.0000
  H   H5466     1.0  0.55146  0.34116  0.58563  1.0000
  H   H5467     1.0  0.55243  0.32975  0.57732  1.0000
  H   H5468     1.0  0.53764  0.33862  0.58277  1.0000
  H   H5469     1.0  0.56130  0.36110  0.54172  1.0000
  H   H5470     1.0  0.56474  0.36836  0.55211  1.0000
  H   H5471     1.0  0.55836  0.37773  0.53957  1.0000
  N   N229      1.0  0.57484  0.12613  0.60628  1.0000
  C   C3204     1.0  0.58164  0.11816  0.61618  1.0000
  C   C3205     1.0  0.57501  0.11817  0.59766  1.0000
  C   C3206     1.0  0.56167  0.13039  0.61255  1.0000
  C   C3207     1.0  0.58091  0.13698  0.59991  1.0000
  C   C3208     1.0  0.58139  0.12428  0.62673  1.0000
  C   C3209     1.0  0.58785  0.11088  0.59251  1.0000
  C   C3210     1.0  0.55258  0.13775  0.60416  1.0000
  C   C3211     1.0  0.58027  0.14252  0.58627  1.0000
  H   H5472     1.0  0.57798  0.10957  0.62044  1.0000
  H   H5473     1.0  0.59158  0.11505  0.61221  1.0000
  H   H5474     1.0  0.57090  0.12361  0.58967  1.0000
  H   H5475     1.0  0.56905  0.11137  0.60233  1.0000
  H   H5476     1.0  0.55780  0.12235  0.61842  1.0000
  H   H5477     1.0  0.56115  0.13635  0.61892  1.0000
  H   H5478     1.0  0.57710  0.14465  0.60492  1.0000
  H   H5479     1.0  0.59085  0.13457  0.60015  1.0000
  H   H5480     1.0  0.58400  0.13340  0.62325  1.0000
  H   H5481     1.0  0.57224  0.12515  0.63310  1.0000
  H   H5482     1.0  0.58820  0.11829  0.63225  1.0000
  H   H5483     1.0  0.59499  0.11655  0.58961  1.0000
  H   H5484     1.0  0.59079  0.10259  0.59947  1.0000
  H   H5485     1.0  0.58744  0.10759  0.58440  1.0000
  H   H5486     1.0  0.54316  0.13946  0.60997  1.0000
  H   H5487     1.0  0.55205  0.13268  0.59741  1.0000
  H   H5488     1.0  0.55461  0.14696  0.59957  1.0000
  H   H5489     1.0  0.58608  0.13621  0.58019  1.0000
  H   H5490     1.0  0.58402  0.15107  0.58330  1.0000
  H   H5491     1.0  0.57078  0.14511  0.58463  1.0000
  N   N230      1.0  0.67961  0.37879  0.62802  1.0000
  C   C3212     1.0  0.67784  0.39153  0.61984  1.0000
  C   C3213     1.0  0.68764  0.37881  0.63653  1.0000
  C   C3214     1.0  0.66709  0.37678  0.63547  1.0000
  C   C3215     1.0  0.68532  0.36947  0.61993  1.0000
  C   C3216     1.0  0.66778  0.39468  0.61217  1.0000
  C   C3217     1.0  0.70070  0.38107  0.63017  1.0000
  C   C3218     1.0  0.66666  0.36445  0.64478  1.0000
  C   C3219     1.0  0.69188  0.35653  0.62597  1.0000
  H   H5492     1.0  0.67550  0.39881  0.62534  1.0000
  H   H5493     1.0  0.68656  0.39299  0.61314  1.0000
  H   H5494     1.0  0.68886  0.37015  0.64349  1.0000
  H   H5495     1.0  0.68312  0.38600  0.64211  1.0000
  H   H5496     1.0  0.66256  0.38432  0.64061  1.0000
  H   H5497     1.0  0.66086  0.37710  0.62936  1.0000
  H   H5498     1.0  0.67825  0.36809  0.61566  1.0000
  H   H5499     1.0  0.69232  0.37305  0.61198  1.0000
  H   H5500     1.0  0.66915  0.40289  0.60470  1.0000
  H   H5501     1.0  0.66803  0.38708  0.60783  1.0000
  H   H5502     1.0  0.65844  0.39707  0.61792  1.0000
  H   H5503     1.0  0.70046  0.39063  0.62476  1.0000
  H   H5504     1.0  0.70613  0.37984  0.63727  1.0000
  H   H5505     1.0  0.70579  0.37444  0.62419  1.0000
  H   H5506     1.0  0.66922  0.35661  0.64004  1.0000
  H   H5507     1.0  0.65698  0.36459  0.64989  1.0000
  H   H5508     1.0  0.67227  0.36284  0.65176  1.0000
  H   H5509     1.0  0.68837  0.34935  0.62385  1.0000
  H   H5510     1.0  0.69068  0.35461  0.63606  1.0000
  H   H5511     1.0  0.70193  0.35495  0.62188  1.0000
  C   C3220     1.0  0.59387  0.26846  0.62595  1.0000
  H   H5512     1.0  0.59554  0.22709  0.62126  1.0000
  H   H5513     1.0  0.50458  0.35988  0.63126  1.0000
  C   C3221     1.0  0.59319  0.04101  0.64559  1.0000
  C   C3222     1.0  0.59487  0.04528  0.63146  1.0000
  H   H5514     1.0  0.57709  0.09198  0.69082  1.0000
  C   C3223     1.0  0.56753  0.03766  0.62303  1.0000
  H   H5515     1.0  0.58537  0.09273  0.66932  1.0000
  C   C3224     1.0  0.55964  0.09994  0.70862  1.0000
  H   H5516     1.0  0.56602  0.02827  0.62784  1.0000
  C   C3225     1.0  0.59043  0.24747  0.61582  1.0000
  C   C3226     1.0  0.62134  0.24615  0.62434  1.0000
  H   H5517     1.0  0.61185  0.25800  0.58256  1.0000
  C   C3227     1.0  0.60909  0.24310  0.62412  1.0000
  H   H5518     1.0  0.61392  0.23844  0.60235  1.0000
  H   H5519     1.0  0.57218  0.18163  0.70854  1.0000
  H   H5520     1.0  0.68920  0.27982  0.55474  1.0000
  H   H5521     1.0  0.61834  0.14877  0.72638  1.0000
  C   C3228     1.0  0.58275  0.17064  0.72236  1.0000
  N   N231      1.0  0.65052  0.17766  0.59481  1.0000
  C   C3229     1.0  0.65096  0.17985  0.60708  1.0000
  C   C3230     1.0  0.65922  0.18470  0.58502  1.0000
  C   C3231     1.0  0.65518  0.16406  0.59505  1.0000
  C   C3232     1.0  0.63733  0.18169  0.59304  1.0000
  C   C3233     1.0  0.65706  0.19854  0.58509  1.0000
  C   C3234     1.0  0.65553  0.15970  0.58338  1.0000
  C   C3235     1.0  0.63535  0.18644  0.57967  1.0000
  H   H5522     1.0  0.65897  0.18406  0.57564  1.0000
  H   H5523     1.0  0.66896  0.18058  0.58596  1.0000
  H   H5524     1.0  0.66463  0.16100  0.59708  1.0000
  H   H5525     1.0  0.64930  0.15850  0.60254  1.0000
  H   H5526     1.0  0.63229  0.17404  0.59733  1.0000
  H   H5527     1.0  0.63209  0.18921  0.59796  1.0000
  H   H5528     1.0  0.64957  0.16250  0.62072  1.0000
  H   H5529     1.0  0.64717  0.20303  0.58631  1.0000
  H   H5530     1.0  0.66082  0.19994  0.59248  1.0000
  H   H5531     1.0  0.64606  0.16017  0.58233  1.0000
  H   H5532     1.0  0.66018  0.14981  0.58441  1.0000
  H   H5533     1.0  0.66081  0.16471  0.57493  1.0000
  H   H5534     1.0  0.63787  0.19554  0.57553  1.0000
  H   H5535     1.0  0.62539  0.18792  0.57971  1.0000
  H   H5536     1.0  0.64034  0.17994  0.57356  1.0000
  N   N232      1.0  0.68933  0.30887  0.53492  1.0000
  C   C3236     1.0  0.68610  0.29931  0.54636  1.0000
  C   C3237     1.0  0.68361  0.32146  0.53782  1.0000
  C   C3238     1.0  0.70308  0.30780  0.53081  1.0000
  C   C3239     1.0  0.68450  0.30692  0.52473  1.0000
  C   C3240     1.0  0.69263  0.28583  0.54587  1.0000
  C   C3241     1.0  0.66947  0.32534  0.53939  1.0000
  C   C3242     1.0  0.70972  0.30879  0.54048  1.0000
  C   C3243     1.0  0.68637  0.31627  0.51234  1.0000
  H   H5537     1.0  0.68806  0.30135  0.55451  1.0000
  H   H5538     1.0  0.67602  0.29949  0.54866  1.0000
  H   H5539     1.0  0.68769  0.32873  0.53072  1.0000
  H   H5540     1.0  0.68584  0.32217  0.54643  1.0000
  H   H5541     1.0  0.70757  0.29902  0.52765  1.0000
  H   H5542     1.0  0.59929  0.39390  0.50114  1.0000
  H   H5543     1.0  0.51793  0.16536  0.65717  1.0000
  Fe  Fe461     1.0  0.64865  0.36336  0.48614  1.0000
  H   H5544     1.0  0.52251  0.34280  0.63695  1.0000
  H   H5545     1.0  0.60440  0.16529  0.70653  1.0000
  H   H5546     1.0  0.74599  0.36162  0.58109  1.0000
  H   H5547     1.0  0.51588  0.36447  0.63613  1.0000
  H   H5548     1.0  0.50282  0.37015  0.60536  1.0000
  C   C3244     1.0  0.74565  0.40165  0.57784  1.0000
  H   H5549     1.0  0.64777  0.99659  0.62000  1.0000
  H   H5550     1.0  0.58551  0.40466  0.49972  1.0000
  Fe  Fe462     1.0  0.62805  0.99310  0.59207  1.0000
  H   H5551     1.0  0.50588  0.31793  0.65907  1.0000
  C   C3245     1.0  0.74589  0.39056  0.57254  1.0000
  H   H5552     1.0  0.55346  0.10349  0.71670  1.0000
  H   H5553     1.0  0.74275  0.39433  0.56364  1.0000
  H   H5554     1.0  0.73679  0.37118  0.57018  1.0000
  H   H5555     1.0  0.59981  0.40999  0.49513  1.0000
  H   H5556     1.0  0.49815  0.33567  0.67444  1.0000
  C   C3246     1.0  0.59992  0.17820  0.72485  1.0000
  H   H5557     1.0  0.62236  0.16230  0.71509  1.0000
  H   H5558     1.0  0.61954  0.39816  0.49309  1.0000
  H   H5559     1.0  0.57637  0.17675  0.72845  1.0000
  H   H5560     1.0  0.50020  0.31545  0.64255  1.0000
  H   H5561     1.0  0.61626  0.18297  0.72714  1.0000
  Fe  Fe463     1.0  0.50158  0.12812  0.63971  1.0000
  C   C3247     1.0  0.59916  0.37326  0.48678  1.0000
  H   H5562     1.0  0.49836  0.34325  0.63148  1.0000
  H   H5563     1.0  0.65524  0.99007  0.63941  1.0000
  H   H5564     1.0  0.61574  0.16736  0.73411  1.0000
  H   H5565     1.0  0.63039  0.38599  0.48637  1.0000
  H   H5566     1.0  0.74700  0.35727  0.56695  1.0000
  C   C3248     1.0  0.66333  0.03628  0.91485  1.0000
  S   S928      1.0  0.61697  0.16681  0.96610  1.0000
  S   S929      1.0  0.71946  0.11889  0.84670  1.0000
  Fe  Fe464     1.0  0.70606  0.08959  0.86272  1.0000
  S   S930      1.0  0.69423  0.10752  0.85523  1.0000
  S   S931      1.0  0.69725  0.07304  0.87238  1.0000
  Fe  Fe465     1.0  0.71021  0.10845  0.83914  1.0000
  S   S932      1.0  0.70776  0.11297  0.81947  1.0000
  Fe  Fe466     1.0  0.70465  0.11617  0.86358  1.0000
  S   S933      1.0  0.69881  0.13248  0.87250  1.0000
  S   S934      1.0  0.71505  0.09824  0.87269  1.0000
  Fe  Fe467     1.0  0.63914  0.01665  0.86488  1.0000
  S   S935      1.0  0.62157  0.03065  0.86840  1.0000
  Fe  Fe468     1.0  0.65525  0.03636  0.85775  1.0000
  S   S936      1.0  0.63879  0.05171  0.85996  1.0000
  S   S937      1.0  0.67477  0.03986  0.85122  1.0000
  Fe  Fe469     1.0  0.63191  0.03889  0.87729  1.0000
  S   S938      1.0  0.62293  0.04682  0.89429  1.0000
  Fe  Fe470     1.0  0.63011  0.04209  0.85095  1.0000
  S   S939      1.0  0.61882  0.05293  0.83707  1.0000
  S   S940      1.0  0.64887  0.02375  0.87562  1.0000
  S   S941      1.0  0.64721  0.02788  0.84683  1.0000
  Fe  Fe471     1.0  0.61837  0.12346  0.92220  1.0000
  S   S942      1.0  0.63836  0.11978  0.91278  1.0000
  S   S943      1.0  0.61492  0.12287  0.94286  1.0000
  Fe  Fe472     1.0  0.61008  0.12622  0.89792  1.0000
  S   S944      1.0  0.62937  0.12312  0.88715  1.0000
  S   S945      1.0  0.59484  0.12981  0.88755  1.0000
  Fe  Fe473     1.0  0.63304  0.10781  0.90322  1.0000
  S   S946      1.0  0.64519  0.09015  0.89842  1.0000
  Fe  Fe474     1.0  0.63235  0.13537  0.89781  1.0000
  S   S947      1.0  0.64178  0.15125  0.88921  1.0000
  S   S948      1.0  0.61345  0.11013  0.91368  1.0000
  S   S949      1.0  0.61269  0.13980  0.90760  1.0000
  Fe  Fe475     1.0  0.61833  0.12883  0.81612  1.0000
  S   S950      1.0  0.63695  0.11997  0.82040  1.0000
  S   S951      1.0  0.60091  0.13022  0.83083  1.0000
  Fe  Fe476     1.0  0.62818  0.13375  0.78809  1.0000
  S   S952      1.0  0.64779  0.12584  0.79042  1.0000
  S   S953      1.0  0.62573  0.13903  0.76820  1.0000
  Fe  Fe477     1.0  0.63977  0.11101  0.80453  1.0000
  S   S954      1.0  0.65013  0.09165  0.80444  1.0000
  Fe  Fe478     1.0  0.64319  0.13569  0.80597  1.0000
  S   S955      1.0  0.65527  0.14509  0.81150  1.0000
  S   S956      1.0  0.62048  0.11827  0.80149  1.0000
  S   S957      1.0  0.62425  0.14528  0.80242  1.0000
  C   C3249     1.0  0.59739  0.13007  0.87161  1.0000
  C   C3250     1.0  0.60917  0.12717  0.86421  1.0000
  C   C3251     1.0  0.61050  0.12726  0.85160  1.0000
  C   C3252     1.0  0.60006  0.13035  0.84636  1.0000
  C   C3253     1.0  0.58837  0.13314  0.85380  1.0000
  C   C3254     1.0  0.58705  0.13302  0.86629  1.0000
  H   H5567     1.0  0.61721  0.12465  0.86821  1.0000
  H   H5568     1.0  0.61952  0.12480  0.84595  1.0000
  H   H5569     1.0  0.58024  0.13541  0.84989  1.0000
  H   H5570     1.0  0.57791  0.13520  0.87189  1.0000
  C   C3255     1.0  0.62732  0.06361  0.82751  1.0000
  C   C3256     1.0  0.64008  0.05993  0.82367  1.0000
  C   C3257     1.0  0.64703  0.06859  0.81640  1.0000
  C   C3258     1.0  0.64128  0.08097  0.81339  1.0000
  C   C3259     1.0  0.62856  0.08468  0.81745  1.0000
  C   C3260     1.0  0.62152  0.07594  0.82428  1.0000
  H   H5571     1.0  0.64458  0.05040  0.82625  1.0000
  H   H5572     1.0  0.65688  0.06570  0.81328  1.0000
  H   H5573     1.0  0.62411  0.09425  0.81541  1.0000
  H   H5574     1.0  0.61167  0.07880  0.82743  1.0000
  C   C3261     1.0  0.62864  0.05936  0.89506  1.0000
  C   C3262     1.0  0.62234  0.06669  0.90371  1.0000
  C   C3263     1.0  0.62700  0.07659  0.90448  1.0000
  C   C3264     1.0  0.63805  0.07909  0.89666  1.0000
  C   C3265     1.0  0.64418  0.07189  0.88790  1.0000
  C   C3266     1.0  0.63950  0.06208  0.88708  1.0000
  H   H5575     1.0  0.61390  0.06464  0.90990  1.0000
  H   H5576     1.0  0.62227  0.08203  0.91137  1.0000
  H   H5577     1.0  0.65272  0.07375  0.88191  1.0000
  H   H5578     1.0  0.64456  0.05635  0.88056  1.0000
  C   C3267     1.0  0.69096  0.06551  0.86461  1.0000
  C   C3268     1.0  0.67811  0.06737  0.86598  1.0000
  C   C3269     1.0  0.67291  0.05965  0.86191  1.0000
  C   C3270     1.0  0.68059  0.05005  0.85637  1.0000
  C   C3271     1.0  0.69342  0.04849  0.85467  1.0000
  C   C3272     1.0  0.69857  0.05606  0.85888  1.0000
  H   H5579     1.0  0.67221  0.07461  0.87049  1.0000
  H   H5580     1.0  0.66301  0.06105  0.86316  1.0000
  H   H5581     1.0  0.69943  0.04113  0.85038  1.0000
  H   H5582     1.0  0.70845  0.05432  0.85804  1.0000
  C   C3273     1.0  0.69333  0.12226  0.81714  1.0000
  C   C3274     1.0  0.68553  0.12851  0.82613  1.0000
  C   C3275     1.0  0.67393  0.13560  0.82425  1.0000
  C   C3276     1.0  0.66983  0.13607  0.81364  1.0000
  C   C3277     1.0  0.67760  0.12980  0.80466  1.0000
  C   C3278     1.0  0.68945  0.12320  0.80626  1.0000
  H   H5583     1.0  0.68854  0.12814  0.83440  1.0000
  H   H5584     1.0  0.66813  0.14073  0.83103  1.0000
  H   H5585     1.0  0.67460  0.13034  0.79631  1.0000
  H   H5586     1.0  0.69555  0.11866  0.79912  1.0000
  C   C3279     1.0  0.68286  0.13755  0.87639  1.0000
  C   C3280     1.0  0.67812  0.14993  0.87699  1.0000
  C   C3281     1.0  0.66541  0.15418  0.88050  1.0000
  C   C3282     1.0  0.65747  0.14594  0.88383  1.0000
  C   C3283     1.0  0.66216  0.13354  0.88320  1.0000
  C   C3284     1.0  0.67489  0.12936  0.87930  1.0000
  H   H5587     1.0  0.68430  0.15625  0.87469  1.0000
  H   H5588     1.0  0.66177  0.16378  0.88091  1.0000
  H   H5589     1.0  0.65603  0.12714  0.88578  1.0000
  H   H5590     1.0  0.67857  0.11976  0.87890  1.0000
  H   H5591     1.0  0.61550  0.00848  0.85968  1.0000
  C   C3285     1.0  0.61688  0.15450  0.95951  1.0000
  C   C3286     1.0  0.61129  0.15703  0.94936  1.0000
  C   C3287     1.0  0.61083  0.14746  0.94403  1.0000
  C   C3288     1.0  0.61616  0.13525  0.94868  1.0000
  C   C3289     1.0  0.62199  0.13274  0.95867  1.0000
  C   C3290     1.0  0.62242  0.14233  0.96401  1.0000
  H   H5592     1.0  0.60707  0.16643  0.94574  1.0000
  H   H5593     1.0  0.60624  0.14952  0.93640  1.0000
  H   H5594     1.0  0.62616  0.12333  0.96232  1.0000
  H   H5595     1.0  0.62701  0.14031  0.97164  1.0000
  C   C3291     1.0  0.59817  0.12675  0.75357  1.0000
  H   H5596     1.0  0.72893  0.13130  0.81923  1.0000
  C   C3292     1.0  0.61786  0.13250  0.75065  1.0000
  C   C3293     1.0  0.61533  0.13355  0.76301  1.0000
  C   C3294     1.0  0.60436  0.13079  0.77074  1.0000
  C   C3295     1.0  0.59579  0.12750  0.76601  1.0000
  C   C3296     1.0  0.68590  0.03930  0.92192  1.0000
  H   H5597     1.0  0.60226  0.13161  0.78027  1.0000
  H   H5598     1.0  0.58715  0.12574  0.77198  1.0000
  S   S958      1.0  0.72168  0.09007  0.84618  1.0000
  C   C3297     1.0  0.67515  0.03221  0.88939  1.0000
  C   C3298     1.0  0.59426  0.15838  0.73795  1.0000
  H   H5599     1.0  0.57533  0.16456  0.74787  1.0000
  C   C3299     1.0  0.61919  0.08495  0.77024  1.0000
  H   H5600     1.0  0.60316  0.15496  0.74095  1.0000
  H   H5601     1.0  0.65456  0.10759  0.83927  1.0000
  S   S959      1.0  0.63967  0.99641  0.86566  1.0000
  H   H5602     1.0  0.67985  0.04706  0.92598  1.0000
  H   H5603     1.0  0.62559  0.07984  0.76326  1.0000
  H   H5604     1.0  0.66042  0.99247  0.84048  1.0000
  H   H5605     1.0  0.64981  0.09920  0.77120  1.0000
  H   H5606     1.0  0.67672  0.06816  0.89219  1.0000
  H   H5607     1.0  0.73318  0.12178  0.91526  1.0000
  C   C3300     1.0  0.58962  0.14042  0.97779  1.0000
  H   H5608     1.0  0.69545  0.04009  0.92152  1.0000
  C   C3301     1.0  0.60952  0.09455  0.76364  1.0000
  C   C3302     1.0  0.64986  0.00587  0.80851  1.0000
  H   H5609     1.0  0.66999  0.07598  0.90454  1.0000
  H   H5610     1.0  0.67943  0.04982  0.88698  1.0000
  H   H5611     1.0  0.62353  0.14513  0.86692  1.0000
  H   H5612     1.0  0.68960  0.06656  0.81487  1.0000
  H   H5613     1.0  0.68443  0.02683  0.89064  1.0000
  H   H5614     1.0  0.64488  0.04845  0.91466  1.0000
  H   H5615     1.0  0.61432  0.10569  0.78375  1.0000
  H   H5616     1.0  0.60992  0.07986  0.79811  1.0000
  H   H5617     1.0  0.70516  0.07708  0.84006  1.0000
  H   H5618     1.0  0.64416  0.02213  0.79451  1.0000
  C   C3303     1.0  0.63002  0.15154  0.86272  1.0000
  C   C3304     1.0  0.66991  0.09923  0.82638  1.0000
  H   H5619     1.0  0.66737  0.02646  0.91433  1.0000
  H   H5620     1.0  0.64489  0.03239  0.91932  1.0000
  H   H5621     1.0  0.60375  0.11548  0.97606  1.0000
  H   H5622     1.0  0.61396  0.09949  0.75457  1.0000
  H   H5623     1.0  0.63748  0.14784  0.86791  1.0000
  H   H5624     1.0  0.68792  0.03014  0.90742  1.0000
  N   N233      1.0  0.64022  0.00706  0.82017  1.0000
  H   H5625     1.0  0.64768  0.12949  0.86485  1.0000
  N   N234      1.0  0.68021  0.08809  0.82488  1.0000
  H   H5626     1.0  0.58978  0.12596  0.96233  1.0000
  H   H5627     1.0  0.73893  0.12888  0.92429  1.0000
  H   H5628     1.0  0.70180  0.06984  0.82974  1.0000
  H   H5629     1.0  0.61618  0.03169  0.82786  1.0000
  H   H5630     1.0  0.68747  0.05947  0.83108  1.0000
  N   N235      1.0  0.61201  0.08725  0.86509  1.0000
  C   C3305     1.0  0.62213  0.08481  0.85404  1.0000
  C   C3306     1.0  0.60967  0.07485  0.87255  1.0000
  C   C3307     1.0  0.61692  0.09323  0.87251  1.0000
  C   C3308     1.0  0.60084  0.09559  0.86059  1.0000
  C   C3309     1.0  0.62635  0.09619  0.84497  1.0000
  C   C3310     1.0  0.60408  0.06770  0.86649  1.0000
  C   C3311     1.0  0.60837  0.09641  0.88451  1.0000
  C   C3312     1.0  0.58832  0.09638  0.86991  1.0000
  H   H5631     1.0  0.63052  0.07857  0.85703  1.0000
  H   H5632     1.0  0.61927  0.07998  0.84839  1.0000
  H   H5633     1.0  0.60364  0.07539  0.88169  1.0000
  H   H5634     1.0  0.61844  0.06878  0.87471  1.0000
  H   H5635     1.0  0.62565  0.08729  0.87498  1.0000
  H   H5636     1.0  0.61929  0.10209  0.86704  1.0000
  H   H5637     1.0  0.60237  0.10515  0.85706  1.0000
  H   H5638     1.0  0.59953  0.09286  0.85247  1.0000
  H   H5639     1.0  0.61867  0.10281  0.84108  1.0000
  H   H5640     1.0  0.63101  0.10094  0.84908  1.0000
  H   H5641     1.0  0.63331  0.09305  0.83707  1.0000
  H   H5642     1.0  0.59545  0.07313  0.86357  1.0000
  H   H5643     1.0  0.61073  0.06435  0.85859  1.0000
  H   H5644     1.0  0.60181  0.05933  0.87331  1.0000
  H   H5645     1.0  0.60015  0.10365  0.88273  1.0000
  H   H5646     1.0  0.61345  0.10037  0.88903  1.0000
  H   H5647     1.0  0.60562  0.08829  0.89129  1.0000
  H   H5648     1.0  0.58441  0.10612  0.87080  1.0000
  H   H5649     1.0  0.58865  0.09085  0.87928  1.0000
  H   H5650     1.0  0.58156  0.09351  0.86642  1.0000
  H   H5651     1.0  0.61661  0.15707  0.82701  1.0000
  H   H5652     1.0  0.62898  0.07075  0.79890  1.0000
  H   H5653     1.0  0.68334  0.08217  0.84351  1.0000
  H   H5654     1.0  0.73563  0.13742  0.91006  1.0000
  C   C3313     1.0  0.62330  0.99865  0.81539  1.0000
  C   C3314     1.0  0.63337  0.06860  0.78971  1.0000
  C   C3315     1.0  0.68115  0.09326  0.80145  1.0000
  N   N236      1.0  0.67160  0.04459  0.90634  1.0000
  H   H5655     1.0  0.65882  0.13717  0.85328  1.0000
  C   C3316     1.0  0.66187  0.09906  0.83948  1.0000
  C   C3317     1.0  0.62338  0.16416  0.86595  1.0000
  H   H5656     1.0  0.64711  0.15939  0.83314  1.0000
  H   H5657     1.0  0.62939  0.17100  0.86243  1.0000
  C   C3318     1.0  0.65149  0.13201  0.85486  1.0000
  C   C3319     1.0  0.68444  0.03976  0.90881  1.0000
  H   H5658     1.0  0.64335  0.07687  0.77220  1.0000
  H   H5659     1.0  0.66808  0.02665  0.89430  1.0000
  H   H5660     1.0  0.62471  0.10786  0.76361  1.0000
  H   H5661     1.0  0.65775  0.00999  0.80822  1.0000
  H   H5662     1.0  0.60115  0.00126  0.85160  1.0000
  H   H5663     1.0  0.63702  0.17036  0.84117  1.0000
  H   H5664     1.0  0.73036  0.12969  0.89511  1.0000
  H   H5665     1.0  0.64236  0.08364  0.78477  1.0000
  C   C3320     1.0  0.65322  0.16111  0.84862  1.0000
  H   H5666     1.0  0.63200  0.15948  0.82380  1.0000
  S   S960      1.0  0.58673  0.12336  0.74792  1.0000
  H   H5667     1.0  0.59987  0.09189  0.78961  1.0000
  H   H5668     1.0  0.68793  0.09424  0.79257  1.0000
  C   C3321     1.0  0.63684  0.08009  0.78034  1.0000
  C   C3322     1.0  0.59386  0.11767  0.98078  1.0000
  N   N237      1.0  0.62635  0.09011  0.77628  1.0000
  H   H5669     1.0  0.62092  0.16300  0.87614  1.0000
  H   H5670     1.0  0.74089  0.12391  0.85415  1.0000
  H   H5671     1.0  0.66342  0.10051  0.82024  1.0000
  C   C3323     1.0  0.61838  0.09577  0.78694  1.0000
  H   H5672     1.0  0.60340  0.09409  0.80296  1.0000
  H   H5673     1.0  0.65715  0.09117  0.84276  1.0000
  H   H5674     1.0  0.63831  0.02680  0.81749  1.0000
  H   H5675     1.0  0.68362  0.06431  0.90559  1.0000
  H   H5676     1.0  0.70727  0.08415  0.82414  1.0000
  H   H5677     1.0  0.61459  0.16779  0.86269  1.0000
  H   H5678     1.0  0.62411  0.09572  0.79339  1.0000
  C   C3324     1.0  0.61773  0.99918  0.85816  1.0000
  H   H5679     1.0  0.63718  0.09639  0.75820  1.0000
  C   C3325     1.0  0.60958  0.99503  0.85362  1.0000
  H   H5680     1.0  0.66377  0.05761  0.91858  1.0000
  H   H5681     1.0  0.68894  0.09559  0.83507  1.0000
  H   H5682     1.0  0.67681  0.08551  0.80203  1.0000
  H   H5683     1.0  0.58837  0.11033  0.96787  1.0000
  H   H5684     1.0  0.66639  0.07942  0.82258  1.0000
  N   N238      1.0  0.63466  0.15157  0.84919  1.0000
  H   H5685     1.0  0.61864  0.16482  0.84368  1.0000
  C   C3326     1.0  0.68791  0.09079  0.81207  1.0000
  H   H5686     1.0  0.62803  0.02274  0.81099  1.0000
  H   H5687     1.0  0.64577  0.13882  0.83762  1.0000
  H   H5688     1.0  0.60394  0.10141  0.76920  1.0000
  H   H5689     1.0  0.65610  0.12319  0.85185  1.0000
  H   H5690     1.0  0.65228  0.01239  0.82868  1.0000
  C   C3327     1.0  0.64080  0.10563  0.77059  1.0000
  H   H5691     1.0  0.64962  0.03877  0.90342  1.0000
  H   H5692     1.0  0.65349  0.17083  0.84813  1.0000
  H   H5693     1.0  0.67416  0.10202  0.80105  1.0000
  H   H5694     1.0  0.69201  0.09886  0.81094  1.0000
  C   C3328     1.0  0.64270  0.16082  0.84265  1.0000
  C   C3329     1.0  0.67441  0.07711  0.82713  1.0000
  H   H5695     1.0  0.64279  0.11395  0.76353  1.0000
  H   H5696     1.0  0.63669  0.10865  0.77943  1.0000
  H   H5697     1.0  0.68410  0.03051  0.92821  1.0000
  H   H5698     1.0  0.66256  0.03663  0.92461  1.0000
  C   C3330     1.0  0.68277  0.06514  0.82358  1.0000
  N   N239      1.0  0.65132  0.14841  0.92463  1.0000
  C   C3331     1.0  0.63903  0.14895  0.92186  1.0000
  C   C3332     1.0  0.65803  0.13508  0.92641  1.0000
  C   C3333     1.0  0.65836  0.15622  0.91369  1.0000
  C   C3334     1.0  0.64888  0.15348  0.93608  1.0000
  C   C3335     1.0  0.63102  0.16194  0.91853  1.0000
  C   C3336     1.0  0.65174  0.12600  0.93714  1.0000
  C   C3337     1.0  0.67256  0.15209  0.91053  1.0000
  C   C3338     1.0  0.66021  0.15248  0.94132  1.0000
  H   H5699     1.0  0.64033  0.14424  0.91420  1.0000
  H   H5700     1.0  0.63327  0.14384  0.92977  1.0000
  H   H5701     1.0  0.66740  0.13399  0.92804  1.0000
  H   H5702     1.0  0.65947  0.13161  0.91782  1.0000
  H   H5703     1.0  0.65547  0.15656  0.90507  1.0000
  H   H5704     1.0  0.65617  0.16600  0.91466  1.0000
  H   H5705     1.0  0.64440  0.16342  0.93443  1.0000
  H   H5706     1.0  0.64217  0.14892  0.94357  1.0000
  H   H5707     1.0  0.62256  0.16097  0.91618  1.0000
  H   H5708     1.0  0.62791  0.16668  0.92639  1.0000
  H   H5709     1.0  0.63571  0.16784  0.91035  1.0000
  H   H5710     1.0  0.65014  0.12860  0.94614  1.0000
  H   H5711     1.0  0.64298  0.12491  0.93561  1.0000
  H   H5712     1.0  0.65791  0.11673  0.93779  1.0000
  H   H5713     1.0  0.67529  0.14359  0.90672  1.0000
  H   H5714     1.0  0.67694  0.15058  0.91845  1.0000
  H   H5715     1.0  0.67643  0.15934  0.90318  1.0000
  H   H5716     1.0  0.66502  0.14279  0.94403  1.0000
  H   H5717     1.0  0.65708  0.15632  0.94981  1.0000
  H   H5718     1.0  0.66670  0.15800  0.93481  1.0000
  H   H5719     1.0  0.58547  0.16038  0.97532  1.0000
  C   C3339     1.0  0.64133  0.13874  0.84746  1.0000
  H   H5720     1.0  0.73874  0.11155  0.82391  1.0000
  H   H5721     1.0  0.58158  0.14172  0.97363  1.0000
  C   C3340     1.0  0.66647  0.05750  0.90860  1.0000
  C   C3341     1.0  0.63201  0.09996  0.76664  1.0000
  H   H5722     1.0  0.65237  0.15663  0.85845  1.0000
  H   H5723     1.0  0.65390  0.99598  0.80825  1.0000
  H   H5724     1.0  0.69124  0.04481  0.90196  1.0000
  H   H5725     1.0  0.59755  0.14038  0.96984  1.0000
  H   H5726     1.0  0.62881  0.14406  0.82917  1.0000
  H   H5727     1.0  0.62640  0.13450  0.74465  1.0000
  H   H5728     1.0  0.63744  0.00919  0.79552  1.0000
  H   H5729     1.0  0.66347  0.05014  0.89015  1.0000
  C   C3342     1.0  0.68796  0.08645  0.83422  1.0000
  H   H5730     1.0  0.62764  0.99626  0.83313  1.0000
  C   C3343     1.0  0.73686  0.12689  0.88690  1.0000
  H   H5731     1.0  0.67020  0.07444  0.83706  1.0000
  H   H5732     1.0  0.61142  0.12824  0.73643  1.0000
  Fe  Fe479     1.0  0.72954  0.10057  0.85536  1.0000
  H   H5733     1.0  0.61637  0.14952  0.84903  1.0000
  H   H5734     1.0  0.67366  0.10779  0.82363  1.0000
  H   H5735     1.0  0.63464  0.13259  0.84992  1.0000
  H   H5736     1.0  0.61537  0.99454  0.82119  1.0000
  C   C3344     1.0  0.62553  0.15379  0.83011  1.0000
  C   C3345     1.0  0.70125  0.07888  0.83173  1.0000
  H   H5737     1.0  0.66231  0.15684  0.84354  1.0000
  C   C3346     1.0  0.63242  0.01996  0.81908  1.0000
  C   C3347     1.0  0.67484  0.06685  0.90232  1.0000
  H   H5738     1.0  0.61426  0.07806  0.77695  1.0000
  H   H5739     1.0  0.65771  0.06147  0.90532  1.0000
  H   H5740     1.0  0.62755  0.06413  0.78667  1.0000
  H   H5741     1.0  0.67694  0.05960  0.82196  1.0000
  C   C3348     1.0  0.63265  0.99730  0.82341  1.0000
  C   C3349     1.0  0.62336  0.15507  0.84356  1.0000
  C   C3350     1.0  0.65000  0.03927  0.91280  1.0000
  H   H5742     1.0  0.62528  0.02206  0.83844  1.0000
  H   H5743     1.0  0.67516  0.03375  0.87944  1.0000
  C   C3351     1.0  0.60737  0.08991  0.79471  1.0000
  H   H5744     1.0  0.64197  0.06167  0.79098  1.0000
  C   C3352     1.0  0.67220  0.04485  0.89302  1.0000
  H   H5745     1.0  0.59136  0.14992  0.73771  1.0000
  H   H5746     1.0  0.69603  0.08327  0.81039  1.0000
  C   C3353     1.0  0.60940  0.12897  0.74597  1.0000
  H   H5747     1.0  0.60566  0.17969  0.74117  1.0000
  H   H5748     1.0  0.66725  0.09906  0.84622  1.0000
  H   H5749     1.0  0.57649  0.12205  0.97389  1.0000
  C   C3354     1.0  0.73933  0.12800  0.91479  1.0000
  C   C3355     1.0  0.64693  0.00506  0.83045  1.0000
  H   H5750     1.0  0.73763  0.13509  0.87928  1.0000
  H   H5751     1.0  0.58636  0.15772  0.75741  1.0000
  C   C3356     1.0  0.62183  0.02229  0.83021  1.0000
  C   C3357     1.0  0.58656  0.11926  0.97073  1.0000
  H   H5752     1.0  0.61911  0.00827  0.81167  1.0000
  C   C3358     1.0  0.58499  0.16395  0.74845  1.0000
  H   H5753     1.0  0.64033  0.00576  0.83932  1.0000
  H   H5754     1.0  0.58626  0.17312  0.74864  1.0000
  H   H5755     1.0  0.62753  0.99366  0.80775  1.0000
  C   C3359     1.0  0.58805  0.15221  0.98255  1.0000
  C   C3360     1.0  0.74518  0.11745  0.82361  1.0000
  H   H5756     1.0  0.65326  0.00903  0.78854  1.0000
  H   H5757     1.0  0.60308  0.08983  0.76180  1.0000
  H   H5758     1.0  0.74011  0.12358  0.79918  1.0000
  H   H5759     1.0  0.74443  0.14401  0.89147  1.0000
  H   H5760     1.0  0.73268  0.12085  0.88375  1.0000
  H   H5761     1.0  0.61553  0.01579  0.83255  1.0000
  C   C3361     1.0  0.73852  0.13104  0.81984  1.0000
  H   H5762     1.0  0.73762  0.13615  0.82711  1.0000
  C   C3362     1.0  0.64574  0.01193  0.79618  1.0000
  C   C3363     1.0  0.65598  0.99256  0.83293  1.0000
  H   H5763     1.0  0.66348  0.99105  0.82482  1.0000
  H   H5764     1.0  0.74275  0.13627  0.81095  1.0000
  C   C3364     1.0  0.62878  0.99133  0.86062  1.0000
  H   H5765     1.0  0.61088  0.12852  0.98397  1.0000
  H   H5766     1.0  0.59686  0.15304  0.98422  1.0000
  H   H5767     1.0  0.74593  0.11610  0.83335  1.0000
  S   S961      1.0  0.61512  0.65283  0.20803  1.0000
  Fe  Fe480     1.0  0.73307  0.59902  0.10098  1.0000
  S   S962      1.0  0.72079  0.61616  0.09272  1.0000
  Fe  Fe481     1.0  0.71346  0.58340  0.10478  1.0000
  S   S963      1.0  0.69996  0.59948  0.09677  1.0000
  S   S964      1.0  0.70914  0.56427  0.11180  1.0000
  Fe  Fe482     1.0  0.71646  0.60419  0.08256  1.0000
  S   S965      1.0  0.71753  0.61064  0.06223  1.0000
  Fe  Fe483     1.0  0.70557  0.60980  0.10781  1.0000
  S   S966      1.0  0.69089  0.62378  0.11687  1.0000
  S   S967      1.0  0.72969  0.58737  0.08963  1.0000
  S   S968      1.0  0.71802  0.59338  0.11702  1.0000
  Fe  Fe484     1.0  0.66115  0.53364  0.09855  1.0000
  S   S969      1.0  0.64438  0.54640  0.10641  1.0000
  S   S970      1.0  0.67700  0.54317  0.08795  1.0000
  Fe  Fe485     1.0  0.64709  0.51218  0.10547  1.0000
  S   S971      1.0  0.62936  0.52373  0.11376  1.0000
  C   C3365     1.0  0.62420  0.58268  0.09981  1.0000
  Fe  Fe486     1.0  0.63415  0.53858  0.09728  1.0000
  S   S972      1.0  0.62096  0.55200  0.08619  1.0000
  Fe  Fe487     1.0  0.64154  0.53035  0.12201  1.0000
  S   S973      1.0  0.63744  0.53342  0.14132  1.0000
  S   S974      1.0  0.65105  0.52660  0.08834  1.0000
  S   S975      1.0  0.65912  0.51787  0.11487  1.0000
  Fe  Fe488     1.0  0.60766  0.61674  0.16428  1.0000
  S   S976      1.0  0.61712  0.59687  0.16482  1.0000
  S   S977      1.0  0.59566  0.62157  0.18208  1.0000
  Fe  Fe489     1.0  0.61829  0.62431  0.13687  1.0000
  S   S978      1.0  0.62868  0.60523  0.13519  1.0000
  S   S979      1.0  0.61910  0.64027  0.12071  1.0000
  Fe  Fe490     1.0  0.61141  0.59943  0.14697  1.0000
  S   S980      1.0  0.60352  0.58638  0.14123  1.0000
  Fe  Fe491     1.0  0.63341  0.60455  0.15309  1.0000
  S   S981      1.0  0.65246  0.59593  0.15647  1.0000
  S   S982      1.0  0.60050  0.61868  0.14729  1.0000
  S   S983      1.0  0.62449  0.62424  0.15388  1.0000
  Fe  Fe492     1.0  0.64406  0.60783  0.04585  1.0000
  S   S984      1.0  0.62531  0.61809  0.04273  1.0000
  S   S985      1.0  0.65113  0.58784  0.04531  1.0000
  Fe  Fe493     1.0  0.65204  0.63057  0.04696  1.0000
  S   S986      1.0  0.63401  0.64290  0.04366  1.0000
  S   S987      1.0  0.66662  0.63968  0.04824  1.0000
  Fe  Fe494     1.0  0.62583  0.62771  0.05723  1.0000
  S   S988      1.0  0.60939  0.63183  0.07221  1.0000
  Fe  Fe495     1.0  0.63531  0.63219  0.02943  1.0000
  S   S989      1.0  0.63417  0.64020  0.00947  1.0000
  S   S990      1.0  0.64377  0.61612  0.06161  1.0000
  S   S991      1.0  0.65416  0.62113  0.03162  1.0000
  H   H5768     1.0  0.62050  0.52349  0.06970  1.0000
  C   C3366     1.0  0.62180  0.63997  0.00321  1.0000
  C   C3367     1.0  0.61053  0.63769  0.01063  1.0000
  C   C3368     1.0  0.60099  0.63736  0.00520  1.0000
  C   C3369     1.0  0.60269  0.63922  0.99236  1.0000
  H   H5769     1.0  0.56934  0.62782  0.22925  1.0000
  C   C3370     1.0  0.62346  0.64191  0.99038  1.0000
  H   H5770     1.0  0.60915  0.63627  0.02054  1.0000
  C   C3371     1.0  0.61367  0.59236  0.10546  1.0000
  C   C3372     1.0  0.64498  0.52150  0.04459  1.0000
  H   H5771     1.0  0.63503  0.60488  0.99195  1.0000
  C   C3373     1.0  0.61653  0.63768  0.10727  1.0000
  C   C3374     1.0  0.60955  0.64719  0.09997  1.0000
  C   C3375     1.0  0.60756  0.64543  0.08908  1.0000
  C   C3376     1.0  0.61319  0.63444  0.08503  1.0000
  C   C3377     1.0  0.62072  0.62512  0.09200  1.0000
  C   C3378     1.0  0.62194  0.62653  0.10339  1.0000
  H   H5772     1.0  0.60538  0.65583  0.10290  1.0000
  H   H5773     1.0  0.60168  0.65262  0.08377  1.0000
  H   H5774     1.0  0.62513  0.61664  0.08887  1.0000
  H   H5775     1.0  0.62728  0.61916  0.10904  1.0000
  C   C3379     1.0  0.64254  0.57830  0.05691  1.0000
  C   C3380     1.0  0.64873  0.56730  0.06324  1.0000
  C   C3381     1.0  0.64207  0.55946  0.07244  1.0000
  C   C3382     1.0  0.62918  0.56219  0.07492  1.0000
  C   C3383     1.0  0.62294  0.57309  0.06840  1.0000
  C   C3384     1.0  0.62963  0.58133  0.05965  1.0000
  H   H5776     1.0  0.65869  0.56487  0.06120  1.0000
  H   H5777     1.0  0.64701  0.55125  0.07751  1.0000
  H   H5778     1.0  0.61297  0.57521  0.07020  1.0000
  H   H5779     1.0  0.62482  0.58986  0.05484  1.0000
  C   C3385     1.0  0.62745  0.54779  0.14195  1.0000
  C   C3386     1.0  0.62701  0.55414  0.15099  1.0000
  C   C3387     1.0  0.61986  0.56614  0.15073  1.0000
  C   C3388     1.0  0.61265  0.57148  0.14183  1.0000
  C   C3389     1.0  0.61263  0.56485  0.13322  1.0000
  C   C3390     1.0  0.62024  0.55316  0.13308  1.0000
  H   H5780     1.0  0.63231  0.54987  0.15807  1.0000
  H   H5781     1.0  0.61970  0.57114  0.15756  1.0000
  H   H5782     1.0  0.60681  0.56879  0.12659  1.0000
  H   H5783     1.0  0.62034  0.54821  0.12623  1.0000
  C   C3391     1.0  0.69993  0.55873  0.10518  1.0000
  C   C3392     1.0  0.69261  0.56659  0.09707  1.0000
  C   C3393     1.0  0.68493  0.56187  0.09251  1.0000
  C   C3394     1.0  0.68479  0.54923  0.09566  1.0000
  C   C3395     1.0  0.69205  0.54142  0.10380  1.0000
  C   C3396     1.0  0.69946  0.54617  0.10865  1.0000
  H   H5784     1.0  0.69273  0.57631  0.09451  1.0000
  H   H5785     1.0  0.67917  0.56799  0.08643  1.0000
  H   H5786     1.0  0.69219  0.53163  0.10614  1.0000
  H   H5787     1.0  0.70504  0.54004  0.11494  1.0000
  C   C3397     1.0  0.70328  0.61816  0.05828  1.0000
  C   C3398     1.0  0.70270  0.62895  0.04920  1.0000
  C   C3399     1.0  0.69140  0.63534  0.04608  1.0000
  C   C3400     1.0  0.68071  0.63068  0.05158  1.0000
  C   C3401     1.0  0.68132  0.61959  0.06035  1.0000
  C   C3402     1.0  0.69257  0.61349  0.06394  1.0000
  H   H5788     1.0  0.71094  0.63258  0.04479  1.0000
  H   H5789     1.0  0.69094  0.64395  0.03936  1.0000
  H   H5790     1.0  0.67305  0.61600  0.06468  1.0000
  H   H5791     1.0  0.69299  0.60519  0.07103  1.0000
  C   C3403     1.0  0.68041  0.61648  0.12866  1.0000
  C   C3404     1.0  0.66788  0.62209  0.13068  1.0000
  C   C3405     1.0  0.65925  0.61579  0.13919  1.0000
  C   C3406     1.0  0.66321  0.60415  0.14620  1.0000
  C   C3407     1.0  0.67582  0.59893  0.14482  1.0000
  C   C3408     1.0  0.68440  0.60492  0.13579  1.0000
  H   H5792     1.0  0.66480  0.63114  0.12539  1.0000
  H   H5793     1.0  0.64954  0.61995  0.14027  1.0000
  H   H5794     1.0  0.67895  0.59006  0.15042  1.0000
  H   H5795     1.0  0.69409  0.60063  0.13441  1.0000
  H   H5796     1.0  0.65285  0.60651  0.01393  1.0000
  C   C3409     1.0  0.60925  0.64438  0.20097  1.0000
  C   C3410     1.0  0.61047  0.64733  0.18815  1.0000
  C   C3411     1.0  0.60640  0.64032  0.18223  1.0000
  C   C3412     1.0  0.60089  0.63047  0.18917  1.0000
  C   C3413     1.0  0.59936  0.62774  0.20202  1.0000
  C   C3414     1.0  0.60370  0.63456  0.20789  1.0000
  H   H5797     1.0  0.61466  0.65499  0.18277  1.0000
  H   H5798     1.0  0.60743  0.64259  0.17232  1.0000
  H   H5799     1.0  0.59513  0.62011  0.20742  1.0000
  H   H5800     1.0  0.60301  0.63200  0.21773  1.0000
  C   C3415     1.0  0.62840  0.52272  0.07384  1.0000
  H   H5801     1.0  0.64770  0.51452  0.07051  1.0000
  H   H5802     1.0  0.62689  0.51794  0.05241  1.0000
  H   H5803     1.0  0.62112  0.57458  0.09918  1.0000
  H   H5804     1.0  0.62307  0.50134  0.10398  1.0000
  N   N240      1.0  0.64549  0.62051  0.18532  1.0000
  C   C3416     1.0  0.64928  0.61587  0.19761  1.0000
  C   C3417     1.0  0.65500  0.61404  0.17602  1.0000
  C   C3418     1.0  0.63313  0.61787  0.18600  1.0000
  C   C3419     1.0  0.64449  0.63428  0.18172  1.0000
  C   C3420     1.0  0.63970  0.61996  0.20878  1.0000
  C   C3421     1.0  0.66764  0.61781  0.17213  1.0000
  C   C3422     1.0  0.63219  0.60420  0.18989  1.0000
  C   C3423     1.0  0.64171  0.64060  0.16881  1.0000
  H   H5805     1.0  0.65178  0.60561  0.19982  1.0000
  H   H5806     1.0  0.65780  0.61894  0.19733  1.0000
  H   H5807     1.0  0.65150  0.61535  0.16753  1.0000
  H   H5808     1.0  0.65685  0.60388  0.17952  1.0000
  H   H5809     1.0  0.62581  0.62294  0.19236  1.0000
  H   H5810     1.0  0.63039  0.62138  0.17695  1.0000
  H   H5811     1.0  0.63691  0.63895  0.18827  1.0000
  H   H5812     1.0  0.65281  0.63699  0.18261  1.0000
  H   H5813     1.0  0.54846  0.66875  0.20686  1.0000
  C   C3424     1.0  0.62565  0.49188  0.10285  1.0000
  H   H5814     1.0  0.63710  0.63012  0.20768  1.0000
  H   H5815     1.0  0.66698  0.62753  0.16709  1.0000
  H   H5816     1.0  0.67202  0.61623  0.18009  1.0000
  H   H5817     1.0  0.67392  0.61204  0.16569  1.0000
  H   H5818     1.0  0.63437  0.59984  0.19909  1.0000
  H   H5819     1.0  0.63813  0.59884  0.18297  1.0000
  H   H5820     1.0  0.62253  0.60361  0.19046  1.0000
  H   H5821     1.0  0.63166  0.64271  0.16903  1.0000
  H   H5822     1.0  0.64644  0.63516  0.16165  1.0000
  H   H5823     1.0  0.64516  0.64931  0.16556  1.0000
  C   C3425     1.0  0.63038  0.58634  0.01119  1.0000
  H   H5824     1.0  0.58923  0.57179  0.10187  1.0000
  H   H5825     1.0  0.67480  0.57681  0.05187  1.0000
  H   H5826     1.0  0.60314  0.56809  0.10764  1.0000
  H   H5827     1.0  0.63859  0.50506  0.08179  1.0000
  C   C3426     1.0  0.67960  0.57764  0.05877  1.0000
  H   H5828     1.0  0.60067  0.49378  0.14663  1.0000
  H   H5829     1.0  0.61148  0.59058  0.08289  1.0000
  H   H5830     1.0  0.54745  0.65345  0.21394  1.0000
  H   H5831     1.0  0.58421  0.59188  0.10376  1.0000
  H   H5832     1.0  0.68693  0.60391  0.02862  1.0000
  H   H5833     1.0  0.67599  0.59490  0.03768  1.0000
  H   H5834     1.0  0.70720  0.57072  0.03910  1.0000
  H   H5835     1.0  0.62459  0.52270  0.08378  1.0000
  H   H5836     1.0  0.58741  0.61863  0.11847  1.0000
  H   H5837     1.0  0.57189  0.63532  0.20298  1.0000
  C   C3427     1.0  0.59306  0.60943  0.11714  1.0000
  H   H5838     1.0  0.60705  0.60906  0.99482  1.0000
  H   H5839     1.0  0.61195  0.60569  0.08273  1.0000
  H   H5840     1.0  0.70301  0.59180  0.03984  1.0000
  C   C3428     1.0  0.59761  0.57514  0.10145  1.0000
  H   H5841     1.0  0.68964  0.58812  0.02764  1.0000
  H   H5842     1.0  0.58476  0.67663  0.21354  1.0000
  H   H5843     1.0  0.60085  0.60037  0.03648  1.0000
  H   H5844     1.0  0.62357  0.61698  0.99745  1.0000
  C   C3429     1.0  0.65221  0.49655  0.06002  1.0000
  C   C3430     1.0  0.63377  0.60516  0.01607  1.0000
  H   H5845     1.0  0.58610  0.61170  0.10096  1.0000
  H   H5846     1.0  0.69003  0.59869  0.04967  1.0000
  H   H5847     1.0  0.58797  0.66024  0.21614  1.0000
  H   H5848     1.0  0.74388  0.61908  0.11253  1.0000
  H   H5849     1.0  0.69880  0.56883  0.06997  1.0000
  H   H5850     1.0  0.61333  0.50676  0.06259  1.0000
  H   H5851     1.0  0.67499  0.58925  0.07271  1.0000
  C   C3431     1.0  0.54399  0.66521  0.22672  1.0000
  H   H5852     1.0  0.61789  0.60030  0.10466  1.0000
  C   C3432     1.0  0.69853  0.56885  0.04562  1.0000
  H   H5853     1.0  0.60179  0.60851  0.12009  1.0000
  H   H5854     1.0  0.58847  0.59736  0.08233  1.0000
  N   N241      1.0  0.60221  0.59664  0.10007  1.0000
  C   C3433     1.0  0.59505  0.60363  0.07936  1.0000
  H   H5855     1.0  0.61421  0.50574  0.07847  1.0000
  C   C3434     1.0  0.69951  0.57750  0.06297  1.0000
  N   N242      1.0  0.56505  0.65795  0.21304  1.0000
  H   H5856     1.0  0.73398  0.62642  0.06672  1.0000
  H   H5857     1.0  0.58916  0.69353  0.99343  1.0000
  H   H5858     1.0  0.59885  0.60414  0.06935  1.0000
  H   H5859     1.0  0.59016  0.61312  0.08040  1.0000
  H   H5860     1.0  0.71800  0.57440  0.05055  1.0000
  H   H5861     1.0  0.70901  0.55433  0.05808  1.0000
  N   N243      1.0  0.69275  0.57882  0.05294  1.0000
  C   C3435     1.0  0.71323  0.57840  0.05872  1.0000
  H   H5862     1.0  0.74305  0.62549  0.08684  1.0000
  H   H5863     1.0  0.63127  0.61617  0.21077  1.0000
  C   C3436     1.0  0.57092  0.65520  0.20042  1.0000
  H   H5864     1.0  0.63208  0.53130  0.07007  1.0000
  H   H5865     1.0  0.64092  0.52827  0.03709  1.0000
  H   H5866     1.0  0.63112  0.57919  0.10576  1.0000
  C   C3437     1.0  0.73952  0.64081  0.05116  1.0000
  C   C3438     1.0  0.56937  0.64741  0.22298  1.0000
  N   N244      1.0  0.66216  0.56133  0.13336  1.0000
  C   C3439     1.0  0.66189  0.55218  0.12612  1.0000
  C   C3440     1.0  0.65180  0.57228  0.13097  1.0000
  C   C3441     1.0  0.66013  0.55514  0.14684  1.0000
  C   C3442     1.0  0.67464  0.56472  0.12895  1.0000
  C   C3443     1.0  0.66969  0.53907  0.12944  1.0000
  C   C3444     1.0  0.65283  0.57949  0.11752  1.0000
  C   C3445     1.0  0.65524  0.56352  0.15631  1.0000
  C   C3446     1.0  0.67681  0.57485  0.13410  1.0000
  H   H5867     1.0  0.65227  0.55109  0.12725  1.0000
  H   H5868     1.0  0.66510  0.55551  0.11607  1.0000
  H   H5869     1.0  0.65075  0.57913  0.13659  1.0000
  H   H5870     1.0  0.64280  0.56929  0.13384  1.0000
  H   H5871     1.0  0.65332  0.54914  0.14897  1.0000
  H   H5872     1.0  0.66881  0.54888  0.14911  1.0000
  H   H5873     1.0  0.68209  0.55660  0.13106  1.0000
  H   H5874     1.0  0.67693  0.56745  0.11877  1.0000
  H   H5875     1.0  0.67025  0.53393  0.12233  1.0000
  H   H5876     1.0  0.67927  0.53904  0.12969  1.0000
  H   H5877     1.0  0.66531  0.53384  0.13836  1.0000
  H   H5878     1.0  0.65281  0.57372  0.11117  1.0000
  H   H5879     1.0  0.64466  0.58718  0.11697  1.0000
  H   H5880     1.0  0.66112  0.58364  0.11431  1.0000
  H   H5881     1.0  0.65507  0.55769  0.16571  1.0000
  H   H5882     1.0  0.64558  0.56854  0.15609  1.0000
  H   H5883     1.0  0.66112  0.57011  0.15518  1.0000
  H   H5884     1.0  0.68031  0.57087  0.14275  1.0000
  H   H5885     1.0  0.66858  0.58223  0.13562  1.0000
  H   H5886     1.0  0.68383  0.57957  0.12724  1.0000
  H   H5887     1.0  0.63858  0.56859  0.02144  1.0000
  N   N245      1.0  0.66207  0.63477  0.09276  1.0000
  C   C3447     1.0  0.67533  0.62788  0.09044  1.0000
  C   C3448     1.0  0.65461  0.62584  0.10159  1.0000
  C   C3449     1.0  0.66148  0.64540  0.09850  1.0000
  C   C3450     1.0  0.65811  0.63936  0.08056  1.0000
  C   C3451     1.0  0.68506  0.63565  0.08314  1.0000
  C   C3452     1.0  0.65440  0.61450  0.09687  1.0000
  C   C3453     1.0  0.64900  0.65049  0.10644  1.0000
  C   C3454     1.0  0.64455  0.64597  0.08072  1.0000
  H   H5888     1.0  0.67815  0.62295  0.09930  1.0000
  H   H5889     1.0  0.67650  0.62061  0.08527  1.0000
  H   H5890     1.0  0.64485  0.63033  0.10446  1.0000
  H   H5891     1.0  0.65807  0.62236  0.11032  1.0000
  H   H5892     1.0  0.66819  0.64273  0.10471  1.0000
  H   H5893     1.0  0.66433  0.65331  0.09128  1.0000
  H   H5894     1.0  0.66364  0.64604  0.07432  1.0000
  H   H5895     1.0  0.66019  0.63186  0.07544  1.0000
  H   H5896     1.0  0.68551  0.64259  0.08805  1.0000
  H   H5897     1.0  0.69431  0.62942  0.08210  1.0000
  H   H5898     1.0  0.68360  0.64016  0.07371  1.0000
  H   H5899     1.0  0.66365  0.60844  0.09511  1.0000
  H   H5900     1.0  0.64849  0.60882  0.10412  1.0000
  H   H5901     1.0  0.65033  0.61721  0.08856  1.0000
  H   H5902     1.0  0.64125  0.65310  0.10161  1.0000
  H   H5903     1.0  0.64968  0.65892  0.10901  1.0000
  H   H5904     1.0  0.64672  0.64382  0.11519  1.0000
  H   H5905     1.0  0.64333  0.65599  0.08020  1.0000
  H   H5906     1.0  0.63802  0.64211  0.08876  1.0000
  H   H5907     1.0  0.64173  0.64472  0.07265  1.0000
  C   C3455     1.0  0.61667  0.60430  0.99154  1.0000
  H   H5908     1.0  0.62266  0.58203  0.01141  1.0000
  C   C3456     1.0  0.67140  0.58818  0.06508  1.0000
  H   H5909     1.0  0.62936  0.61481  0.01702  1.0000
  H   H5910     1.0  0.66212  0.58600  0.06915  1.0000
  H   H5911     1.0  0.66998  0.59710  0.05843  1.0000
  H   H5912     1.0  0.69239  0.56867  0.03962  1.0000
  H   H5913     1.0  0.57231  0.64372  0.18766  1.0000
  H   H5914     1.0  0.69321  0.55296  0.06004  1.0000
  H   H5915     1.0  0.62906  0.58683  0.09056  1.0000
  C   C3457     1.0  0.55120  0.66116  0.21457  1.0000
  H   H5916     1.0  0.55762  0.63544  0.22078  1.0000
  H   H5917     1.0  0.74438  0.64678  0.05344  1.0000
  C   C3458     1.0  0.61674  0.50082  0.07079  1.0000
  C   C3459     1.0  0.59369  0.58766  0.10544  1.0000
  C   C3460     1.0  0.59533  0.60885  0.10346  1.0000
  H   H5918     1.0  0.61130  0.58855  0.11549  1.0000
  H   H5919     1.0  0.60022  0.61634  0.09812  1.0000
  C   C3461     1.0  0.68600  0.59454  0.03407  1.0000
  H   H5920     1.0  0.69512  0.58479  0.06838  1.0000
  C   C3462     1.0  0.63639  0.51236  0.05117  1.0000
  H   H5921     1.0  0.59224  0.63569  0.01097  1.0000
  H   H5922     1.0  0.56849  0.66344  0.19315  1.0000
  C   C3463     1.0  0.63894  0.51122  0.07254  1.0000
  H   H5923     1.0  0.60270  0.57553  0.09185  1.0000
  H   H5924     1.0  0.58791  0.60244  0.12330  1.0000
  C   C3464     1.0  0.60581  0.59891  0.08621  1.0000
  H   H5925     1.0  0.70456  0.54901  0.04697  1.0000
  S   S992      1.0  0.64925  0.49201  0.10490  1.0000
  H   H5926     1.0  0.71825  0.57305  0.06615  1.0000
  H   H5927     1.0  0.64614  0.52680  0.05085  1.0000
  H   H5928     1.0  0.57898  0.68040  0.98959  1.0000
  H   H5929     1.0  0.59223  0.58543  0.11567  1.0000
  H   H5930     1.0  0.65122  0.59690  0.00466  1.0000
  C   C3465     1.0  0.69329  0.59119  0.04443  1.0000
  H   H5931     1.0  0.71418  0.58815  0.05666  1.0000
  C   C3466     1.0  0.56786  0.64419  0.19740  1.0000
  C   C3467     1.0  0.70142  0.55560  0.05326  1.0000
  H   H5932     1.0  0.67930  0.56895  0.06583  1.0000
  H   H5933     1.0  0.57933  0.64344  0.22000  1.0000
  N   N246      1.0  0.63930  0.50411  0.06306  1.0000
  C   C3468     1.0  0.58299  0.67235  0.98525  1.0000
  H   H5934     1.0  0.73765  0.63993  0.07690  1.0000
  Fe  Fe496     1.0  0.60817  0.65129  0.22856  1.0000
  C   C3469     1.0  0.61045  0.59654  0.03211  1.0000
  C   C3470     1.0  0.61267  0.60252  0.01831  1.0000
  H   H5935     1.0  0.58708  0.66946  0.20089  1.0000
  H   H5936     1.0  0.63481  0.60013  0.02550  1.0000
  H   H5937     1.0  0.61122  0.49023  0.15663  1.0000
  H   H5938     1.0  0.55786  0.64504  0.19822  1.0000
  H   H5939     1.0  0.58116  0.65309  0.19898  1.0000
  H   H5940     1.0  0.56495  0.67757  0.20731  1.0000
  C   C3471     1.0  0.58302  0.66871  0.21087  1.0000
  C   C3472     1.0  0.61399  0.64145  0.98497  1.0000
  C   C3473     1.0  0.56899  0.66930  0.21371  1.0000
  H   H5941     1.0  0.64606  0.58061  0.02071  1.0000
  C   C3474     1.0  0.56251  0.63658  0.22736  1.0000
  H   H5942     1.0  0.56855  0.65089  0.23141  1.0000
  H   H5943     1.0  0.60789  0.49174  0.09983  1.0000
  H   H5944     1.0  0.63711  0.58480  0.00252  1.0000
  H   H5945     1.0  0.64672  0.61353  0.00040  1.0000
  H   H5946     1.0  0.63147  0.57952  0.03102  1.0000
  H   H5947     1.0  0.61716  0.59431  0.99273  1.0000
  H   H5948     1.0  0.64378  0.61635  0.21711  1.0000
  H   H5949     1.0  0.56551  0.67140  0.22308  1.0000
  N   N247      1.0  0.62576  0.59995  0.01107  1.0000
  H   H5950     1.0  0.60915  0.61263  0.01751  1.0000
  S   S993      1.0  0.59057  0.63864  0.98586  1.0000
  H   H5951     1.0  0.72954  0.64506  0.05337  1.0000
  H   H5952     1.0  0.54466  0.67471  0.22660  1.0000
  C   C3475     1.0  0.64689  0.60544  0.00823  1.0000
  C   C3476     1.0  0.63690  0.57848  0.02174  1.0000
  H   H5953     1.0  0.58239  0.66400  0.99272  1.0000
  C   C3477     1.0  0.62573  0.60688  0.99795  1.0000
  H   H5954     1.0  0.61656  0.59857  0.03698  1.0000
  H   H5955     1.0  0.61122  0.58646  0.03358  1.0000
  H   H5956     1.0  0.60635  0.59929  0.01456  1.0000
  H   H5957     1.0  0.53404  0.66533  0.22785  1.0000
  H   H5958     1.0  0.74031  0.62174  0.05276  1.0000
  H   H5959     1.0  0.74529  0.60169  0.05966  1.0000
  H   H5960     1.0  0.65417  0.51675  0.04018  1.0000
  C   C3478     1.0  0.74172  0.62740  0.05859  1.0000
  H   H5961     1.0  0.74236  0.64103  0.04111  1.0000
  H   H5962     1.0  0.65912  0.50256  0.05665  1.0000
  H   H5963     1.0  0.63667  0.50669  0.04453  1.0000
  H   H5964     1.0  0.60213  0.66899  0.98585  1.0000
  C   C3479     1.0  0.63066  0.49524  0.06802  1.0000
  H   H5965     1.0  0.65619  0.49046  0.07878  1.0000
  H   H5966     1.0  0.65310  0.49182  0.05242  1.0000
  H   H5967     1.0  0.61167  0.49315  0.07397  1.0000
  H   H5968     1.0  0.74626  0.60954  0.07758  1.0000
  C   C3480     1.0  0.74578  0.63374  0.08030  1.0000
  H   H5969     1.0  0.64288  0.62686  0.30488  1.0000
  Fe  Fe497     1.0  0.61276  0.79138  0.38961  1.0000
  S   S994      1.0  0.62229  0.80359  0.37343  1.0000
  S   S995      1.0  0.60252  0.79976  0.40619  1.0000
  Fe  Fe498     1.0  0.61828  0.77017  0.37562  1.0000
  S   S996      1.0  0.62849  0.78090  0.35852  1.0000
  S   S997      1.0  0.61636  0.75038  0.37731  1.0000
  Fe  Fe499     1.0  0.63679  0.78662  0.37130  1.0000
  S   S998      1.0  0.65705  0.78671  0.36719  1.0000
  Fe  Fe500     1.0  0.61308  0.79684  0.36231  1.0000
  S   S999      1.0  0.60509  0.81082  0.34734  1.0000
  S   S1000     1.0  0.62798  0.77456  0.38830  1.0000
  S   S1001     1.0  0.60216  0.78592  0.37861  1.0000
  Fe  Fe501     1.0  0.60923  0.85384  0.46659  1.0000
  S   S1002     1.0  0.60040  0.87084  0.45454  1.0000
  Fe  Fe502     1.0  0.61452  0.83839  0.44662  1.0000
  S   S1003     1.0  0.60632  0.85430  0.43314  1.0000
  S   S1004     1.0  0.62258  0.81932  0.44235  1.0000
  Fe  Fe503     1.0  0.61609  0.86523  0.43954  1.0000
  S   S1005     1.0  0.62489  0.87954  0.42539  1.0000
  Fe  Fe504     1.0  0.59136  0.85840  0.44929  1.0000
  S   S1006     1.0  0.57115  0.86433  0.44875  1.0000
  S   S1007     1.0  0.62576  0.84901  0.45175  1.0000
  H   H5970     1.0  0.64790  0.65264  0.30492  1.0000
  Fe  Fe505     1.0  0.67254  0.85212  0.35187  1.0000
  S   S1008     1.0  0.67058  0.87203  0.34203  1.0000
  S   S1009     1.0  0.67489  0.83689  0.34197  1.0000
  Fe  Fe506     1.0  0.67157  0.85806  0.37612  1.0000
  S   S1010     1.0  0.66917  0.87838  0.36848  1.0000
  S   S1011     1.0  0.67269  0.85037  0.39588  1.0000
  Fe  Fe507     1.0  0.65579  0.87528  0.35885  1.0000
  S   S1012     1.0  0.63657  0.88731  0.36058  1.0000
  Fe  Fe508     1.0  0.68419  0.87316  0.35272  1.0000
  S   S1013     1.0  0.70229  0.88014  0.34576  1.0000
  S   S1014     1.0  0.65707  0.85534  0.36788  1.0000
  S   S1015     1.0  0.68726  0.85287  0.36106  1.0000
  Fe  Fe509     1.0  0.54423  0.88398  0.36041  1.0000
  S   S1016     1.0  0.54254  0.87313  0.37988  1.0000
  S   S1017     1.0  0.52583  0.89145  0.35427  1.0000
  Fe  Fe510     1.0  0.57267  0.87899  0.35668  1.0000
  S   S1018     1.0  0.57291  0.86737  0.37561  1.0000
  S   S1019     1.0  0.59050  0.88192  0.34320  1.0000
  Fe  Fe511     1.0  0.55848  0.85959  0.37201  1.0000
  S   S1020     1.0  0.55752  0.83965  0.37736  1.0000
  Fe  Fe512     1.0  0.55701  0.88210  0.38161  1.0000
  S   S1021     1.0  0.55491  0.89050  0.39792  1.0000
  S   S1022     1.0  0.55953  0.86985  0.35244  1.0000
  S   S1023     1.0  0.55741  0.89439  0.36278  1.0000
  H   H5971     1.0  0.58794  0.53458  0.34480  1.0000
  S   S1024     1.0  0.51385  0.66721  0.33590  1.0000
  Fe  Fe513     1.0  0.52323  0.65127  0.30812  1.0000
  S   S1025     1.0  0.53712  0.65402  0.31710  1.0000
  S   S1026     1.0  0.53114  0.64100  0.29264  1.0000
  Fe  Fe514     1.0  0.52445  0.64804  0.33482  1.0000
  S   S1027     1.0  0.53261  0.63596  0.35081  1.0000
  Fe  Fe515     1.0  0.52549  0.67291  0.31734  1.0000
  S   S1028     1.0  0.53590  0.68836  0.31128  1.0000
  S   S1029     1.0  0.51134  0.64359  0.32598  1.0000
  S   S1030     1.0  0.51240  0.67076  0.30687  1.0000
  Fe  Fe516     1.0  0.58557  0.65914  0.24758  1.0000
  S   S1031     1.0  0.59492  0.65030  0.26349  1.0000
  S   S1032     1.0  0.56616  0.67029  0.24981  1.0000
  H   H5972     1.0  0.65254  0.87232  0.48038  1.0000
  S   S1033     1.0  0.61984  0.64195  0.24263  1.0000
  Fe  Fe517     1.0  0.60307  0.63469  0.25361  1.0000
  S   S1034     1.0  0.60387  0.61512  0.26368  1.0000
  Fe  Fe518     1.0  0.61093  0.65827  0.25150  1.0000
  S   S1035     1.0  0.62222  0.66686  0.25902  1.0000
  Fe  Fe519     1.0  0.63384  0.49604  0.32860  1.0000
  H   H5973     1.0  0.72569  0.88104  0.32437  1.0000
  Fe  Fe520     1.0  0.59712  0.69725  0.31694  1.0000
  S   S1036     1.0  0.61402  0.69650  0.32379  1.0000
  S   S1037     1.0  0.59359  0.69960  0.29799  1.0000
  Fe  Fe521     1.0  0.58074  0.69569  0.34231  1.0000
  S   S1038     1.0  0.59602  0.69455  0.35171  1.0000
  S   S1039     1.0  0.56086  0.69553  0.35129  1.0000
  Fe  Fe522     1.0  0.60181  0.70959  0.33586  1.0000
  S   S1040     1.0  0.60593  0.72793  0.33646  1.0000
  Fe  Fe523     1.0  0.60706  0.68159  0.33917  1.0000
  S   S1041     1.0  0.61986  0.66397  0.34592  1.0000
  S   S1042     1.0  0.58554  0.71160  0.32744  1.0000
  S   S1043     1.0  0.59127  0.68137  0.33133  1.0000
  Fe  Fe524     1.0  0.59155  0.59248  0.33687  1.0000
  S   S1044     1.0  0.59611  0.58506  0.35555  1.0000
  S   S1045     1.0  0.57367  0.59257  0.33224  1.0000
  Fe  Fe525     1.0  0.61698  0.59775  0.32504  1.0000
  S   S1046     1.0  0.62386  0.59041  0.34259  1.0000
  S   S1047     1.0  0.62917  0.60665  0.30826  1.0000
  Fe  Fe526     1.0  0.61387  0.57517  0.34544  1.0000
  S   S1048     1.0  0.62075  0.55537  0.35416  1.0000
  Fe  Fe527     1.0  0.60563  0.60096  0.35103  1.0000
  S   S1049     1.0  0.60510  0.61171  0.36503  1.0000
  S   S1050     1.0  0.60867  0.58154  0.32702  1.0000
  S   S1051     1.0  0.59935  0.60937  0.33332  1.0000
  S   S1052     1.0  0.72509  0.91791  0.36034  1.0000
  C   C3481     1.0  0.59951  0.54820  0.31506  1.0000
  S   S1053     1.0  0.63106  0.51653  0.32051  1.0000
  C   C3482     1.0  0.62463  0.54448  0.34471  1.0000
  C   C3483     1.0  0.62691  0.54815  0.33188  1.0000
  C   C3484     1.0  0.62935  0.53940  0.32455  1.0000
  C   C3485     1.0  0.62949  0.52693  0.32998  1.0000
  C   C3486     1.0  0.62760  0.52319  0.34280  1.0000
  C   C3487     1.0  0.62520  0.53195  0.35014  1.0000
  H   H5974     1.0  0.62681  0.55773  0.32759  1.0000
  H   H5975     1.0  0.63100  0.54233  0.31463  1.0000
  H   H5976     1.0  0.62774  0.51361  0.34708  1.0000
  H   H5977     1.0  0.62355  0.52902  0.36006  1.0000
  C   C3488     1.0  0.61462  0.65000  0.35146  1.0000
  C   C3489     1.0  0.60793  0.64622  0.34503  1.0000
  C   C3490     1.0  0.60558  0.63420  0.34866  1.0000
  C   C3491     1.0  0.60899  0.62633  0.35936  1.0000
  C   C3492     1.0  0.61514  0.63037  0.36608  1.0000
  C   C3493     1.0  0.61827  0.64199  0.36194  1.0000
  H   H5978     1.0  0.60492  0.65239  0.33706  1.0000
  H   H5979     1.0  0.60098  0.63110  0.34333  1.0000
  H   H5980     1.0  0.61776  0.62440  0.37437  1.0000
  H   H5981     1.0  0.62350  0.64481  0.36693  1.0000
  C   C3494     1.0  0.62409  0.60764  0.29486  1.0000
  C   C3495     1.0  0.62560  0.61770  0.28506  1.0000
  C   C3496     1.0  0.61958  0.61991  0.27530  1.0000
  C   C3497     1.0  0.61251  0.61176  0.27508  1.0000
  C   C3498     1.0  0.61168  0.60126  0.28447  1.0000
  C   C3499     1.0  0.61734  0.59929  0.29443  1.0000
  H   H5982     1.0  0.63088  0.62411  0.28531  1.0000
  H   H5983     1.0  0.62030  0.62801  0.26805  1.0000
  H   H5984     1.0  0.60628  0.59491  0.28426  1.0000
  H   H5985     1.0  0.61637  0.59138  0.30183  1.0000
  C   C3500     1.0  0.61444  0.67525  0.27056  1.0000
  C   C3501     1.0  0.60305  0.67326  0.27793  1.0000
  C   C3502     1.0  0.59704  0.68015  0.28705  1.0000
  C   C3503     1.0  0.60238  0.68907  0.28879  1.0000
  C   C3504     1.0  0.61396  0.69074  0.28172  1.0000
  C   C3505     1.0  0.62003  0.68376  0.27271  1.0000
  H   H5986     1.0  0.59882  0.66651  0.27656  1.0000
  H   H5987     1.0  0.58815  0.67872  0.29259  1.0000
  H   H5988     1.0  0.61804  0.69775  0.28288  1.0000
  H   H5989     1.0  0.62890  0.68524  0.26711  1.0000
  C   C3506     1.0  0.53998  0.64925  0.27986  1.0000
  C   C3507     1.0  0.53762  0.66213  0.27745  1.0000
  C   C3508     1.0  0.54535  0.66856  0.26779  1.0000
  C   C3509     1.0  0.55578  0.66214  0.26087  1.0000
  C   C3510     1.0  0.55802  0.64927  0.26309  1.0000
  C   C3511     1.0  0.54995  0.64285  0.27239  1.0000
  H   H5990     1.0  0.52985  0.66712  0.28307  1.0000
  H   H5991     1.0  0.54342  0.67851  0.26596  1.0000
  H   H5992     1.0  0.56600  0.64424  0.25772  1.0000
  H   H5993     1.0  0.55174  0.63289  0.27418  1.0000
  C   C3512     1.0  0.54308  0.62289  0.34653  1.0000
  C   C3513     1.0  0.54246  0.61869  0.33638  1.0000
  C   C3514     1.0  0.55136  0.60866  0.33265  1.0000
  C   C3515     1.0  0.56139  0.60344  0.33847  1.0000
  C   C3516     1.0  0.56185  0.60745  0.34878  1.0000
  C   C3517     1.0  0.55246  0.61689  0.35305  1.0000
  H   H5994     1.0  0.53513  0.62316  0.33140  1.0000
  H   H5995     1.0  0.55083  0.60545  0.32480  1.0000
  H   H5996     1.0  0.56940  0.60322  0.35350  1.0000
  H   H5997     1.0  0.55261  0.61976  0.36122  1.0000
  C   C3518     1.0  0.54233  0.69070  0.32259  1.0000
  C   C3519     1.0  0.53627  0.68921  0.33499  1.0000
  C   C3520     1.0  0.54171  0.69118  0.34378  1.0000
  C   C3521     1.0  0.55337  0.69426  0.34023  1.0000
  C   C3522     1.0  0.55934  0.69577  0.32784  1.0000
  C   C3523     1.0  0.55377  0.69416  0.31906  1.0000
  H   H5998     1.0  0.52735  0.68670  0.33776  1.0000
  H   H5999     1.0  0.53695  0.69015  0.35331  1.0000
  H   H6000     1.0  0.56826  0.69824  0.32493  1.0000
  H   H6001     1.0  0.55849  0.69538  0.30954  1.0000
  C   C3524     1.0  0.70749  0.88995  0.35206  1.0000
  C   C3525     1.0  0.71909  0.88610  0.35536  1.0000
  C   C3526     1.0  0.72439  0.89438  0.35847  1.0000
  C   C3527     1.0  0.71826  0.90669  0.35802  1.0000
  C   C3528     1.0  0.70642  0.91037  0.35527  1.0000
  C   C3529     1.0  0.70107  0.90207  0.35230  1.0000
  H   H6002     1.0  0.72416  0.87676  0.35515  1.0000
  H   H6003     1.0  0.58172  0.88711  0.47190  1.0000
  H   H6004     1.0  0.70154  0.91984  0.35499  1.0000
  H   H6005     1.0  0.69222  0.90523  0.34961  1.0000
  C   C3530     1.0  0.62501  0.88365  0.35541  1.0000
  C   C3531     1.0  0.62361  0.88835  0.34323  1.0000
  C   C3532     1.0  0.61309  0.88758  0.33961  1.0000
  C   C3533     1.0  0.60370  0.88235  0.34818  1.0000
  C   C3534     1.0  0.60525  0.87727  0.36028  1.0000
  C   C3535     1.0  0.61590  0.87787  0.36387  1.0000
  H   H6006     1.0  0.63044  0.89302  0.33668  1.0000
  H   H6007     1.0  0.61203  0.89143  0.33020  1.0000
  H   H6008     1.0  0.59822  0.87294  0.36688  1.0000
  H   H6009     1.0  0.61693  0.87417  0.37328  1.0000
  C   C3536     1.0  0.56698  0.87090  0.43434  1.0000
  C   C3537     1.0  0.55553  0.87897  0.43408  1.0000
  C   C3538     1.0  0.55191  0.88467  0.42286  1.0000
  C   C3539     1.0  0.55946  0.88205  0.41178  1.0000
  C   C3540     1.0  0.57082  0.87373  0.41199  1.0000
  C   C3541     1.0  0.57465  0.86825  0.42325  1.0000
  H   H6010     1.0  0.54954  0.88104  0.44257  1.0000
  H   H6011     1.0  0.54319  0.89119  0.42278  1.0000
  H   H6012     1.0  0.57683  0.87189  0.40345  1.0000
  H   H6013     1.0  0.58346  0.86196  0.42337  1.0000
  C   C3542     1.0  0.63854  0.87175  0.41741  1.0000
  C   C3543     1.0  0.64085  0.87417  0.40459  1.0000
  C   C3544     1.0  0.65117  0.86732  0.39809  1.0000
  C   C3545     1.0  0.65957  0.85843  0.40432  1.0000
  C   C3546     1.0  0.65746  0.85614  0.41716  1.0000
  C   C3547     1.0  0.64681  0.86269  0.42374  1.0000
  H   H6014     1.0  0.63449  0.88108  0.39967  1.0000
  H   H6015     1.0  0.65245  0.86888  0.38824  1.0000
  H   H6016     1.0  0.66393  0.84922  0.42202  1.0000
  H   H6017     1.0  0.64506  0.86085  0.43368  1.0000
  H   H6018     1.0  0.63379  0.83146  0.41199  1.0000
  C   C3548     1.0  0.61018  0.80515  0.41460  1.0000
  C   C3549     1.0  0.60856  0.81786  0.41372  1.0000
  C   C3550     1.0  0.61204  0.82236  0.42230  1.0000
  C   C3551     1.0  0.61768  0.81414  0.43157  1.0000
  C   C3552     1.0  0.61991  0.80143  0.43204  1.0000
  C   C3553     1.0  0.61597  0.79695  0.42375  1.0000
  H   H6019     1.0  0.60431  0.82422  0.40657  1.0000
  H   H6020     1.0  0.61044  0.83217  0.42172  1.0000
  H   H6021     1.0  0.62430  0.79501  0.43914  1.0000
  H   H6022     1.0  0.61705  0.78712  0.42471  1.0000
  C   C3554     1.0  0.59116  0.81882  0.35468  1.0000
  C   C3555     1.0  0.58875  0.83167  0.35236  1.0000
  C   C3556     1.0  0.57846  0.83808  0.35942  1.0000
  C   C3557     1.0  0.57031  0.83165  0.36848  1.0000
  C   C3558     1.0  0.57242  0.81882  0.37047  1.0000
  C   C3559     1.0  0.58292  0.81239  0.36362  1.0000
  H   H6023     1.0  0.59504  0.83664  0.34539  1.0000
  H   H6024     1.0  0.57698  0.84797  0.35794  1.0000
  H   H6025     1.0  0.56611  0.81383  0.37744  1.0000
  H   H6026     1.0  0.58463  0.80247  0.36523  1.0000
  C   C3560     1.0  0.66152  0.80094  0.36045  1.0000
  C   C3561     1.0  0.65446  0.81202  0.36371  1.0000
  C   C3562     1.0  0.65882  0.82307  0.35869  1.0000
  C   C3563     1.0  0.66987  0.82314  0.34986  1.0000
  C   C3564     1.0  0.67671  0.81211  0.34647  1.0000
  C   C3565     1.0  0.67272  0.80103  0.35195  1.0000
  H   H6027     1.0  0.64583  0.81202  0.37029  1.0000
  H   H6028     1.0  0.65348  0.83157  0.36131  1.0000
  H   H6029     1.0  0.68520  0.81211  0.33961  1.0000
  H   H6030     1.0  0.67824  0.79253  0.34941  1.0000
  C   C3566     1.0  0.61329  0.74435  0.36590  1.0000
  C   C3567     1.0  0.61223  0.75145  0.35418  1.0000
  C   C3568     1.0  0.61016  0.74619  0.34529  1.0000
  C   C3569     1.0  0.60908  0.73379  0.34797  1.0000
  C   C3570     1.0  0.61016  0.72667  0.35969  1.0000
  C   C3571     1.0  0.61223  0.73193  0.36859  1.0000
  H   H6031     1.0  0.61304  0.76100  0.35194  1.0000
  H   H6032     1.0  0.60934  0.75180  0.33627  1.0000
  H   H6033     1.0  0.60943  0.71710  0.36190  1.0000
  H   H6034     1.0  0.61311  0.72632  0.37760  1.0000
  C   C3572     1.0  0.51234  0.87628  0.32799  1.0000
  H   H6035     1.0  0.59654  0.66274  0.31232  1.0000
  C   C3573     1.0  0.50909  0.88258  0.34743  1.0000
  C   C3574     1.0  0.52118  0.88462  0.34455  1.0000
  C   C3575     1.0  0.52894  0.88214  0.33349  1.0000
  C   C3576     1.0  0.52452  0.87803  0.32525  1.0000
  C   C3577     1.0  0.56185  0.74277  0.33754  1.0000
  H   H6036     1.0  0.53822  0.88381  0.33109  1.0000
  H   H6037     1.0  0.53049  0.87644  0.31658  1.0000
  N   N248      1.0  0.59628  0.89890  0.39262  1.0000
  C   C3578     1.0  0.59964  0.88876  0.40331  1.0000
  C   C3579     1.0  0.58855  0.90999  0.39768  1.0000
  C   C3580     1.0  0.60761  0.90247  0.38371  1.0000
  C   C3581     1.0  0.58930  0.89438  0.38587  1.0000
  C   C3582     1.0  0.60847  0.87689  0.39999  1.0000
  C   C3583     1.0  0.57515  0.90910  0.40430  1.0000
  C   C3584     1.0  0.61641  0.90652  0.38924  1.0000
  C   C3585     1.0  0.58497  0.90360  0.37462  1.0000
  H   H6038     1.0  0.60379  0.89206  0.40927  1.0000
  H   H6039     1.0  0.59124  0.88584  0.40951  1.0000
  H   H6040     1.0  0.58812  0.91852  0.39035  1.0000
  H   H6041     1.0  0.59289  0.91188  0.40443  1.0000
  H   H6042     1.0  0.61303  0.89490  0.37894  1.0000
  H   H6043     1.0  0.60499  0.91025  0.37611  1.0000
  H   H6044     1.0  0.59506  0.88617  0.38232  1.0000
  H   H6045     1.0  0.58125  0.89090  0.39214  1.0000
  H   H6046     1.0  0.61114  0.87078  0.40851  1.0000
  H   H6047     1.0  0.60395  0.87167  0.39624  1.0000
  H   H6048     1.0  0.61716  0.87864  0.39357  1.0000
  H   H6049     1.0  0.57465  0.90076  0.41175  1.0000
  H   H6050     1.0  0.57079  0.91721  0.40861  1.0000
  H   H6051     1.0  0.56948  0.90929  0.39774  1.0000
  H   H6052     1.0  0.61995  0.89924  0.39666  1.0000
  H   H6053     1.0  0.61197  0.91509  0.39272  1.0000
  H   H6054     1.0  0.62456  0.90846  0.38189  1.0000
  H   H6055     1.0  0.59199  0.90251  0.36604  1.0000
  H   H6056     1.0  0.58294  0.91333  0.37547  1.0000
  H   H6057     1.0  0.57619  0.90189  0.37370  1.0000
  N   N249      1.0  0.65647  0.74741  0.36046  1.0000
  C   C3586     1.0  0.64985  0.74649  0.37378  1.0000
  C   C3587     1.0  0.64756  0.74611  0.35347  1.0000
  C   C3588     1.0  0.65979  0.75996  0.35592  1.0000
  C   C3589     1.0  0.66791  0.73735  0.35989  1.0000
  C   C3590     1.0  0.65676  0.74887  0.38252  1.0000
  C   C3591     1.0  0.64418  0.73334  0.35657  1.0000
  C   C3592     1.0  0.66164  0.76544  0.34197  1.0000
  C   C3593     1.0  0.67540  0.73570  0.34697  1.0000
  H   H6058     1.0  0.64085  0.75319  0.37450  1.0000
  H   H6059     1.0  0.64758  0.73725  0.37788  1.0000
  H   H6060     1.0  0.65104  0.74809  0.34338  1.0000
  H   H6061     1.0  0.63880  0.75309  0.35498  1.0000
  H   H6062     1.0  0.65246  0.76694  0.36022  1.0000
  H   H6063     1.0  0.66829  0.76004  0.35885  1.0000
  H   H6064     1.0  0.67452  0.73898  0.36456  1.0000
  H   H6065     1.0  0.66586  0.72827  0.36528  1.0000
  H   H6066     1.0  0.66535  0.74186  0.38345  1.0000
  H   H6067     1.0  0.65880  0.75826  0.37975  1.0000
  H   H6068     1.0  0.65073  0.74827  0.39186  1.0000
  H   H6069     1.0  0.65235  0.72595  0.35460  1.0000
  H   H6070     1.0  0.63920  0.73095  0.36623  1.0000
  H   H6071     1.0  0.63782  0.73352  0.35068  1.0000
  H   H6072     1.0  0.66526  0.77398  0.34006  1.0000
  H   H6073     1.0  0.65271  0.76825  0.33891  1.0000
  H   H6074     1.0  0.66832  0.75918  0.33636  1.0000
  H   H6075     1.0  0.68231  0.74168  0.34354  1.0000
  H   H6076     1.0  0.66967  0.73742  0.34009  1.0000
  H   H6077     1.0  0.68036  0.72593  0.34748  1.0000
  N   N250      1.0  0.57767  0.62890  0.29960  1.0000
  C   C3594     1.0  0.58133  0.61718  0.29470  1.0000
  C   C3595     1.0  0.58913  0.63416  0.29664  1.0000
  C   C3596     1.0  0.56795  0.63757  0.29296  1.0000
  C   C3597     1.0  0.57253  0.62563  0.31320  1.0000
  C   C3598     1.0  0.57091  0.61032  0.29631  1.0000
  C   C3599     1.0  0.59857  0.62764  0.30482  1.0000
  C   C3600     1.0  0.56577  0.65139  0.29289  1.0000
  C   C3601     1.0  0.57017  0.63564  0.32068  1.0000
  H   H6078     1.0  0.58544  0.61910  0.28468  1.0000
  H   H6079     1.0  0.58858  0.61036  0.29911  1.0000
  H   H6080     1.0  0.58706  0.64395  0.29731  1.0000
  H   H6081     1.0  0.59399  0.63406  0.28692  1.0000
  H   H6082     1.0  0.57032  0.63695  0.28308  1.0000
  H   H6083     1.0  0.55881  0.63491  0.29678  1.0000
  H   H6084     1.0  0.56352  0.62302  0.31476  1.0000
  H   H6085     1.0  0.57844  0.61721  0.31769  1.0000
  H   H6086     1.0  0.57473  0.60234  0.29173  1.0000
  H   H6087     1.0  0.56737  0.60653  0.30614  1.0000
  H   H6088     1.0  0.56321  0.61615  0.29194  1.0000
  H   H6089     1.0  0.59547  0.63015  0.31395  1.0000
  H   H6090     1.0  0.60051  0.61751  0.30608  1.0000
  H   H6091     1.0  0.60738  0.63075  0.30054  1.0000
  H   H6092     1.0  0.55718  0.65624  0.28955  1.0000
  H   H6093     1.0  0.57331  0.65547  0.28630  1.0000
  H   H6094     1.0  0.56452  0.65336  0.30206  1.0000
  H   H6095     1.0  0.56030  0.64025  0.32217  1.0000
  H   H6096     1.0  0.57583  0.64270  0.31650  1.0000
  H   H6097     1.0  0.57246  0.63123  0.32985  1.0000
  H   H6098     1.0  0.64668  0.83728  0.34092  1.0000
  H   H6099     1.0  0.63433  0.84557  0.40119  1.0000
  H   H6100     1.0  0.52797  0.82396  0.37225  1.0000
  H   H6101     1.0  0.58964  0.56711  0.32783  1.0000
  H   H6102     1.0  0.50953  0.90993  0.32768  1.0000
  S   S1054     1.0  0.59875  0.84166  0.46257  1.0000
  H   H6103     1.0  0.57102  0.56949  0.32416  1.0000
  H   H6104     1.0  0.60778  0.55976  0.29829  1.0000
  H   H6105     1.0  0.58527  0.56632  0.34932  1.0000
  H   H6106     1.0  0.64713  0.81821  0.42728  1.0000
  C   C3602     1.0  0.63846  0.65810  0.30734  1.0000
  H   H6107     1.0  0.64108  0.86460  0.33215  1.0000
  H   H6108     1.0  0.64854  0.83401  0.41974  1.0000
  H   H6109     1.0  0.58476  0.70698  0.27401  1.0000
  C   C3603     1.0  0.60486  0.65538  0.31055  1.0000
  H   H6110     1.0  0.57646  0.56400  0.30982  1.0000
  C   C3604     1.0  0.58417  0.55818  0.34652  1.0000
  C   C3605     1.0  0.52847  0.85244  0.36612  1.0000
  H   H6111     1.0  0.62906  0.83400  0.39759  1.0000
  C   C3606     1.0  0.63843  0.67126  0.29951  1.0000
  C   C3607     1.0  0.62914  0.63979  0.31525  1.0000
  H   H6112     1.0  0.59598  0.54445  0.30894  1.0000
  H   H6113     1.0  0.63221  0.81450  0.34327  1.0000
  H   H6114     1.0  0.65443  0.83814  0.39385  1.0000
  H   H6115     1.0  0.57166  0.54729  0.33567  1.0000
  H   H6116     1.0  0.64578  0.65540  0.27904  1.0000
  Fe  Fe528     1.0  0.74536  0.91583  0.36077  1.0000
  H   H6117     1.0  0.59459  0.56829  0.30693  1.0000
  N   N251      1.0  0.56925  0.73615  0.35813  1.0000
  N   N252      1.0  0.69263  0.87821  0.39290  1.0000
  C   C3608     1.0  0.69558  0.87185  0.38222  1.0000
  C   C3609     1.0  0.67991  0.88631  0.39306  1.0000
  C   C3610     1.0  0.69279  0.86828  0.40452  1.0000
  C   C3611     1.0  0.70239  0.88553  0.39094  1.0000
  C   C3612     1.0  0.70786  0.86230  0.38075  1.0000
  C   C3613     1.0  0.67883  0.89764  0.38233  1.0000
  C   C3614     1.0  0.68513  0.87185  0.41672  1.0000
  C   C3615     1.0  0.70049  0.89388  0.40009  1.0000
  H   H6118     1.0  0.68819  0.86696  0.38286  1.0000
  H   H6119     1.0  0.67624  0.89010  0.40152  1.0000
  H   H6120     1.0  0.67316  0.88077  0.39324  1.0000
  H   H6121     1.0  0.68923  0.86040  0.40380  1.0000
  H   H6122     1.0  0.70242  0.86430  0.40584  1.0000
  H   H6123     1.0  0.71154  0.87929  0.39144  1.0000
  H   H6124     1.0  0.70393  0.89123  0.38141  1.0000
  H   H6125     1.0  0.70821  0.85456  0.38886  1.0000
  H   H6126     1.0  0.68427  0.90427  0.38248  1.0000
  H   H6127     1.0  0.68159  0.89516  0.37319  1.0000
  H   H6128     1.0  0.66903  0.90257  0.38329  1.0000
  H   H6129     1.0  0.68730  0.86412  0.42448  1.0000
  H   H6130     1.0  0.67508  0.87320  0.41711  1.0000
  H   H6131     1.0  0.68712  0.88012  0.41836  1.0000
  H   H6132     1.0  0.70456  0.88873  0.40821  1.0000
  H   H6133     1.0  0.69073  0.89818  0.40321  1.0000
  H   H6134     1.0  0.70511  0.90176  0.39540  1.0000
  N   N253      1.0  0.56853  0.70332  0.27044  1.0000
  C   C3616     1.0  0.57577  0.71213  0.27149  1.0000
  C   C3617     1.0  0.57709  0.69498  0.26218  1.0000
  C   C3618     1.0  0.56448  0.69597  0.28322  1.0000
  C   C3619     1.0  0.55748  0.71080  0.26520  1.0000
  C   C3620     1.0  0.56937  0.72043  0.28095  1.0000
  C   C3621     1.0  0.58175  0.70130  0.24878  1.0000
  C   C3622     1.0  0.56241  0.68300  0.28424  1.0000
  C   C3623     1.0  0.54932  0.70358  0.26238  1.0000
  H   H6135     1.0  0.57977  0.70649  0.37478  1.0000
  H   H6136     1.0  0.57814  0.71850  0.26252  1.0000
  H   H6137     1.0  0.57284  0.68760  0.26156  1.0000
  H   H6138     1.0  0.58535  0.68998  0.26612  1.0000
  H   H6139     1.0  0.57142  0.69452  0.28893  1.0000
  H   H6140     1.0  0.55579  0.70113  0.28820  1.0000
  H   H6141     1.0  0.55114  0.71646  0.27172  1.0000
  H   H6142     1.0  0.56007  0.71783  0.25680  1.0000
  H   H6143     1.0  0.57580  0.72615  0.28102  1.0000
  H   H6144     1.0  0.56090  0.72686  0.27850  1.0000
  H   H6145     1.0  0.60363  0.64733  0.31821  1.0000
  H   H6146     1.0  0.56536  0.90301  0.47556  1.0000
  H   H6147     1.0  0.57552  0.81153  0.39907  1.0000
  C   C3624     1.0  0.73505  0.88323  0.32135  1.0000
  H   H6148     1.0  0.55858  0.67916  0.29401  1.0000
  H   H6149     1.0  0.57128  0.67670  0.28149  1.0000
  H   H6150     1.0  0.54253  0.70052  0.27077  1.0000
  H   H6151     1.0  0.55462  0.69558  0.25829  1.0000
  H   H6152     1.0  0.59735  0.89555  0.47638  1.0000
  N   N254      1.0  0.63109  0.57513  0.37881  1.0000
  C   C3625     1.0  0.64193  0.56971  0.36972  1.0000
  C   C3626     1.0  0.62948  0.58897  0.37504  1.0000
  C   C3627     1.0  0.61985  0.57143  0.37756  1.0000
  C   C3628     1.0  0.63360  0.57009  0.39163  1.0000
  C   C3629     1.0  0.64515  0.55550  0.37162  1.0000
  C   C3630     1.0  0.64063  0.59425  0.37479  1.0000
  C   C3631     1.0  0.60741  0.57632  0.38557  1.0000
  C   C3632     1.0  0.62652  0.57773  0.40155  1.0000
  H   H6153     1.0  0.64045  0.57343  0.36011  1.0000
  H   H6154     1.0  0.65052  0.57233  0.36995  1.0000
  H   H6155     1.0  0.62144  0.59380  0.38094  1.0000
  H   H6156     1.0  0.62736  0.59225  0.36568  1.0000
  H   H6157     1.0  0.61872  0.57438  0.36783  1.0000
  H   H6158     1.0  0.62090  0.56124  0.37987  1.0000
  H   H6159     1.0  0.63173  0.56060  0.39514  1.0000
  H   H6160     1.0  0.64359  0.56912  0.39137  1.0000
  H   H6161     1.0  0.65381  0.55276  0.36499  1.0000
  H   H6162     1.0  0.64681  0.55093  0.38098  1.0000
  H   H6163     1.0  0.63806  0.55182  0.36960  1.0000
  H   H6164     1.0  0.64796  0.59292  0.36649  1.0000
  H   H6165     1.0  0.63760  0.60437  0.37416  1.0000
  H   H6166     1.0  0.64453  0.59026  0.38317  1.0000
  H   H6167     1.0  0.60713  0.57228  0.39547  1.0000
  H   H6168     1.0  0.60004  0.57334  0.38314  1.0000
  H   H6169     1.0  0.60492  0.58652  0.38385  1.0000
  H   H6170     1.0  0.62406  0.57132  0.41046  1.0000
  H   H6171     1.0  0.61783  0.58405  0.39973  1.0000
  H   H6172     1.0  0.63259  0.58299  0.40320  1.0000
  H   H6173     1.0  0.55852  0.85080  0.39752  1.0000
  H   H6174     1.0  0.54011  0.73728  0.36080  1.0000
  N   N255      1.0  0.56945  0.83076  0.41294  1.0000
  C   C3633     1.0  0.57638  0.82385  0.42301  1.0000
  C   C3634     1.0  0.57878  0.83367  0.40120  1.0000
  C   C3635     1.0  0.56157  0.82314  0.41090  1.0000
  C   C3636     1.0  0.56115  0.84230  0.41666  1.0000
  C   C3637     1.0  0.56856  0.81873  0.43551  1.0000
  C   C3638     1.0  0.58527  0.84412  0.40037  1.0000
  C   C3639     1.0  0.56849  0.81053  0.40776  1.0000
  C   C3640     1.0  0.55367  0.85089  0.40715  1.0000
  H   H6175     1.0  0.58349  0.81593  0.42013  1.0000
  H   H6176     1.0  0.58162  0.82980  0.42492  1.0000
  H   H6177     1.0  0.57462  0.83605  0.39295  1.0000
  H   H6178     1.0  0.58615  0.82537  0.39977  1.0000
  H   H6179     1.0  0.55394  0.82157  0.41900  1.0000
  H   H6180     1.0  0.56628  0.84776  0.41945  1.0000
  H   H6181     1.0  0.56355  0.81198  0.43481  1.0000
  H   H6182     1.0  0.58925  0.84288  0.40851  1.0000
  H   H6183     1.0  0.59289  0.84445  0.39211  1.0000
  H   H6184     1.0  0.57879  0.85313  0.39921  1.0000
  H   H6185     1.0  0.56179  0.80584  0.40636  1.0000
  H   H6186     1.0  0.55207  0.86058  0.40812  1.0000
  N   N256      1.0  0.65622  0.81853  0.40111  1.0000
  C   C3641     1.0  0.66647  0.81349  0.39128  1.0000
  C   C3642     1.0  0.64829  0.80903  0.40672  1.0000
  C   C3643     1.0  0.67626  0.82139  0.38472  1.0000
  C   C3644     1.0  0.64240  0.80570  0.39771  1.0000
  H   H6187     1.0  0.67145  0.80411  0.39512  1.0000
  H   H6188     1.0  0.66270  0.81234  0.38380  1.0000
  H   H6189     1.0  0.64064  0.81186  0.41422  1.0000
  H   H6190     1.0  0.65376  0.80029  0.41126  1.0000
  H   H6191     1.0  0.66821  0.81098  0.41420  1.0000
  H   H6192     1.0  0.68235  0.82130  0.39082  1.0000
  H   H6193     1.0  0.68230  0.81745  0.37681  1.0000
  H   H6194     1.0  0.63565  0.79989  0.40303  1.0000
  H   H6195     1.0  0.63737  0.81395  0.39219  1.0000
  H   H6196     1.0  0.64933  0.80004  0.39157  1.0000
  H   H6197     1.0  0.72829  0.90258  0.31621  1.0000
  H   H6198     1.0  0.57420  0.55940  0.34687  1.0000
  H   H6199     1.0  0.74542  0.87988  0.34276  1.0000
  H   H6200     1.0  0.51950  0.85675  0.37136  1.0000
  C   C3645     1.0  0.57772  0.54929  0.32642  1.0000
  H   H6201     1.0  0.58747  0.69410  0.24364  1.0000
  H   H6202     1.0  0.53463  0.85907  0.36400  1.0000
  H   H6203     1.0  0.56956  0.75533  0.34948  1.0000
  H   H6204     1.0  0.74099  0.87612  0.32700  1.0000
  C   C3646     1.0  0.54697  0.73190  0.36649  1.0000
  H   H6205     1.0  0.58735  0.55000  0.35344  1.0000
  H   H6206     1.0  0.52066  0.82675  0.35933  1.0000
  H   H6207     1.0  0.52145  0.83991  0.32568  1.0000
  C   C3647     1.0  0.54036  0.82917  0.35454  1.0000
  H   H6208     1.0  0.51793  0.84647  0.35681  1.0000
  H   H6209     1.0  0.54160  0.73004  0.37609  1.0000
  C   C3648     1.0  0.52647  0.85014  0.35423  1.0000
  H   H6210     1.0  0.64714  0.67395  0.29922  1.0000
  C   C3649     1.0  0.59204  0.55773  0.33347  1.0000
  C   C3650     1.0  0.52946  0.82321  0.36250  1.0000
  H   H6211     1.0  0.55095  0.84783  0.35315  1.0000
  C   C3651     1.0  0.53449  0.84229  0.33505  1.0000
  H   H6212     1.0  0.55911  0.84342  0.32677  1.0000
  C   C3652     1.0  0.54823  0.84802  0.34451  1.0000
  S   S1055     1.0  0.50707  0.87147  0.31717  1.0000
  H   H6213     1.0  0.51412  0.84429  0.33989  1.0000
  S   S1056     1.0  0.59204  0.64265  0.23893  1.0000
  H   H6214     1.0  0.54203  0.83605  0.32995  1.0000
  H   H6215     1.0  0.54616  0.82890  0.36107  1.0000
  H   H6216     1.0  0.57846  0.72817  0.37356  1.0000
  H   H6217     1.0  0.56077  0.73859  0.33028  1.0000
  H   H6218     1.0  0.54422  0.70962  0.25526  1.0000
  H   H6219     1.0  0.50308  0.88432  0.35603  1.0000
  H   H6220     1.0  0.62946  0.83759  0.32264  1.0000
  H   H6221     1.0  0.63078  0.67809  0.30368  1.0000
  C   C3653     1.0  0.64309  0.64708  0.28561  1.0000
  C   C3654     1.0  0.65357  0.82437  0.42215  1.0000
  H   H6222     1.0  0.54594  0.85795  0.33998  1.0000
  H   H6223     1.0  0.64027  0.62183  0.32109  1.0000
  H   H6224     1.0  0.62544  0.65910  0.28782  1.0000
  C   C3655     1.0  0.66220  0.81990  0.41078  1.0000
  H   H6225     1.0  0.60783  0.85044  0.34186  1.0000
  C   C3656     1.0  0.57790  0.75149  0.36499  1.0000
  H   H6226     1.0  0.71598  0.86655  0.37874  1.0000
  N   N257      1.0  0.56458  0.65431  0.35945  1.0000
  C   C3657     1.0  0.57360  0.65380  0.36719  1.0000
  C   C3658     1.0  0.56320  0.64128  0.36086  1.0000
  C   C3659     1.0  0.55236  0.66205  0.36443  1.0000
  C   C3660     1.0  0.56970  0.66008  0.34635  1.0000
  C   C3661     1.0  0.57539  0.66633  0.36821  1.0000
  C   C3662     1.0  0.57508  0.63224  0.35644  1.0000
  C   C3663     1.0  0.54070  0.66031  0.36131  1.0000
  C   C3664     1.0  0.56309  0.66000  0.33631  1.0000
  H   H6227     1.0  0.57081  0.64858  0.37676  1.0000
  H   H6228     1.0  0.58299  0.64878  0.36351  1.0000
  H   H6229     1.0  0.55626  0.64084  0.35594  1.0000
  H   H6230     1.0  0.55955  0.63736  0.37069  1.0000
  H   H6231     1.0  0.55055  0.66023  0.37469  1.0000
  H   H6232     1.0  0.55256  0.67202  0.36133  1.0000
  H   H6233     1.0  0.56956  0.66995  0.34559  1.0000
  H   H6234     1.0  0.57969  0.65607  0.34345  1.0000
  H   H6235     1.0  0.56672  0.67206  0.37240  1.0000
  H   H6236     1.0  0.58205  0.66466  0.37425  1.0000
  H   H6237     1.0  0.57944  0.67161  0.35918  1.0000
  H   H6238     1.0  0.57930  0.63554  0.34670  1.0000
  H   H6239     1.0  0.58180  0.63033  0.36243  1.0000
  H   H6240     1.0  0.57295  0.62321  0.35708  1.0000
  H   H6241     1.0  0.54141  0.66122  0.35137  1.0000
  H   H6242     1.0  0.53273  0.66752  0.36433  1.0000
  H   H6243     1.0  0.53835  0.65129  0.36636  1.0000
  H   H6244     1.0  0.55573  0.66836  0.33504  1.0000
  H   H6245     1.0  0.55909  0.65183  0.33798  1.0000
  H   H6246     1.0  0.56985  0.65999  0.32743  1.0000
  C   C3665     1.0  0.64121  0.63009  0.31357  1.0000
  H   H6247     1.0  0.73159  0.93180  0.32076  1.0000
  N   N258      1.0  0.62721  0.84186  0.34053  1.0000
  H   H6248     1.0  0.62719  0.64122  0.32485  1.0000
  C   C3666     1.0  0.74360  0.91456  0.31675  1.0000
  C   C3667     1.0  0.59453  0.53560  0.33577  1.0000
  N   N259      1.0  0.74592  0.90071  0.32105  1.0000
  H   H6249     1.0  0.61741  0.83180  0.33405  1.0000
  H   H6250     1.0  0.64319  0.84632  0.32680  1.0000
  H   H6251     1.0  0.59879  0.51573  0.33734  1.0000
  H   H6252     1.0  0.60181  0.55653  0.33410  1.0000
  H   H6253     1.0  0.61601  0.83137  0.35569  1.0000
  C   C3668     1.0  0.57532  0.74716  0.35445  1.0000
  H   H6254     1.0  0.55227  0.74933  0.36229  1.0000
  C   C3669     1.0  0.63561  0.82054  0.33443  1.0000
  H   H6255     1.0  0.63211  0.82685  0.35550  1.0000
  H   H6256     1.0  0.53410  0.85170  0.32908  1.0000
  H   H6257     1.0  0.55579  0.68300  0.27879  1.0000
  H   H6258     1.0  0.64304  0.64082  0.27972  1.0000
  H   H6259     1.0  0.65034  0.64233  0.29092  1.0000
  H   H6260     1.0  0.62477  0.64336  0.29344  1.0000
  N   N260      1.0  0.62874  0.65200  0.30623  1.0000
  H   H6261     1.0  0.61574  0.85055  0.36331  1.0000
  Fe  Fe529     1.0  0.50155  0.66337  0.32552  1.0000
  C   C3670     1.0  0.62693  0.83337  0.33258  1.0000
  C   C3671     1.0  0.59538  0.52412  0.33071  1.0000
  C   C3672     1.0  0.64092  0.85687  0.34032  1.0000
  H   H6262     1.0  0.56207  0.82615  0.43985  1.0000
  H   H6263     1.0  0.55685  0.82821  0.40317  1.0000
  H   H6264     1.0  0.57487  0.81371  0.44192  1.0000
  H   H6265     1.0  0.55414  0.83994  0.42512  1.0000
  H   H6266     1.0  0.57291  0.80435  0.41528  1.0000
  H   H6267     1.0  0.54463  0.84837  0.40851  1.0000
  H   H6268     1.0  0.67209  0.83102  0.38087  1.0000
  H   H6269     1.0  0.69587  0.87859  0.37336  1.0000
  H   H6270     1.0  0.62191  0.63516  0.31483  1.0000
  H   H6271     1.0  0.64844  0.83048  0.38588  1.0000
  H   H6272     1.0  0.70867  0.85825  0.37272  1.0000
  C   C3673     1.0  0.62460  0.83502  0.35375  1.0000
  C   C3674     1.0  0.63592  0.83543  0.40205  1.0000
  H   H6273     1.0  0.58576  0.74513  0.36877  1.0000
  H   H6274     1.0  0.72819  0.89739  0.33201  1.0000
  H   H6275     1.0  0.66834  0.82660  0.40685  1.0000
  H   H6276     1.0  0.52405  0.85927  0.34821  1.0000
  H   H6277     1.0  0.61083  0.86912  0.32495  1.0000
  H   H6278     1.0  0.68349  0.49405  0.30613  1.0000
  C   C3675     1.0  0.64922  0.83080  0.39524  1.0000
  H   H6279     1.0  0.65924  0.82439  0.42863  1.0000
  C   C3676     1.0  0.57166  0.56191  0.31957  1.0000
  H   H6280     1.0  0.64526  0.82109  0.33388  1.0000
  H   H6281     1.0  0.60906  0.56335  0.31200  1.0000
  H   H6282     1.0  0.63778  0.67200  0.28989  1.0000
  H   H6283     1.0  0.58625  0.52334  0.32980  1.0000
  H   H6284     1.0  0.58780  0.70764  0.24818  1.0000
  H   H6285     1.0  0.73760  0.92223  0.33359  1.0000
  C   C3677     1.0  0.61701  0.85304  0.33851  1.0000
  C   C3678     1.0  0.61762  0.86022  0.32508  1.0000
  H   H6286     1.0  0.55081  0.72284  0.36391  1.0000
  H   H6287     1.0  0.62683  0.86238  0.32068  1.0000
  H   H6288     1.0  0.57406  0.70616  0.24400  1.0000
  H   H6289     1.0  0.55249  0.74676  0.34224  1.0000
  H   H6290     1.0  0.56414  0.71451  0.37762  1.0000
  H   H6291     1.0  0.61663  0.85976  0.34397  1.0000
  H   H6292     1.0  0.74467  0.89933  0.29768  1.0000
  H   H6293     1.0  0.62048  0.83613  0.37294  1.0000
  C   C3679     1.0  0.62315  0.84215  0.36383  1.0000
  H   H6294     1.0  0.60503  0.65313  0.30170  1.0000
  H   H6295     1.0  0.56204  0.56170  0.31953  1.0000
  H   H6296     1.0  0.57711  0.54238  0.32151  1.0000
  H   H6297     1.0  0.60863  0.54200  0.31592  1.0000
  H   H6298     1.0  0.53196  0.81316  0.36263  1.0000
  H   H6299     1.0  0.61546  0.66929  0.30350  1.0000
  H   H6300     1.0  0.56302  0.83201  0.34027  1.0000
  C   C3680     1.0  0.57264  0.71350  0.37036  1.0000
  C   C3681     1.0  0.63982  0.84505  0.33697  1.0000
  N   N261      1.0  0.53718  0.84216  0.34727  1.0000
  N   N262      1.0  0.59083  0.54795  0.32755  1.0000
  H   H6301     1.0  0.60366  0.53480  0.33792  1.0000
  H   H6302     1.0  0.73835  0.88233  0.31161  1.0000
  H   H6303     1.0  0.56697  0.75023  0.33272  1.0000
  H   H6304     1.0  0.63385  0.85995  0.34806  1.0000
  C   C3682     1.0  0.73393  0.92205  0.32565  1.0000
  H   H6305     1.0  0.64930  0.63325  0.31422  1.0000
  H   H6306     1.0  0.57125  0.70968  0.36306  1.0000
  C   C3683     1.0  0.60274  0.56070  0.30777  1.0000
  H   H6307     1.0  0.54612  0.82291  0.34832  1.0000
  H   H6308     1.0  0.60206  0.52381  0.32182  1.0000
  H   H6309     1.0  0.63573  0.81587  0.32706  1.0000
  H   H6310     1.0  0.56967  0.75279  0.37249  1.0000
  H   H6311     1.0  0.64998  0.85525  0.34290  1.0000
  H   H6312     1.0  0.56722  0.71505  0.29049  1.0000
  H   H6313     1.0  0.56553  0.72427  0.34802  1.0000
  H   H6314     1.0  0.63201  0.84432  0.36384  1.0000
  H   H6315     1.0  0.53223  0.84381  0.37217  1.0000
  C   C3684     1.0  0.56008  0.84197  0.33642  1.0000
  H   H6316     1.0  0.61499  0.85516  0.31948  1.0000
  H   H6317     1.0  0.52288  0.82856  0.33935  1.0000
  C   C3685     1.0  0.73403  0.89648  0.32280  1.0000
  H   H6318     1.0  0.63741  0.65865  0.31712  1.0000
  H   H6319     1.0  0.57873  0.73045  0.34108  1.0000
  H   H6320     1.0  0.58666  0.72347  0.35958  1.0000
  H   H6321     1.0  0.74023  0.91741  0.30798  1.0000
  H   H6322     1.0  0.58427  0.74536  0.34783  1.0000
  H   H6323     1.0  0.55714  0.73913  0.37545  1.0000
  C   C3686     1.0  0.61638  0.66022  0.31001  1.0000
  H   H6324     1.0  0.61558  0.66238  0.31912  1.0000
  H   H6325     1.0  0.56771  0.84643  0.33608  1.0000
  C   C3687     1.0  0.57725  0.72566  0.36532  1.0000
  C   C3688     1.0  0.62990  0.65040  0.29332  1.0000
  C   C3689     1.0  0.56911  0.73275  0.34636  1.0000
  H   H6326     1.0  0.58072  0.76052  0.36126  1.0000
  H   H6327     1.0  0.59211  0.87580  0.48000  1.0000
  C   C3690     1.0  0.50474  0.87829  0.33927  1.0000
  H   H6328     1.0  0.61854  0.87583  0.47521  1.0000
  C   C3691     1.0  0.55652  0.73956  0.36583  1.0000
  H   H6329     1.0  0.73336  0.89132  0.36089  1.0000
  C   C3692     1.0  0.52250  0.83849  0.33533  1.0000
  H   H6330     1.0  0.72521  0.91864  0.32906  1.0000
  H   H6331     1.0  0.57242  0.85416  0.47931  1.0000
  H   H6332     1.0  0.74318  0.90203  0.34011  1.0000
  H   H6333     1.0  0.50458  0.92664  0.32611  1.0000
  H   H6334     1.0  0.49892  0.91650  0.31268  1.0000
  C   C3693     1.0  0.58414  0.88364  0.48114  1.0000
  C   C3694     1.0  0.50554  0.91763  0.33263  1.0000
  H   H6335     1.0  0.55348  0.89426  0.47858  1.0000
  H   H6336     1.0  0.56647  0.87608  0.47629  1.0000
  H   H6337     1.0  0.51244  0.91741  0.33795  1.0000
  H   H6338     1.0  0.58586  0.85969  0.47823  1.0000
  S   S1057     1.0  0.60093  0.66848  0.23625  1.0000
  C   C3695     1.0  0.55819  0.89891  0.48276  1.0000
  C   C3696     1.0  0.58919  0.89371  0.48376  1.0000
  H   H6339     1.0  0.58241  0.90257  0.48362  1.0000
  H   H6340     1.0  0.55600  0.63725  0.23632  1.0000
  H   H6341     1.0  0.54711  0.65890  0.23493  1.0000
  H   H6342     1.0  0.62287  0.89126  0.48431  1.0000
  C   C3697     1.0  0.57671  0.85872  0.48404  1.0000
  N   N263      1.0  0.57431  0.88357  0.62456  1.0000
  Fe  Fe530     1.0  0.71029  0.92696  0.58039  1.0000
  S   S1058     1.0  0.69448  0.91815  0.58231  1.0000
  S   S1059     1.0  0.70621  0.94684  0.58190  1.0000
  Fe  Fe531     1.0  0.72936  0.90420  0.57469  1.0000
  S   S1060     1.0  0.71493  0.89365  0.57591  1.0000
  Fe  Fe532     1.0  0.70524  0.91122  0.56538  1.0000
  S   S1061     1.0  0.69522  0.91495  0.54982  1.0000
  Fe  Fe533     1.0  0.70548  0.90149  0.59274  1.0000
  S   S1062     1.0  0.69747  0.88930  0.61021  1.0000
  S   S1063     1.0  0.72051  0.92120  0.56263  1.0000
  S   S1064     1.0  0.72049  0.91087  0.59227  1.0000
  H   H6343     1.0  0.58154  0.87835  0.50613  1.0000
  C   C3698     1.0  0.63088  0.94150  0.65241  1.0000
  S   S1065     1.0  0.59379  0.97225  0.61343  1.0000
  H   H6344     1.0  0.58962  0.89558  0.72716  1.0000
  C   C3699     1.0  0.57815  0.93590  0.59855  1.0000
  H   H6345     1.0  0.58328  0.96182  0.59549  1.0000
  S   S1066     1.0  0.65468  0.95939  0.61776  1.0000
  S   S1067     1.0  0.62972  0.95773  0.60115  1.0000
  H   H6346     1.0  0.66433  0.94067  0.56319  1.0000
  Fe  Fe534     1.0  0.62791  0.90357  0.63539  1.0000
  S   S1068     1.0  0.63123  0.88344  0.64401  1.0000
  S   S1069     1.0  0.64178  0.91509  0.62493  1.0000
  Fe  Fe535     1.0  0.60028  0.90637  0.64142  1.0000
  S   S1070     1.0  0.60110  0.88652  0.65053  1.0000
  S   S1071     1.0  0.58253  0.91957  0.63900  1.0000
  Fe  Fe536     1.0  0.61546  0.88905  0.65922  1.0000
  S   S1072     1.0  0.61601  0.88041  0.67919  1.0000
  Fe  Fe537     1.0  0.61662  0.88294  0.63449  1.0000
  S   S1073     1.0  0.61801  0.86796  0.62455  1.0000
  S   S1074     1.0  0.61334  0.90931  0.65129  1.0000
  S   S1075     1.0  0.61459  0.90265  0.62474  1.0000
  Fe  Fe538     1.0  0.62076  0.91475  0.54208  1.0000
  S   S1076     1.0  0.60689  0.90466  0.54091  1.0000
  S   S1077     1.0  0.61455  0.93517  0.54157  1.0000
  Fe  Fe539     1.0  0.64067  0.89156  0.54467  1.0000
  S   S1078     1.0  0.62845  0.87957  0.54370  1.0000
  S   S1079     1.0  0.65981  0.88189  0.54762  1.0000
  Fe  Fe540     1.0  0.62239  0.89463  0.52822  1.0000
  S   S1080     1.0  0.62156  0.89295  0.50902  1.0000
  Fe  Fe541     1.0  0.61415  0.89055  0.55638  1.0000
  S   S1081     1.0  0.60213  0.88126  0.57316  1.0000
  S   S1082     1.0  0.63584  0.90593  0.52825  1.0000
  S   S1083     1.0  0.62680  0.90136  0.55852  1.0000
  S   S1084     1.0  0.60828  0.91179  0.71959  1.0000
  C   C3700     1.0  0.61397  0.88936  0.69021  1.0000
  C   C3701     1.0  0.61534  0.88334  0.70223  1.0000
  C   C3702     1.0  0.61380  0.89012  0.71127  1.0000
  C   C3703     1.0  0.61092  0.90300  0.70834  1.0000
  C   C3704     1.0  0.60959  0.90904  0.69631  1.0000
  C   C3705     1.0  0.61097  0.90225  0.68731  1.0000
  H   H6347     1.0  0.61766  0.87337  0.70455  1.0000
  H   H6348     1.0  0.61493  0.88537  0.72049  1.0000
  H   H6349     1.0  0.60725  0.91901  0.69402  1.0000
  H   H6350     1.0  0.60964  0.90699  0.67817  1.0000
  C   C3706     1.0  0.61471  0.87191  0.60970  1.0000
  C   C3707     1.0  0.61231  0.86278  0.60517  1.0000
  C   C3708     1.0  0.60877  0.86567  0.59380  1.0000
  C   C3709     1.0  0.60798  0.87763  0.58666  1.0000
  C   C3710     1.0  0.61076  0.88674  0.59095  1.0000
  C   C3711     1.0  0.61397  0.88391  0.60254  1.0000
  H   H6351     1.0  0.61290  0.85349  0.61061  1.0000
  H   H6352     1.0  0.60658  0.85863  0.59056  1.0000
  H   H6353     1.0  0.61002  0.89604  0.58552  1.0000
  H   H6354     1.0  0.61582  0.89101  0.60589  1.0000
  C   C3712     1.0  0.63437  0.95236  0.56042  1.0000
  C   C3713     1.0  0.62362  0.95912  0.55635  1.0000
  C   C3714     1.0  0.61773  0.95382  0.55036  1.0000
  C   C3715     1.0  0.62239  0.94169  0.54867  1.0000
  C   C3716     1.0  0.63305  0.93488  0.55287  1.0000
  C   C3717     1.0  0.63909  0.94026  0.55859  1.0000
  H   H6355     1.0  0.62007  0.96854  0.55748  1.0000
  H   H6356     1.0  0.60954  0.95915  0.54702  1.0000
  H   H6357     1.0  0.63678  0.92556  0.55147  1.0000
  H   H6358     1.0  0.64748  0.93499  0.56149  1.0000
  C   C3718     1.0  0.59090  0.95771  0.62135  1.0000
  C   C3719     1.0  0.60055  0.94762  0.62348  1.0000
  C   C3720     1.0  0.59799  0.93590  0.62911  1.0000
  C   C3721     1.0  0.58577  0.93429  0.63265  1.0000
  C   C3722     1.0  0.57612  0.94443  0.63069  1.0000
  C   C3723     1.0  0.57868  0.95613  0.62508  1.0000
  H   H6359     1.0  0.60999  0.94880  0.62075  1.0000
  H   H6360     1.0  0.60551  0.92814  0.63056  1.0000
  H   H6361     1.0  0.56667  0.94323  0.63343  1.0000
  H   H6362     1.0  0.57120  0.96394  0.62346  1.0000
  C   C3724     1.0  0.69242  0.95047  0.59253  1.0000
  C   C3725     1.0  0.68818  0.94137  0.60227  1.0000
  C   C3726     1.0  0.67672  0.94420  0.61021  1.0000
  C   C3727     1.0  0.66926  0.95600  0.60813  1.0000
  C   C3728     1.0  0.67353  0.96509  0.59839  1.0000
  C   C3729     1.0  0.68523  0.96244  0.59083  1.0000
  H   H6363     1.0  0.69380  0.93217  0.60373  1.0000
  H   H6364     1.0  0.67349  0.93717  0.61774  1.0000
  H   H6365     1.0  0.66789  0.97423  0.59680  1.0000
  H   H6366     1.0  0.68857  0.96957  0.58347  1.0000
  C   C3730     1.0  0.68508  0.90565  0.55015  1.0000
  C   C3731     1.0  0.68876  0.89281  0.55242  1.0000
  C   C3732     1.0  0.68094  0.88560  0.55160  1.0000
  C   C3733     1.0  0.66937  0.89118  0.54862  1.0000
  C   C3734     1.0  0.66559  0.90400  0.54656  1.0000
  C   C3735     1.0  0.67350  0.91122  0.54719  1.0000
  H   H6367     1.0  0.69776  0.88847  0.55450  1.0000
  H   H6368     1.0  0.68389  0.87567  0.55319  1.0000
  H   H6369     1.0  0.65669  0.90838  0.54425  1.0000
  H   H6370     1.0  0.67064  0.92115  0.54527  1.0000
  C   C3736     1.0  0.68237  0.89654  0.61608  1.0000
  C   C3737     1.0  0.67848  0.90923  0.61226  1.0000
  C   C3738     1.0  0.66602  0.91483  0.61518  1.0000
  C   C3739     1.0  0.65740  0.90780  0.62229  1.0000
  C   C3740     1.0  0.66135  0.89522  0.62689  1.0000
  C   C3741     1.0  0.67386  0.88956  0.62374  1.0000
  H   H6371     1.0  0.68508  0.91475  0.60696  1.0000
  H   H6372     1.0  0.66301  0.92459  0.61172  1.0000
  H   H6373     1.0  0.65478  0.88978  0.63259  1.0000
  H   H6374     1.0  0.67683  0.87973  0.62684  1.0000
  H   H6375     1.0  0.64429  0.85507  0.51202  1.0000
  C   C3742     1.0  0.61177  0.86236  0.50553  1.0000
  C   C3743     1.0  0.61421  0.87110  0.51073  1.0000
  C   C3744     1.0  0.61821  0.88159  0.50312  1.0000
  C   C3745     1.0  0.56867  0.86644  0.51280  1.0000
  C   C3746     1.0  0.58299  0.88082  0.72451  1.0000
  H   H6376     1.0  0.60864  0.85429  0.51149  1.0000
  H   H6377     1.0  0.61294  0.86975  0.52061  1.0000
  Fe  Fe542     1.0  0.64031  0.96879  0.60631  1.0000
  H   H6378     1.0  0.63342  0.93318  0.68041  1.0000
  H   H6379     1.0  0.63136  0.90364  0.66738  1.0000
  C   C3747     1.0  0.61912  0.93056  0.59720  1.0000
  H   H6380     1.0  0.57096  0.89952  0.63277  1.0000
  C   C3748     1.0  0.55620  0.88269  0.64340  1.0000
  S   S1085     1.0  0.62362  0.98313  0.61171  1.0000
  C   C3749     1.0  0.56337  0.89012  0.49377  1.0000
  H   H6381     1.0  0.55928  0.89290  0.72220  1.0000
  H   H6382     1.0  0.65371  0.92670  0.63697  1.0000
  H   H6383     1.0  0.58046  0.86071  0.61573  1.0000
  H   H6384     1.0  0.56188  0.87069  0.63068  1.0000
  H   H6385     1.0  0.67608  0.87816  0.51345  1.0000
  H   H6386     1.0  0.54850  0.91076  0.71138  1.0000
  C   C3750     1.0  0.58412  0.90283  0.61596  1.0000
  S   S1086     1.0  0.64558  0.97946  0.58716  1.0000
  H   H6387     1.0  0.60859  0.94888  0.59708  1.0000
  H   H6388     1.0  0.66636  0.88963  0.50369  1.0000
  H   H6389     1.0  0.55929  0.86966  0.49135  1.0000
  H   H6390     1.0  0.68024  0.85652  0.49161  1.0000
  H   H6391     1.0  0.67125  0.85468  0.51875  1.0000
  C   C3751     1.0  0.57243  0.91533  0.72588  1.0000
  C   C3752     1.0  0.58047  0.89325  0.72849  1.0000
  H   H6392     1.0  0.59284  0.87906  0.62773  1.0000
  H   H6393     1.0  0.64287  0.86429  0.49284  1.0000
  H   H6394     1.0  0.58208  0.91676  0.72355  1.0000
  C   C3753     1.0  0.73562  0.89016  0.61885  1.0000
  H   H6395     1.0  0.57916  0.92416  0.70099  1.0000
  H   H6396     1.0  0.58906  0.85952  0.64474  1.0000
  C   C3754     1.0  0.63422  0.92731  0.65454  1.0000
  C   C3755     1.0  0.54891  0.91128  0.72077  1.0000
  C   C3756     1.0  0.56836  0.87135  0.48559  1.0000
  C   C3757     1.0  0.66817  0.85754  0.50980  1.0000
  H   H6397     1.0  0.57451  0.87712  0.72652  1.0000
  H   H6398     1.0  0.65469  0.84505  0.52977  1.0000
  H   H6399     1.0  0.72171  0.85462  0.63033  1.0000
  H   H6400     1.0  0.67102  0.97499  0.57133  1.0000
  H   H6401     1.0  0.57388  0.89835  0.70475  1.0000
  H   H6402     1.0  0.59918  0.92251  0.56729  1.0000
  C   C3758     1.0  0.55931  0.90112  0.72558  1.0000
  C   C3759     1.0  0.61326  0.86399  0.49269  1.0000
  H   H6403     1.0  0.71879  0.86763  0.61837  1.0000
  H   H6404     1.0  0.57815  0.92678  0.59696  1.0000
  H   H6405     1.0  0.57711  0.91679  0.69006  1.0000
  H   H6406     1.0  0.67930  0.87070  0.49618  1.0000
  H   H6407     1.0  0.59516  0.92736  0.60432  1.0000
  C   C3760     1.0  0.69488  0.94750  0.55232  1.0000
  H   H6408     1.0  0.58533  0.97185  0.58070  1.0000
  H   H6409     1.0  0.66755  0.93524  0.57818  1.0000
  H   H6410     1.0  0.56131  0.87353  0.51686  1.0000
  H   H6411     1.0  0.57414  0.94329  0.59152  1.0000
  H   H6412     1.0  0.62724  0.93303  0.59878  1.0000
  H   H6413     1.0  0.69346  0.93904  0.55054  1.0000
  H   H6414     1.0  0.55531  0.88685  0.50037  1.0000
  C   C3761     1.0  0.68436  0.98739  0.60609  1.0000
  H   H6415     1.0  0.72595  0.88402  0.60878  1.0000
  C   C3762     1.0  0.61732  0.87445  0.48509  1.0000
  H   H6416     1.0  0.66948  0.98090  0.63228  1.0000
  H   H6417     1.0  0.69223  0.96557  0.56320  1.0000
  C   C3763     1.0  0.67461  0.97770  0.56130  1.0000
  C   C3764     1.0  0.73836  0.86183  0.62137  1.0000
  C   C3765     1.0  0.72415  0.86370  0.62571  1.0000
  H   H6418     1.0  0.72081  0.86938  0.63285  1.0000
  C   C3766     1.0  0.66979  0.92084  0.64504  1.0000
  H   H6419     1.0  0.67207  0.91201  0.64188  1.0000
  C   C3767     1.0  0.63839  0.92364  0.67960  1.0000
  H   H6420     1.0  0.65524  0.93685  0.64541  1.0000
  H   H6421     1.0  0.56642  0.89566  0.49861  1.0000
  C   C3768     1.0  0.57814  0.87230  0.50221  1.0000
  C   C3769     1.0  0.64923  0.92378  0.66825  1.0000
  H   H6422     1.0  0.60119  0.95550  0.57164  1.0000
  C   C3770     1.0  0.61976  0.88319  0.49029  1.0000
  H   H6423     1.0  0.69067  0.97267  0.54784  1.0000
  H   H6424     1.0  0.54727  0.87963  0.64673  1.0000
  H   H6425     1.0  0.66917  0.95294  0.53259  1.0000
  H   H6426     1.0  0.66529  0.96260  0.54957  1.0000
  C   C3771     1.0  0.58592  0.86273  0.63585  1.0000
  H   H6427     1.0  0.56486  0.90257  0.61929  1.0000
  H   H6428     1.0  0.58609  0.90244  0.60608  1.0000
  H   H6429     1.0  0.64306  0.89955  0.67666  1.0000
  C   C3772     1.0  0.57867  0.88103  0.61170  1.0000
  H   H6430     1.0  0.57760  0.85897  0.63743  1.0000
  H   H6431     1.0  0.55417  0.89259  0.64372  1.0000
  Fe  Fe543     1.0  0.63389  0.96930  0.58220  1.0000
  H   H6432     1.0  0.70923  0.95837  0.54390  1.0000
  H   H6433     1.0  0.66706  0.95726  0.57074  1.0000
  H   H6434     1.0  0.58871  0.88085  0.60848  1.0000
  H   H6435     1.0  0.59249  0.89848  0.61979  1.0000
  C   C3773     1.0  0.66676  0.88399  0.51304  1.0000
  H   H6436     1.0  0.68119  0.94878  0.57491  1.0000
  H   H6437     1.0  0.69948  0.94420  0.56034  1.0000
  C   C3774     1.0  0.68577  0.96790  0.55678  1.0000
  C   C3775     1.0  0.67570  0.95076  0.56769  1.0000
  H   H6438     1.0  0.59329  0.85861  0.62879  1.0000
  H   H6439     1.0  0.58205  0.91269  0.61645  1.0000
  S   S1087     1.0  0.64275  0.95922  0.56663  1.0000
  C   C3776     1.0  0.67931  0.86078  0.49953  1.0000
  Fe  Fe544     1.0  0.61351  0.97323  0.60450  1.0000
  H   H6440     1.0  0.56656  0.86954  0.61038  1.0000
  H   H6441     1.0  0.60540  0.92141  0.58593  1.0000
  C   C3777     1.0  0.57650  0.86911  0.60959  1.0000
  N   N264      1.0  0.59984  0.94061  0.58755  1.0000
  H   H6442     1.0  0.61305  0.93157  0.57368  1.0000
  H   H6443     1.0  0.64537  0.88171  0.49941  1.0000
  C   C3778     1.0  0.59002  0.96373  0.58672  1.0000
  C   C3779     1.0  0.59546  0.93075  0.57151  1.0000
  H   H6444     1.0  0.64868  0.90616  0.64831  1.0000
  H   H6445     1.0  0.58640  0.95224  0.57671  1.0000
  H   H6446     1.0  0.62699  0.92382  0.66212  1.0000
  H   H6447     1.0  0.67927  0.93154  0.56527  1.0000
  C   C3780     1.0  0.65384  0.87438  0.49827  1.0000
  H   H6448     1.0  0.63169  0.91812  0.68000  1.0000
  H   H6449     1.0  0.54962  0.92068  0.72077  1.0000
  H   H6450     1.0  0.64768  0.88287  0.51933  1.0000
  H   H6451     1.0  0.72765  0.85763  0.60273  1.0000
  N   N265      1.0  0.57204  0.90391  0.72194  1.0000
  H   H6452     1.0  0.58947  0.87395  0.72988  1.0000
  C   C3781     1.0  0.61116  0.94232  0.59079  1.0000
  H   H6453     1.0  0.56727  0.92383  0.72080  1.0000
  N   N266      1.0  0.74324  0.87050  0.60982  1.0000
  C   C3782     1.0  0.64665  0.85289  0.53022  1.0000
  C   C3783     1.0  0.60394  0.93079  0.57994  1.0000
  H   H6454     1.0  0.67760  0.96790  0.53846  1.0000
  H   H6455     1.0  0.72475  0.87399  0.59569  1.0000
  H   H6456     1.0  0.61406  0.92663  0.60638  1.0000
  N   N267      1.0  0.64707  0.92141  0.65675  1.0000
  C   C3784     1.0  0.65599  0.92691  0.64575  1.0000
  C   C3785     1.0  0.73572  0.88349  0.60879  1.0000
  C   C3786     1.0  0.65672  0.87626  0.51810  1.0000
  H   H6457     1.0  0.58994  0.94258  0.60598  1.0000
  H   H6458     1.0  0.68540  0.94821  0.53189  1.0000
  C   C3787     1.0  0.70437  0.95261  0.54121  1.0000
  H   H6459     1.0  0.55507  0.88583  0.62433  1.0000
  C   C3788     1.0  0.67633  0.94976  0.53828  1.0000
  C   C3789     1.0  0.59112  0.93664  0.59939  1.0000
  H   H6460     1.0  0.57410  0.88862  0.60503  1.0000
  C   C3790     1.0  0.64568  0.86118  0.51739  1.0000
  H   H6461     1.0  0.70008  0.95807  0.53334  1.0000
  H   H6462     1.0  0.57792  0.85244  0.49296  1.0000
  C   C3791     1.0  0.57289  0.89724  0.62352  1.0000
  H   H6463     1.0  0.66020  0.98626  0.61294  1.0000
  H   H6464     1.0  0.74198  0.85208  0.62036  1.0000
  H   H6465     1.0  0.58113  0.86814  0.60001  1.0000
  H   H6466     1.0  0.73917  0.88926  0.59975  1.0000
  H   H6467     1.0  0.67482  0.94082  0.54424  1.0000
  N   N268      1.0  0.65645  0.86730  0.51069  1.0000
  H   H6468     1.0  0.57169  0.93722  0.60740  1.0000
  C   C3792     1.0  0.59438  0.95279  0.58012  1.0000
  N   N269      1.0  0.68282  0.95634  0.55538  1.0000
  C   C3793     1.0  0.67525  0.95971  0.54555  1.0000
  C   C3794     1.0  0.56180  0.88045  0.63023  1.0000
  H   H6469     1.0  0.58167  0.88039  0.64105  1.0000
  C   C3795     1.0  0.58368  0.87691  0.63241  1.0000
  C   C3796     1.0  0.67162  0.93884  0.56843  1.0000
  H   H6470     1.0  0.71148  0.94478  0.53808  1.0000
  H   H6471     1.0  0.56220  0.87726  0.64996  1.0000
  C   C3797     1.0  0.64125  0.90018  0.66748  1.0000
  H   H6472     1.0  0.65809  0.87143  0.52750  1.0000
  C   C3798     1.0  0.64950  0.90775  0.65716  1.0000
  N   N270      1.0  0.65638  0.89103  0.59120  1.0000
  C   C3799     1.0  0.65203  0.90355  0.58357  1.0000
  C   C3800     1.0  0.65761  0.88141  0.58395  1.0000
  C   C3801     1.0  0.66869  0.89009  0.59410  1.0000
  C   C3802     1.0  0.64717  0.88913  0.60318  1.0000
  C   C3803     1.0  0.65219  0.91477  0.58851  1.0000
  C   C3804     1.0  0.64538  0.87891  0.58291  1.0000
  C   C3805     1.0  0.67926  0.89229  0.58292  1.0000
  C   C3806     1.0  0.64993  0.87652  0.61199  1.0000
  H   H6473     1.0  0.65757  0.90463  0.57397  1.0000
  H   H6474     1.0  0.64240  0.90459  0.58258  1.0000
  H   H6475     1.0  0.66330  0.87244  0.58771  1.0000
  H   H6476     1.0  0.66275  0.88407  0.57436  1.0000
  H   H6477     1.0  0.66793  0.89660  0.59999  1.0000
  H   H6478     1.0  0.67191  0.88080  0.59962  1.0000
  H   H6479     1.0  0.64662  0.89607  0.60856  1.0000
  H   H6480     1.0  0.63760  0.89087  0.60175  1.0000
  H   H6481     1.0  0.64632  0.91488  0.59781  1.0000
  H   H6482     1.0  0.66167  0.91532  0.58859  1.0000
  H   H6483     1.0  0.64843  0.92335  0.58235  1.0000
  H   H6484     1.0  0.64738  0.87282  0.57624  1.0000
  H   H6485     1.0  0.64061  0.87406  0.59183  1.0000
  H   H6486     1.0  0.63906  0.88746  0.57946  1.0000
  H   H6487     1.0  0.68763  0.89186  0.58627  1.0000
  H   H6488     1.0  0.67721  0.90149  0.57687  1.0000
  H   H6489     1.0  0.68159  0.88496  0.57757  1.0000
  H   H6490     1.0  0.65643  0.87647  0.61765  1.0000
  H   H6491     1.0  0.65368  0.86873  0.60722  1.0000
  H   H6492     1.0  0.64121  0.87452  0.61822  1.0000
  H   H6493     1.0  0.62080  0.94466  0.65282  1.0000
  H   H6494     1.0  0.67547  0.92697  0.63809  1.0000
  H   H6495     1.0  0.63551  0.94576  0.64308  1.0000
  H   H6496     1.0  0.63318  0.94501  0.65946  1.0000
  H   H6497     1.0  0.64216  0.91970  0.68810  1.0000
  H   H6498     1.0  0.67263  0.91935  0.65390  1.0000
  H   H6499     1.0  0.65156  0.93303  0.66628  1.0000
  H   H6500     1.0  0.64347  0.89057  0.66606  1.0000
  H   H6501     1.0  0.65907  0.90321  0.65829  1.0000
  H   H6502     1.0  0.61734  0.94647  0.58242  1.0000
  H   H6503     1.0  0.62279  0.92347  0.59150  1.0000
  H   H6504     1.0  0.58590  0.93032  0.57644  1.0000
  H   H6505     1.0  0.63288  0.92484  0.64632  1.0000
  H   H6506     1.0  0.59542  0.93888  0.56375  1.0000
  H   H6507     1.0  0.59788  0.96654  0.58838  1.0000
  H   H6508     1.0  0.65739  0.91703  0.67120  1.0000
  H   H6509     1.0  0.58630  0.86486  0.50010  1.0000
  H   H6510     1.0  0.66109  0.87951  0.49287  1.0000
  C   C3807     1.0  0.73160  0.86517  0.59597  1.0000
  H   H6511     1.0  0.68792  0.85656  0.50309  1.0000
  N   N271      1.0  0.57349  0.87935  0.49069  1.0000
  H   H6512     1.0  0.66526  0.89059  0.51910  1.0000
  S   S1088     1.0  0.61684  0.98405  0.58505  1.0000
  H   H6513     1.0  0.56401  0.92191  0.70126  1.0000
  H   H6514     1.0  0.67760  0.98652  0.55983  1.0000
  H   H6515     1.0  0.73387  0.88435  0.62821  1.0000
  H   H6516     1.0  0.68068  0.97903  0.61110  1.0000
  H   H6517     1.0  0.66704  0.97952  0.55631  1.0000
  H   H6518     1.0  0.73336  0.86291  0.58676  1.0000
  C   C3808     1.0  0.57398  0.91776  0.69982  1.0000
  H   H6519     1.0  0.58722  0.90234  0.70619  1.0000
  H   H6520     1.0  0.72815  0.89858  0.61854  1.0000
  H   H6521     1.0  0.74441  0.89329  0.61717  1.0000
  H   H6522     1.0  0.59237  0.89082  0.49258  1.0000
  H   H6523     1.0  0.63827  0.84887  0.53393  1.0000
  S   S1089     1.0  0.60963  0.85290  0.48667  1.0000
  H   H6524     1.0  0.63694  0.86822  0.51852  1.0000
  C   C3809     1.0  0.65964  0.98483  0.63199  1.0000
  C   C3810     1.0  0.57698  0.90498  0.70823  1.0000
  H   H6525     1.0  0.56451  0.86021  0.50997  1.0000
  C   C3811     1.0  0.65212  0.86669  0.48988  1.0000
  H   H6526     1.0  0.57349  0.86075  0.52027  1.0000
  H   H6527     1.0  0.65934  0.85818  0.48945  1.0000
  H   H6528     1.0  0.64693  0.85802  0.53701  1.0000
  H   H6529     1.0  0.66632  0.84910  0.50816  1.0000
  H   H6530     1.0  0.55117  0.90667  0.48610  1.0000
  H   H6531     1.0  0.58756  0.88135  0.71467  1.0000
  H   H6532     1.0  0.65499  0.97694  0.63406  1.0000
  H   H6533     1.0  0.74178  0.86270  0.62927  1.0000
  H   H6534     1.0  0.53995  0.91005  0.72706  1.0000
  H   H6535     1.0  0.69445  0.98483  0.60580  1.0000
  C   C3812     1.0  0.74390  0.86595  0.59844  1.0000
  H   H6536     1.0  0.68330  0.98981  0.59643  1.0000
  S   S1090     1.0  0.73083  0.61999  0.88385  1.0000
  H   H6537     1.0  0.67182  0.62765  0.89799  1.0000
  Fe  Fe545     1.0  0.58201  0.72941  0.88332  1.0000
  S   S1091     1.0  0.59524  0.71492  0.87416  1.0000
  S   S1092     1.0  0.57077  0.72152  0.90153  1.0000
  Fe  Fe546     1.0  0.58848  0.74994  0.86169  1.0000
  S   S1093     1.0  0.60221  0.73689  0.85068  1.0000
  S   S1094     1.0  0.58484  0.76991  0.85178  1.0000
  Fe  Fe547     1.0  0.58813  0.72507  0.85725  1.0000
  S   S1095     1.0  0.58609  0.71309  0.84559  1.0000
  Fe  Fe548     1.0  0.60828  0.72765  0.86842  1.0000
  S   S1096     1.0  0.62795  0.71869  0.86971  1.0000
  S   S1097     1.0  0.57369  0.73881  0.86673  1.0000
  S   S1098     1.0  0.59576  0.74160  0.87914  1.0000
  Fe  Fe549     1.0  0.57772  0.64865  0.94496  1.0000
  S   S1099     1.0  0.58075  0.66073  0.95596  1.0000
  S   S1100     1.0  0.55937  0.65088  0.94022  1.0000
  Fe  Fe550     1.0  0.60435  0.63524  0.94090  1.0000
  S   S1101     1.0  0.60977  0.64605  0.95161  1.0000
  S   S1102     1.0  0.61763  0.62168  0.93019  1.0000
  Fe  Fe551     1.0  0.59223  0.64338  0.96514  1.0000
  Fe  Fe552     1.0  0.59798  0.66230  0.94149  1.0000
  S   S1103     1.0  0.60536  0.67947  0.93227  1.0000
  S   S1104     1.0  0.58768  0.63110  0.95527  1.0000
  S   S1105     1.0  0.59396  0.65174  0.92975  1.0000
  Fe  Fe553     1.0  0.67622  0.63795  0.85258  1.0000
  S   S1106     1.0  0.67167  0.65641  0.85769  1.0000
  S   S1107     1.0  0.69596  0.62832  0.84653  1.0000
  Fe  Fe554     1.0  0.64906  0.63582  0.85868  1.0000
  S   S1108     1.0  0.64250  0.65394  0.86433  1.0000
  S   S1109     1.0  0.63513  0.62413  0.86131  1.0000
  Fe  Fe555     1.0  0.65616  0.66064  0.84775  1.0000
  S   S1110     1.0  0.64929  0.67898  0.83624  1.0000
  Fe  Fe556     1.0  0.65849  0.64793  0.87370  1.0000
  S   S1111     1.0  0.65585  0.65124  0.89255  1.0000
  S   S1112     1.0  0.66171  0.64282  0.84113  1.0000
  S   S1113     1.0  0.66415  0.62912  0.86946  1.0000
  Fe  Fe557     1.0  0.53946  0.64562  0.86037  1.0000
  S   S1114     1.0  0.53670  0.65091  0.87864  1.0000
  S   S1115     1.0  0.52162  0.64637  0.85436  1.0000
  Fe  Fe558     1.0  0.56719  0.64583  0.85476  1.0000
  S   S1116     1.0  0.56634  0.65132  0.87223  1.0000
  S   S1117     1.0  0.58548  0.64300  0.84138  1.0000
  Fe  Fe559     1.0  0.55443  0.63746  0.88091  1.0000
  S   S1118     1.0  0.55725  0.62473  0.89901  1.0000
  Fe  Fe560     1.0  0.54884  0.66430  0.86847  1.0000
  S   S1119     1.0  0.54432  0.68309  0.87289  1.0000
  S   S1120     1.0  0.55637  0.63081  0.86357  1.0000
  S   S1121     1.0  0.55057  0.66016  0.85005  1.0000
  Fe  Fe561     1.0  0.52491  0.88610  0.84621  1.0000
  S   S1122     1.0  0.51616  0.89414  0.82980  1.0000
  S   S1123     1.0  0.53290  0.86627  0.85255  1.0000
  Fe  Fe562     1.0  0.52075  0.91016  0.85378  1.0000
  S   S1124     1.0  0.51113  0.92069  0.83836  1.0000
  S   S1125     1.0  0.52333  0.91707  0.86934  1.0000
  Fe  Fe563     1.0  0.52629  0.90929  0.82672  1.0000
  S   S1126     1.0  0.53450  0.91942  0.80806  1.0000
  H   H6538     1.0  0.51312  0.64324  0.79057  1.0000
  S   S1127     1.0  0.53670  0.90008  0.84185  1.0000
  Fe  Fe564     1.0  0.61590  0.87947  0.75867  1.0000
  S   S1128     1.0  0.60140  0.88402  0.74746  1.0000
  S   S1129     1.0  0.62885  0.86083  0.76048  1.0000
  Fe  Fe565     1.0  0.60920  0.90486  0.76473  1.0000
  S   S1130     1.0  0.59400  0.91181  0.75406  1.0000
  S   S1131     1.0  0.61669  0.91390  0.77563  1.0000
  Fe  Fe566     1.0  0.58908  0.89331  0.76248  1.0000
  S   S1132     1.0  0.56991  0.88935  0.76892  1.0000
  C   C3813     1.0  0.57126  0.94548  0.89716  1.0000
  S   S1133     1.0  0.60307  0.88716  0.77446  1.0000
  C   C3814     1.0  0.49869  0.63158  0.84342  1.0000
  Fe  Fe567     1.0  0.61038  0.82663  0.84906  1.0000
  S   S1134     1.0  0.61259  0.82975  0.82858  1.0000
  S   S1135     1.0  0.60949  0.80834  0.86239  1.0000
  Fe  Fe568     1.0  0.61048  0.85334  0.84844  1.0000
  S   S1136     1.0  0.61303  0.85867  0.82801  1.0000
  S   S1137     1.0  0.60536  0.86800  0.85971  1.0000
  Fe  Fe569     1.0  0.59906  0.84746  0.83029  1.0000
  S   S1138     1.0  0.58530  0.85622  0.81828  1.0000
  Fe  Fe570     1.0  0.62652  0.84064  0.82763  1.0000
  S   S1139     1.0  0.64341  0.83823  0.81246  1.0000
  S   S1140     1.0  0.59531  0.84342  0.85088  1.0000
  S   S1141     1.0  0.62551  0.83623  0.84811  1.0000
  Fe  Fe571     1.0  0.59088  0.94943  0.82532  1.0000
  S   S1142     1.0  0.60987  0.95145  0.82526  1.0000
  S   S1143     1.0  0.58301  0.95133  0.80871  1.0000
  Fe  Fe572     1.0  0.58447  0.94134  0.85314  1.0000
  S   S1144     1.0  0.60301  0.94232  0.85553  1.0000
  S   S1145     1.0  0.57047  0.93570  0.87011  1.0000
  Fe  Fe573     1.0  0.60089  0.96027  0.84171  1.0000
  S   S1146     1.0  0.60233  0.97888  0.84446  1.0000
  Fe  Fe574     1.0  0.61038  0.93343  0.83909  1.0000
  S   S1147     1.0  0.62599  0.91698  0.83711  1.0000
  S   S1148     1.0  0.58169  0.95981  0.84045  1.0000
  S   S1149     1.0  0.59201  0.93096  0.83803  1.0000
  C   C3815     1.0  0.59014  0.68885  0.96165  1.0000
  N   N272      1.0  0.51143  0.65055  0.80658  1.0000
  C   C3816     1.0  0.62335  0.97510  0.85401  1.0000
  C   C3817     1.0  0.68402  0.63389  0.90568  1.0000
  H   H6539     1.0  0.63849  0.88392  0.81662  1.0000
  H   H6540     1.0  0.69966  0.60245  0.88115  1.0000
  H   H6541     1.0  0.72263  0.65642  0.82723  1.0000
  H   H6542     1.0  0.62567  0.96586  0.85229  1.0000
  H   H6543     1.0  0.67255  0.60777  0.89529  1.0000
  H   H6544     1.0  0.57776  0.97874  0.90530  1.0000
  C   C3818     1.0  0.61144  0.88141  0.85339  1.0000
  C   C3819     1.0  0.62239  0.88143  0.84448  1.0000
  C   C3820     1.0  0.62713  0.89226  0.83991  1.0000
  C   C3821     1.0  0.62067  0.90319  0.84383  1.0000
  C   C3822     1.0  0.60971  0.90314  0.85271  1.0000
  C   C3823     1.0  0.60522  0.89224  0.85760  1.0000
  H   H6545     1.0  0.62736  0.87303  0.84137  1.0000
  H   H6546     1.0  0.63577  0.89226  0.83333  1.0000
  H   H6547     1.0  0.60480  0.91146  0.85598  1.0000
  H   H6548     1.0  0.59690  0.89223  0.86467  1.0000
  C   C3824     1.0  0.60705  0.92463  0.78434  1.0000
  C   C3825     1.0  0.61149  0.92715  0.79347  1.0000
  C   C3826     1.0  0.60405  0.93516  0.80103  1.0000
  C   C3827     1.0  0.59222  0.94117  0.79922  1.0000
  C   C3828     1.0  0.58780  0.93896  0.78986  1.0000
  C   C3829     1.0  0.59516  0.93057  0.78250  1.0000
  H   H6549     1.0  0.62072  0.92291  0.79479  1.0000
  H   H6550     1.0  0.60756  0.93684  0.80816  1.0000
  H   H6551     1.0  0.57863  0.94362  0.78843  1.0000
  H   H6552     1.0  0.59169  0.92877  0.77540  1.0000
  C   C3830     1.0  0.63336  0.85502  0.77474  1.0000
  C   C3831     1.0  0.64397  0.84575  0.77582  1.0000
  C   C3832     1.0  0.64727  0.84078  0.78736  1.0000
  C   C3833     1.0  0.63975  0.84479  0.79788  1.0000
  C   C3834     1.0  0.62919  0.85401  0.79671  1.0000
  C   C3835     1.0  0.62612  0.85921  0.78519  1.0000
  H   H6553     1.0  0.64964  0.84242  0.76776  1.0000
  H   H6554     1.0  0.65547  0.83363  0.78817  1.0000
  H   H6555     1.0  0.62332  0.85717  0.80466  1.0000
  H   H6556     1.0  0.61789  0.86619  0.78452  1.0000
  C   C3836     1.0  0.54443  0.91081  0.79746  1.0000
  C   C3837     1.0  0.55139  0.91691  0.78679  1.0000
  C   C3838     1.0  0.55937  0.91032  0.77809  1.0000
  C   C3839     1.0  0.56022  0.89764  0.77991  1.0000
  C   C3840     1.0  0.55307  0.89157  0.79046  1.0000
  C   C3841     1.0  0.54529  0.89812  0.79931  1.0000
  H   H6557     1.0  0.55074  0.92674  0.78535  1.0000
  H   H6558     1.0  0.56483  0.91507  0.76996  1.0000
  H   H6559     1.0  0.55372  0.88174  0.79190  1.0000
  H   H6560     1.0  0.53994  0.89336  0.80751  1.0000
  C   C3842     1.0  0.53678  0.92212  0.86871  1.0000
  C   C3843     1.0  0.54559  0.92453  0.85781  1.0000
  C   C3844     1.0  0.55606  0.92876  0.85797  1.0000
  C   C3845     1.0  0.55774  0.93040  0.86907  1.0000
  C   C3846     1.0  0.54903  0.92775  0.87989  1.0000
  C   C3847     1.0  0.53860  0.92373  0.87970  1.0000
  H   H6561     1.0  0.54421  0.92337  0.84926  1.0000
  H   H6562     1.0  0.56275  0.93082  0.84955  1.0000
  H   H6563     1.0  0.55026  0.92898  0.88848  1.0000
  H   H6564     1.0  0.53185  0.92191  0.88813  1.0000
  C   C3848     1.0  0.54721  0.86304  0.84273  1.0000
  C   C3849     1.0  0.54990  0.87097  0.83131  1.0000
  C   C3850     1.0  0.56153  0.86863  0.82360  1.0000
  C   C3851     1.0  0.57053  0.85853  0.82746  1.0000
  C   C3852     1.0  0.56780  0.85053  0.83881  1.0000
  C   C3853     1.0  0.55610  0.85275  0.84643  1.0000
  H   H6565     1.0  0.54300  0.87884  0.82838  1.0000
  H   H6566     1.0  0.56360  0.87476  0.81477  1.0000
  H   H6567     1.0  0.57463  0.84252  0.84164  1.0000
  H   H6568     1.0  0.55400  0.84658  0.85522  1.0000
  C   C3854     1.0  0.62180  0.63080  0.85510  1.0000
  C   C3855     1.0  0.62022  0.62631  0.84555  1.0000
  C   C3856     1.0  0.60907  0.63020  0.84145  1.0000
  C   C3857     1.0  0.59915  0.63822  0.84719  1.0000
  C   C3858     1.0  0.60065  0.64275  0.85682  1.0000
  C   C3859     1.0  0.61205  0.63919  0.86063  1.0000
  H   H6569     1.0  0.62761  0.61968  0.84138  1.0000
  H   H6570     1.0  0.60802  0.62673  0.83397  1.0000
  H   H6571     1.0  0.59314  0.64916  0.86113  1.0000
  H   H6572     1.0  0.61320  0.64260  0.86809  1.0000
  C   C3860     1.0  0.56034  0.64299  0.92870  1.0000
  C   C3861     1.0  0.55696  0.63153  0.93190  1.0000
  C   C3862     1.0  0.55631  0.62587  0.92271  1.0000
  C   C3863     1.0  0.55858  0.63184  0.91031  1.0000
  C   C3864     1.0  0.56206  0.64326  0.90711  1.0000
  C   C3865     1.0  0.56320  0.64869  0.91627  1.0000
  H   H6573     1.0  0.55466  0.62712  0.94150  1.0000
  H   H6574     1.0  0.55365  0.61703  0.92525  1.0000
  H   H6575     1.0  0.56396  0.64789  0.89760  1.0000
  H   H6576     1.0  0.56604  0.65743  0.91371  1.0000
  C   C3866     1.0  0.62891  0.62930  0.92007  1.0000
  C   C3867     1.0  0.63024  0.64040  0.92189  1.0000
  C   C3868     1.0  0.63890  0.64681  0.91367  1.0000
  C   C3869     1.0  0.64589  0.64245  0.90322  1.0000
  C   C3870     1.0  0.64459  0.63134  0.90129  1.0000
  C   C3871     1.0  0.63627  0.62463  0.90985  1.0000
  H   H6577     1.0  0.62456  0.64419  0.92958  1.0000
  H   H6578     1.0  0.63980  0.65543  0.91517  1.0000
  H   H6579     1.0  0.64996  0.62789  0.89325  1.0000
  H   H6580     1.0  0.63524  0.61608  0.90834  1.0000
  C   C3872     1.0  0.58029  0.70987  0.91019  1.0000
  C   C3873     1.0  0.59271  0.71019  0.90866  1.0000
  C   C3874     1.0  0.60024  0.70097  0.91571  1.0000
  C   C3875     1.0  0.59553  0.69115  0.92398  1.0000
  C   C3876     1.0  0.58316  0.69069  0.92541  1.0000
  C   C3877     1.0  0.57550  0.70016  0.91864  1.0000
  H   H6581     1.0  0.59645  0.71767  0.90217  1.0000
  H   H6582     1.0  0.60979  0.70140  0.91463  1.0000
  H   H6583     1.0  0.57947  0.68311  0.93177  1.0000
  H   H6584     1.0  0.56591  0.69990  0.91981  1.0000
  C   C3878     1.0  0.57457  0.70467  0.85326  1.0000
  C   C3879     1.0  0.57478  0.69366  0.85002  1.0000
  C   C3880     1.0  0.56560  0.68688  0.85615  1.0000
  C   C3881     1.0  0.55599  0.69130  0.86527  1.0000
  C   C3882     1.0  0.55572  0.70237  0.86840  1.0000
  C   C3883     1.0  0.56512  0.70891  0.86257  1.0000
  H   H6585     1.0  0.58204  0.69034  0.84282  1.0000
  H   H6586     1.0  0.56582  0.67836  0.85366  1.0000
  H   H6587     1.0  0.54823  0.70592  0.87530  1.0000
  H   H6588     1.0  0.56487  0.71742  0.86507  1.0000
  C   C3884     1.0  0.63421  0.70794  0.86012  1.0000
  C   C3885     1.0  0.64368  0.69791  0.86314  1.0000
  C   C3886     1.0  0.64826  0.68891  0.85591  1.0000
  C   C3887     1.0  0.64383  0.69025  0.84529  1.0000
  C   C3888     1.0  0.63476  0.70056  0.84198  1.0000
  C   C3889     1.0  0.62975  0.70922  0.84954  1.0000
  H   H6589     1.0  0.64724  0.69689  0.87126  1.0000
  H   H6590     1.0  0.65532  0.68103  0.85850  1.0000
  H   H6591     1.0  0.63150  0.70178  0.83366  1.0000
  H   H6592     1.0  0.62255  0.71696  0.84705  1.0000
  C   C3890     1.0  0.59070  0.78096  0.85539  1.0000
  C   C3891     1.0  0.59182  0.79201  0.84678  1.0000
  C   C3892     1.0  0.59736  0.80060  0.84892  1.0000
  C   C3893     1.0  0.60170  0.79823  0.85976  1.0000
  C   C3894     1.0  0.60021  0.78738  0.86856  1.0000
  C   C3895     1.0  0.59473  0.77874  0.86639  1.0000
  H   H6593     1.0  0.58861  0.79381  0.83830  1.0000
  H   H6594     1.0  0.59837  0.80899  0.84214  1.0000
  H   H6595     1.0  0.60340  0.78561  0.87704  1.0000
  H   H6596     1.0  0.59375  0.77034  0.87315  1.0000
  C   C3896     1.0  0.50622  0.62083  0.83989  1.0000
  Fe  Fe575     1.0  0.60730  0.90210  0.73962  1.0000
  C   C3897     1.0  0.50986  0.90995  0.79522  1.0000
  C   C3898     1.0  0.51584  0.63582  0.84961  1.0000
  C   C3899     1.0  0.52327  0.62488  0.84644  1.0000
  C   C3900     1.0  0.51846  0.61742  0.84163  1.0000
  H   H6597     1.0  0.60902  0.97096  0.87837  1.0000
  H   H6598     1.0  0.53277  0.62228  0.84747  1.0000
  H   H6599     1.0  0.52435  0.60909  0.83901  1.0000
  C   C3901     1.0  0.72162  0.62269  0.87294  1.0000
  C   C3902     1.0  0.71035  0.63120  0.87412  1.0000
  C   C3903     1.0  0.70247  0.63305  0.86599  1.0000
  C   C3904     1.0  0.70587  0.62645  0.85657  1.0000
  C   C3905     1.0  0.71732  0.61822  0.85515  1.0000
  C   C3906     1.0  0.72518  0.61632  0.86333  1.0000
  H   H6600     1.0  0.70766  0.63631  0.88140  1.0000
  H   H6601     1.0  0.69374  0.63955  0.86703  1.0000
  H   H6602     1.0  0.72002  0.61313  0.84784  1.0000
  H   H6603     1.0  0.65039  0.72903  0.83997  1.0000
  N   N273      1.0  0.55542  0.88122  0.87694  1.0000
  C   C3907     1.0  0.55759  0.89002  0.86468  1.0000
  C   C3908     1.0  0.54600  0.87423  0.87680  1.0000
  C   C3909     1.0  0.56711  0.87213  0.87925  1.0000
  C   C3910     1.0  0.55093  0.88861  0.88690  1.0000
  C   C3911     1.0  0.56853  0.89646  0.86212  1.0000
  C   C3912     1.0  0.53262  0.88162  0.87773  1.0000
  C   C3913     1.0  0.57328  0.86410  0.86957  1.0000
  C   C3914     1.0  0.54769  0.88120  0.90019  1.0000
  H   H6604     1.0  0.55897  0.88533  0.85696  1.0000
  H   H6605     1.0  0.54927  0.89748  0.86373  1.0000
  H   H6606     1.0  0.54600  0.86580  0.88424  1.0000
  H   H6607     1.0  0.54839  0.87066  0.86816  1.0000
  H   H6608     1.0  0.57409  0.87685  0.88012  1.0000
  H   H6609     1.0  0.56532  0.86561  0.88825  1.0000
  H   H6610     1.0  0.55806  0.89352  0.88700  1.0000
  H   H6611     1.0  0.54293  0.89626  0.88504  1.0000
  H   H6612     1.0  0.56865  0.90318  0.85322  1.0000
  H   H6613     1.0  0.56770  0.90185  0.86910  1.0000
  H   H6614     1.0  0.57752  0.88986  0.86128  1.0000
  H   H6615     1.0  0.52869  0.88412  0.88684  1.0000
  H   H6616     1.0  0.53192  0.89005  0.87039  1.0000
  H   H6617     1.0  0.52677  0.87587  0.87653  1.0000
  H   H6618     1.0  0.57612  0.86967  0.86031  1.0000
  H   H6619     1.0  0.56730  0.85812  0.86911  1.0000
  H   H6620     1.0  0.58181  0.85791  0.87220  1.0000
  H   H6621     1.0  0.55584  0.87839  0.90457  1.0000
  H   H6622     1.0  0.54431  0.87285  0.90077  1.0000
  H   H6623     1.0  0.54009  0.88702  0.90567  1.0000
  C   C3915     1.0  0.64214  0.76349  0.84494  1.0000
  C   C3916     1.0  0.63814  0.77733  0.84560  1.0000
  H   H6624     1.0  0.65027  0.75946  0.84936  1.0000
  H   H6625     1.0  0.64561  0.76337  0.83497  1.0000
  H   H6626     1.0  0.61779  0.75901  0.83099  1.0000
  H   H6627     1.0  0.65116  0.98474  0.83622  1.0000
  H   H6628     1.0  0.64621  0.78054  0.84631  1.0000
  H   H6629     1.0  0.63073  0.77961  0.85349  1.0000
  H   H6630     1.0  0.63548  0.78303  0.83690  1.0000
  H   H6631     1.0  0.58073  0.69068  0.96735  1.0000
  H   H6632     1.0  0.67691  0.64257  0.90491  1.0000
  H   H6633     1.0  0.60671  0.69921  0.96896  1.0000
  C   C3917     1.0  0.70573  0.59523  0.90610  1.0000
  H   H6634     1.0  0.51423  0.92141  0.77650  1.0000
  H   H6635     1.0  0.56421  0.94595  0.89197  1.0000
  H   H6636     1.0  0.69329  0.63615  0.90182  1.0000
  C   C3918     1.0  0.68957  0.60597  0.88207  1.0000
  H   H6637     1.0  0.63871  0.98803  0.82312  1.0000
  H   H6638     1.0  0.71583  0.59448  0.90479  1.0000
  H   H6639     1.0  0.73506  0.67175  0.83474  1.0000
  H   H6640     1.0  0.52127  0.70395  0.92173  1.0000
  H   H6641     1.0  0.71621  0.66970  0.83435  1.0000
  H   H6642     1.0  0.58392  0.70439  0.94763  1.0000
  H   H6643     1.0  0.54538  0.68232  0.93899  1.0000
  H   H6644     1.0  0.70807  0.65756  0.83768  1.0000
  H   H6645     1.0  0.61548  0.64277  0.97511  1.0000
  C   C3919     1.0  0.61177  0.67899  0.96071  1.0000
  C   C3920     1.0  0.64848  0.73597  0.84575  1.0000
  N   N274      1.0  0.68588  0.61163  0.90333  1.0000
  C   C3921     1.0  0.73588  0.65093  0.86871  1.0000
  H   H6646     1.0  0.56759  0.96828  0.91194  1.0000
  H   H6647     1.0  0.70447  0.61258  0.89306  1.0000
  H   H6648     1.0  0.72215  0.64315  0.84932  1.0000
  H   H6649     1.0  0.64152  0.91700  0.80462  1.0000
  H   H6650     1.0  0.59674  0.97513  0.89043  1.0000
  N   N275      1.0  0.73675  0.65314  0.84553  1.0000
  H   H6651     1.0  0.53094  0.69099  0.93548  1.0000
  C   C3922     1.0  0.63590  0.88455  0.79173  1.0000
  C   C3923     1.0  0.65688  0.88830  0.78788  1.0000
  C   C3924     1.0  0.64642  0.88073  0.80944  1.0000
  C   C3925     1.0  0.66386  0.87583  0.78451  1.0000
  C   C3926     1.0  0.64723  0.86674  0.81147  1.0000
  H   H6652     1.0  0.63917  0.87499  0.79034  1.0000
  H   H6653     1.0  0.62230  0.88147  0.80934  1.0000
  H   H6654     1.0  0.61756  0.89515  0.79814  1.0000
  H   H6655     1.0  0.67208  0.87735  0.77711  1.0000
  H   H6656     1.0  0.65835  0.87159  0.78082  1.0000
  H   H6657     1.0  0.66743  0.86933  0.79241  1.0000
  H   H6658     1.0  0.65399  0.86168  0.81739  1.0000
  H   H6659     1.0  0.65017  0.86291  0.80308  1.0000
  H   H6660     1.0  0.63831  0.86430  0.81673  1.0000
  N   N276      1.0  0.59960  0.61472  0.89421  1.0000
  C   C3927     1.0  0.59975  0.61259  0.88173  1.0000
  C   C3928     1.0  0.61288  0.61286  0.89514  1.0000
  C   C3929     1.0  0.59329  0.62792  0.89462  1.0000
  C   C3930     1.0  0.59259  0.60597  0.90400  1.0000
  C   C3931     1.0  0.58718  0.61569  0.87790  1.0000
  C   C3932     1.0  0.62098  0.60013  0.89358  1.0000
  C   C3933     1.0  0.59231  0.63214  0.90655  1.0000
  C   C3934     1.0  0.59530  0.60290  0.91711  1.0000
  H   H6661     1.0  0.60591  0.61790  0.87434  1.0000
  H   H6662     1.0  0.60368  0.60276  0.88117  1.0000
  H   H6663     1.0  0.61377  0.61432  0.90397  1.0000
  H   H6664     1.0  0.61742  0.61990  0.88802  1.0000
  H   H6665     1.0  0.59797  0.63428  0.88681  1.0000
  H   H6666     1.0  0.58362  0.62974  0.89346  1.0000
  H   H6667     1.0  0.58245  0.60952  0.90481  1.0000
  H   H6668     1.0  0.59450  0.59694  0.90123  1.0000
  H   H6669     1.0  0.58837  0.61233  0.86936  1.0000
  H   H6670     1.0  0.58021  0.61119  0.88501  1.0000
  H   H6671     1.0  0.58360  0.62578  0.87561  1.0000
  H   H6672     1.0  0.61651  0.59248  0.89929  1.0000
  H   H6673     1.0  0.62346  0.59937  0.88376  1.0000
  H   H6674     1.0  0.62980  0.59905  0.89645  1.0000
  H   H6675     1.0  0.58848  0.64219  0.90518  1.0000
  H   H6676     1.0  0.60130  0.63064  0.90916  1.0000
  H   H6677     1.0  0.58574  0.62774  0.91431  1.0000
  H   H6678     1.0  0.58650  0.60241  0.92396  1.0000
  H   H6679     1.0  0.59933  0.60960  0.91930  1.0000
  H   H6680     1.0  0.60129  0.59359  0.91894  1.0000
  N   N277      1.0  0.61529  0.67222  0.82470  1.0000
  C   C3935     1.0  0.62099  0.65880  0.82878  1.0000
  C   C3936     1.0  0.60203  0.67282  0.82449  1.0000
  C   C3937     1.0  0.61552  0.67890  0.83429  1.0000
  C   C3938     1.0  0.62277  0.67716  0.81232  1.0000
  C   C3939     1.0  0.63421  0.65591  0.83103  1.0000
  C   C3940     1.0  0.60015  0.66567  0.81571  1.0000
  C   C3941     1.0  0.61048  0.69289  0.83180  1.0000
  C   C3942     1.0  0.61625  0.68874  0.80418  1.0000
  H   H6681     1.0  0.61522  0.65471  0.83744  1.0000
  H   H6682     1.0  0.62136  0.65338  0.82192  1.0000
  H   H6683     1.0  0.59684  0.68238  0.82214  1.0000
  H   H6684     1.0  0.59696  0.66913  0.83389  1.0000
  H   H6685     1.0  0.61037  0.67483  0.84346  1.0000
  H   H6686     1.0  0.62508  0.67786  0.83539  1.0000
  H   H6687     1.0  0.63129  0.67929  0.81351  1.0000
  H   H6688     1.0  0.62607  0.66995  0.80667  1.0000
  H   H6689     1.0  0.63790  0.64581  0.83208  1.0000
  H   H6690     1.0  0.64061  0.66056  0.82332  1.0000
  H   H6691     1.0  0.63431  0.65824  0.83976  1.0000
  H   H6692     1.0  0.60576  0.66782  0.80631  1.0000
  H   H6693     1.0  0.60217  0.65557  0.81938  1.0000
  H   H6694     1.0  0.59028  0.66817  0.81503  1.0000
  H   H6695     1.0  0.61655  0.69773  0.82390  1.0000
  H   H6696     1.0  0.61042  0.69643  0.83992  1.0000
  H   H6697     1.0  0.60089  0.69548  0.83042  1.0000
  H   H6698     1.0  0.62285  0.69495  0.79963  1.0000
  H   H6699     1.0  0.60801  0.69434  0.80905  1.0000
  H   H6700     1.0  0.61380  0.68619  0.79658  1.0000
  N   N278      1.0  0.53542  0.68221  0.91262  1.0000
  C   C3943     1.0  0.53770  0.67167  0.90620  1.0000
  C   C3944     1.0  0.54149  0.69218  0.90366  1.0000
  C   C3945     1.0  0.52158  0.68678  0.91597  1.0000
  C   C3946     1.0  0.54082  0.67742  0.92402  1.0000
  C   C3947     1.0  0.53184  0.66056  0.91361  1.0000
  C   C3948     1.0  0.55566  0.68883  0.89950  1.0000
  C   C3949     1.0  0.51679  0.70062  0.91617  1.0000
  C   C3950     1.0  0.54051  0.68701  0.93130  1.0000
  H   H6701     1.0  0.53418  0.67496  0.89750  1.0000
  H   H6702     1.0  0.54770  0.66791  0.90341  1.0000
  H   H6703     1.0  0.53964  0.70056  0.90748  1.0000
  H   H6704     1.0  0.53754  0.69522  0.89520  1.0000
  H   H6705     1.0  0.51689  0.68518  0.90932  1.0000
  H   H6706     1.0  0.51762  0.68146  0.92510  1.0000
  H   H6707     1.0  0.53603  0.67036  0.93069  1.0000
  H   H6708     1.0  0.55058  0.67259  0.92168  1.0000
  H   H6709     1.0  0.53357  0.65388  0.90759  1.0000
  H   H6710     1.0  0.53610  0.65553  0.92162  1.0000
  H   H6711     1.0  0.52170  0.66321  0.91671  1.0000
  H   H6712     1.0  0.55861  0.68192  0.89359  1.0000
  H   H6713     1.0  0.55899  0.69723  0.89381  1.0000
  H   H6714     1.0  0.56038  0.68574  0.90736  1.0000
  C   C3951     1.0  0.73788  0.66633  0.84347  1.0000
  H   H6715     1.0  0.51533  0.90455  0.80233  1.0000
  H   H6716     1.0  0.68626  0.60045  0.87746  1.0000
  H   H6717     1.0  0.52744  0.64346  0.79336  1.0000
  H   H6718     1.0  0.68776  0.61557  0.87685  1.0000
  H   H6719     1.0  0.70451  0.58959  0.90019  1.0000
  H   H6720     1.0  0.50673  0.70229  0.92016  1.0000
  S   S1150     1.0  0.50956  0.89546  0.85923  1.0000
  C   C3952     1.0  0.67963  0.60766  0.91656  1.0000
  H   H6721     1.0  0.65553  0.89495  0.77908  1.0000
  C   C3953     1.0  0.66553  0.61240  0.91967  1.0000
  H   H6722     1.0  0.50789  0.92046  0.81365  1.0000
  H   H6723     1.0  0.58348  0.96263  0.90585  1.0000
  H   H6724     1.0  0.50764  0.90303  0.79141  1.0000
  H   H6725     1.0  0.68370  0.61040  0.92298  1.0000
  H   H6726     1.0  0.68123  0.59743  0.91931  1.0000
  C   C3954     1.0  0.59168  0.70118  0.95259  1.0000
  H   H6727     1.0  0.66187  0.60828  0.92940  1.0000
  H   H6728     1.0  0.66303  0.62255  0.91882  1.0000
  H   H6729     1.0  0.66075  0.60970  0.91388  1.0000
  H   H6730     1.0  0.50769  0.67022  0.80581  1.0000
  C   C3955     1.0  0.68169  0.62523  0.89864  1.0000
  H   H6731     1.0  0.64968  0.90259  0.81168  1.0000
  N   N279      1.0  0.61138  0.67490  0.88702  1.0000
  C   C3956     1.0  0.61955  0.68424  0.88301  1.0000
  C   C3957     1.0  0.60786  0.67368  0.87569  1.0000
  C   C3958     1.0  0.61902  0.66281  0.89239  1.0000
  C   C3959     1.0  0.60036  0.67916  0.89659  1.0000
  C   C3960     1.0  0.62590  0.68530  0.89288  1.0000
  C   C3961     1.0  0.60176  0.68577  0.86801  1.0000
  C   C3962     1.0  0.61341  0.65133  0.89551  1.0000
  C   C3963     1.0  0.58851  0.67447  0.89806  1.0000
  H   H6732     1.0  0.62698  0.68216  0.87494  1.0000
  H   H6733     1.0  0.61427  0.69365  0.87986  1.0000
  H   H6734     1.0  0.60135  0.66739  0.87800  1.0000
  H   H6735     1.0  0.61616  0.66948  0.86942  1.0000
  H   H6736     1.0  0.62813  0.66082  0.88609  1.0000
  H   H6737     1.0  0.62120  0.66329  0.90111  1.0000
  H   H6738     1.0  0.60276  0.67654  0.90584  1.0000
  H   H6739     1.0  0.59757  0.68941  0.89478  1.0000
  H   H6740     1.0  0.62939  0.69400  0.88991  1.0000
  H   H6741     1.0  0.61950  0.68554  0.90191  1.0000
  H   H6742     1.0  0.63399  0.67760  0.89400  1.0000
  H   H6743     1.0  0.59798  0.68364  0.86103  1.0000
  H   H6744     1.0  0.59392  0.69101  0.87375  1.0000
  H   H6745     1.0  0.60852  0.69166  0.86294  1.0000
  H   H6746     1.0  0.62073  0.64305  0.89729  1.0000
  H   H6747     1.0  0.60980  0.65011  0.88799  1.0000
  H   H6748     1.0  0.60638  0.65119  0.90415  1.0000
  H   H6749     1.0  0.58381  0.67901  0.89026  1.0000
  H   H6750     1.0  0.58198  0.67686  0.90650  1.0000
  H   H6751     1.0  0.59006  0.66440  0.89919  1.0000
  H   H6752     1.0  0.56332  0.98511  0.87092  1.0000
  H   H6753     1.0  0.49899  0.63863  0.81796  1.0000
  H   H6754     1.0  0.52574  0.62248  0.79726  1.0000
  H   H6755     1.0  0.57453  0.93553  0.90091  1.0000
  H   H6756     1.0  0.55755  0.91484  0.74262  1.0000
  H   H6757     1.0  0.51926  0.67732  0.78584  1.0000
  C   C3964     1.0  0.72339  0.65281  0.84699  1.0000
  C   C3965     1.0  0.51813  0.64176  0.79811  1.0000
  H   H6758     1.0  0.56387  0.96203  0.87722  1.0000
  H   H6759     1.0  0.62142  0.66513  0.97439  1.0000
  H   H6760     1.0  0.59199  0.70803  0.98371  1.0000
  H   H6761     1.0  0.53210  0.65939  0.81293  1.0000
  H   H6762     1.0  0.52983  0.66473  0.79269  1.0000
  C   C3966     1.0  0.53126  0.64971  0.81414  1.0000
  H   H6763     1.0  0.73860  0.63628  0.85937  1.0000
  H   H6764     1.0  0.55640  0.89823  0.73576  1.0000
  H   H6765     1.0  0.57678  0.89134  0.73861  1.0000
  C   C3967     1.0  0.50350  0.63903  0.84821  1.0000
  C   C3968     1.0  0.57551  0.97025  0.90431  1.0000
  H   H6766     1.0  0.61453  0.68678  0.95332  1.0000
  H   H6767     1.0  0.52244  0.66291  0.78134  1.0000
  C   C3969     1.0  0.49863  0.64791  0.81182  1.0000
  C   C3970     1.0  0.63145  0.97922  0.85868  1.0000
  H   H6768     1.0  0.71755  0.65690  0.85488  1.0000
  C   C3971     1.0  0.59054  0.69882  0.98376  1.0000
  C   C3972     1.0  0.51005  0.66373  0.79944  1.0000
  H   H6769     1.0  0.51685  0.63978  0.82356  1.0000
  C   C3973     1.0  0.74293  0.63523  0.83397  1.0000
  C   C3974     1.0  0.71744  0.65956  0.83581  1.0000
  H   H6770     1.0  0.68643  0.62805  0.88896  1.0000
  N   N280      1.0  0.57965  0.96434  0.88294  1.0000
  H   H6771     1.0  0.52668  0.90950  0.78107  1.0000
  C   C3975     1.0  0.57185  0.97244  0.89173  1.0000
  H   H6772     1.0  0.63547  0.76563  0.87038  1.0000
  H   H6773     1.0  0.62630  0.77104  0.82856  1.0000
  H   H6774     1.0  0.52486  0.62555  0.81192  1.0000
  H   H6775     1.0  0.68380  0.59467  0.89978  1.0000
  C   C3976     1.0  0.63935  0.90165  0.79821  1.0000
  H   H6776     1.0  0.65479  0.88200  0.81175  1.0000
  N   N281      1.0  0.63245  0.75574  0.85031  1.0000
  H   H6777     1.0  0.53685  0.64588  0.80610  1.0000
  H   H6778     1.0  0.49767  0.64744  0.85069  1.0000
  S   S1151     1.0  0.62298  0.89678  0.74954  1.0000
  C   C3977     1.0  0.69962  0.60893  0.90249  1.0000
  H   H6779     1.0  0.65624  0.74087  0.84264  1.0000
  C   C3978     1.0  0.59156  0.96852  0.87648  1.0000
  N   N282      1.0  0.49824  0.91807  0.80089  1.0000
  H   H6780     1.0  0.64834  0.73064  0.85531  1.0000
  N   N283      1.0  0.58209  0.90149  0.81849  1.0000
  C   C3979     1.0  0.56830  0.90471  0.82307  1.0000
  C   C3980     1.0  0.58637  0.88769  0.82160  1.0000
  C   C3981     1.0  0.58552  0.90579  0.80475  1.0000
  C   C3982     1.0  0.58814  0.90787  0.82449  1.0000
  C   C3983     1.0  0.56201  0.91828  0.81883  1.0000
  C   C3984     1.0  0.58442  0.88178  0.83542  1.0000
  C   C3985     1.0  0.57966  0.90064  0.79710  1.0000
  C   C3986     1.0  0.60232  0.90424  0.82238  1.0000
  H   H6781     1.0  0.56352  0.89877  0.82049  1.0000
  H   H6782     1.0  0.56595  0.90281  0.83329  1.0000
  H   H6783     1.0  0.59628  0.88483  0.81736  1.0000
  H   H6784     1.0  0.58136  0.88311  0.81764  1.0000
  H   H6785     1.0  0.58318  0.91599  0.80218  1.0000
  H   H6786     1.0  0.59563  0.90324  0.80133  1.0000
  H   H6787     1.0  0.58590  0.91804  0.82110  1.0000
  H   H6788     1.0  0.58455  0.90632  0.83462  1.0000
  H   H6789     1.0  0.56222  0.92069  0.80880  1.0000
  H   H6790     1.0  0.55213  0.91968  0.82352  1.0000
  H   H6791     1.0  0.56603  0.92486  0.82130  1.0000
  H   H6792     1.0  0.58798  0.87168  0.83656  1.0000
  H   H6793     1.0  0.58943  0.88523  0.84042  1.0000
  H   H6794     1.0  0.57449  0.88301  0.83973  1.0000
  H   H6795     1.0  0.58180  0.90547  0.78732  1.0000
  H   H6796     1.0  0.56954  0.90218  0.80005  1.0000
  H   H6797     1.0  0.58347  0.89067  0.79742  1.0000
  H   H6798     1.0  0.60566  0.89444  0.82647  1.0000
  H   H6799     1.0  0.60562  0.90984  0.82688  1.0000
  H   H6800     1.0  0.60670  0.90636  0.81255  1.0000
  N   N284      1.0  0.59806  0.83891  0.78656  1.0000
  C   C3987     1.0  0.61121  0.83159  0.78525  1.0000
  C   C3988     1.0  0.59327  0.83805  0.77584  1.0000
  C   C3989     1.0  0.59068  0.83295  0.79853  1.0000
  C   C3990     1.0  0.59818  0.85199  0.78657  1.0000
  C   C3991     1.0  0.61708  0.82876  0.79659  1.0000
  C   C3992     1.0  0.60053  0.84315  0.76297  1.0000
  C   C3993     1.0  0.57661  0.83777  0.80126  1.0000
  C   C3994     1.0  0.58661  0.86198  0.78406  1.0000
  H   H6801     1.0  0.61193  0.82253  0.78300  1.0000
  H   H6802     1.0  0.61748  0.83645  0.77747  1.0000
  H   H6803     1.0  0.58355  0.84292  0.77615  1.0000
  H   H6804     1.0  0.59321  0.82827  0.77622  1.0000
  H   H6805     1.0  0.59224  0.82284  0.79908  1.0000
  H   H6806     1.0  0.59383  0.83396  0.80653  1.0000
  H   H6807     1.0  0.60009  0.85258  0.79536  1.0000
  H   H6808     1.0  0.60597  0.85506  0.77937  1.0000
  H   H6809     1.0  0.62724  0.82564  0.79386  1.0000
  H   H6810     1.0  0.61538  0.83694  0.80062  1.0000
  H   H6811     1.0  0.61362  0.82119  0.80380  1.0000
  H   H6812     1.0  0.59564  0.84300  0.75586  1.0000
  H   H6813     1.0  0.60124  0.85284  0.76189  1.0000
  H   H6814     1.0  0.60992  0.83741  0.76087  1.0000
  H   H6815     1.0  0.57416  0.84723  0.80301  1.0000
  H   H6816     1.0  0.57257  0.83196  0.80998  1.0000
  H   H6817     1.0  0.57208  0.83714  0.79411  1.0000
  H   H6818     1.0  0.58394  0.86797  0.79091  1.0000
  H   H6819     1.0  0.57832  0.85867  0.78437  1.0000
  H   H6820     1.0  0.58884  0.86807  0.77491  1.0000
  C   C3995     1.0  0.62262  0.88546  0.79943  1.0000
  H   H6821     1.0  0.63528  0.89021  0.78233  1.0000
  H   H6822     1.0  0.56684  0.94994  0.90512  1.0000
  H   H6823     1.0  0.62488  0.74469  0.86761  1.0000
  H   H6824     1.0  0.73385  0.60971  0.86237  1.0000
  C   C3996     1.0  0.61857  0.76682  0.83455  1.0000
  H   H6825     1.0  0.74385  0.62830  0.84257  1.0000
  N   N285      1.0  0.64472  0.88845  0.79695  1.0000
  H   H6826     1.0  0.66348  0.89138  0.79139  1.0000
  H   H6827     1.0  0.61670  0.77102  0.85204  1.0000
  H   H6828     1.0  0.61751  0.88049  0.79609  1.0000
  H   H6829     1.0  0.51271  0.65555  0.82306  1.0000
  H   H6830     1.0  0.58972  0.97823  0.87136  1.0000
  H   H6831     1.0  0.60990  0.77382  0.83387  1.0000
  H   H6832     1.0  0.61916  0.76666  0.87122  1.0000
  H   H6833     1.0  0.58976  0.68229  0.95621  1.0000
  C   C3997     1.0  0.51997  0.62792  0.80420  1.0000
  H   H6834     1.0  0.51112  0.62474  0.80740  1.0000
  H   H6835     1.0  0.70195  0.61384  0.90847  1.0000
  C   C3998     1.0  0.61983  0.76266  0.84813  1.0000
  C   C3999     1.0  0.60193  0.69213  0.97568  1.0000
  C   C4000     1.0  0.51761  0.64873  0.81718  1.0000
  H   H6836     1.0  0.54537  0.69441  0.92563  1.0000
  H   H6837     1.0  0.52259  0.92301  0.78716  1.0000
  C   C4001     1.0  0.58243  0.95085  0.88900  1.0000
  H   H6838     1.0  0.73129  0.67113  0.85058  1.0000
  S   S1152     1.0  0.50098  0.61182  0.83265  1.0000
  C   C4002     1.0  0.57262  0.96535  0.87315  1.0000
  H   H6839     1.0  0.58690  0.94514  0.88190  1.0000
  C   C4003     1.0  0.62812  0.76038  0.87212  1.0000
  C   C4004     1.0  0.60052  0.96823  0.88452  1.0000
  H   H6840     1.0  0.56801  0.92443  0.74132  1.0000
  H   H6841     1.0  0.63746  0.90751  0.78923  1.0000
  H   H6842     1.0  0.63033  0.90240  0.80487  1.0000
  C   C4005     1.0  0.63596  0.74474  0.84428  1.0000
  H   H6843     1.0  0.61901  0.60821  0.98151  1.0000
  H   H6844     1.0  0.57176  0.98232  0.88731  1.0000
  H   H6845     1.0  0.62873  0.73908  0.84775  1.0000
  H   H6846     1.0  0.63995  0.97305  0.86059  1.0000
  Fe  Fe576     1.0  0.50162  0.90484  0.84253  1.0000
  H   H6847     1.0  0.63654  0.74772  0.83417  1.0000
  H   H6848     1.0  0.56203  0.97158  0.89374  1.0000
  H   H6849     1.0  0.58931  0.94872  0.89482  1.0000
  N   N286      1.0  0.59984  0.68314  0.96935  1.0000
  H   H6850     1.0  0.57699  0.98180  0.85907  1.0000
  H   H6851     1.0  0.57805  0.95929  0.86662  1.0000
  H   H6852     1.0  0.64064  0.74507  0.86590  1.0000
  C   C4006     1.0  0.63167  0.75082  0.86395  1.0000
  H   H6853     1.0  0.61277  0.75701  0.85306  1.0000
  H   H6854     1.0  0.62709  0.75545  0.88191  1.0000
  C   C4007     1.0  0.64714  0.90792  0.80284  1.0000
  H   H6855     1.0  0.65548  0.90985  0.79584  1.0000
  C   C4008     1.0  0.68252  0.60470  0.89561  1.0000
  C   C4009     1.0  0.62312  0.67293  0.96662  1.0000
  H   H6856     1.0  0.57291  0.90822  0.74562  1.0000
  H   H6857     1.0  0.68320  0.63010  0.91566  1.0000
  H   H6858     1.0  0.70231  0.59130  0.91592  1.0000
  H   H6859     1.0  0.51801  0.70630  0.90666  1.0000
  H   H6860     1.0  0.63086  0.66918  0.95960  1.0000
  H   H6861     1.0  0.73944  0.64424  0.87654  1.0000
  C   C4010     1.0  0.52115  0.66718  0.78934  1.0000
  H   H6862     1.0  0.56310  0.97774  0.85917  1.0000
  H   H6863     1.0  0.50824  0.93208  0.80002  1.0000
  H   H6864     1.0  0.60360  0.95897  0.89000  1.0000
  H   H6865     1.0  0.59680  0.96293  0.86946  1.0000
  C   C4011     1.0  0.61241  0.98305  0.85135  1.0000
  H   H6866     1.0  0.72568  0.65248  0.87133  1.0000
  H   H6867     1.0  0.62633  0.67973  0.96969  1.0000
  H   H6868     1.0  0.61063  0.67224  0.95590  1.0000
  H   H6869     1.0  0.74328  0.65434  0.82581  1.0000
  H   H6870     1.0  0.53559  0.64406  0.82197  1.0000
  C   C4012     1.0  0.50221  0.92622  0.80687  1.0000
  H   H6871     1.0  0.60021  0.70028  0.94537  1.0000
  C   C4013     1.0  0.56891  0.97833  0.86528  1.0000
  C   C4014     1.0  0.59659  0.67177  0.97856  1.0000
  H   H6872     1.0  0.73387  0.63586  0.83184  1.0000
  H   H6873     1.0  0.59897  0.66376  0.97399  1.0000
  H   H6874     1.0  0.59133  0.70850  0.95738  1.0000
  C   C4015     1.0  0.74104  0.64545  0.85704  1.0000
  C   C4016     1.0  0.56738  0.91553  0.73966  1.0000
  C   C4017     1.0  0.51867  0.91654  0.78441  1.0000
  H   H6875     1.0  0.60850  0.68738  0.98190  1.0000
  H   H6876     1.0  0.73900  0.65954  0.86777  1.0000
  C   C4018     1.0  0.74470  0.64789  0.83465  1.0000
  H   H6877     1.0  0.58193  0.70074  0.98037  1.0000
  H   H6878     1.0  0.50219  0.66615  0.79461  1.0000
  H   H6879     1.0  0.57722  0.67211  0.97895  1.0000
  H   H6880     1.0  0.63221  0.64359  0.98461  1.0000
  H   H6881     1.0  0.82988  0.05527  0.08187  1.0000
  C   C4019     1.0  0.84905  0.14649  0.00874  1.0000
  Fe  Fe577     1.0  0.76610  0.08879  0.12484  1.0000
  S   S1153     1.0  0.78001  0.09903  0.12535  1.0000
  S   S1154     1.0  0.77016  0.07026  0.11986  1.0000
  Fe  Fe578     1.0  0.76759  0.10285  0.14317  1.0000
  S   S1155     1.0  0.77615  0.09832  0.15993  1.0000
  Fe  Fe579     1.0  0.76749  0.11566  0.11661  1.0000
  S   S1156     1.0  0.77387  0.13018  0.10074  1.0000
  H   H6882     1.0  0.85815  0.05355  0.05900  1.0000
  C   C4020     1.0  0.79814  0.15768  0.18118  1.0000
  Fe  Fe580     1.0  0.83549  0.03669  0.11888  1.0000
  S   S1157     1.0  0.84151  0.05152  0.12370  1.0000
  S   S1158     1.0  0.82408  0.03938  0.10487  1.0000
  Fe  Fe581     1.0  0.84813  0.01598  0.13697  1.0000
  S   S1159     1.0  0.85518  0.02902  0.14377  1.0000
  H   H6883     1.0  0.88971  0.10918  0.00943  1.0000
  Fe  Fe582     1.0  0.83656  0.04133  0.14320  1.0000
  S   S1160     1.0  0.82479  0.05268  0.15681  1.0000
  Fe  Fe583     1.0  0.85961  0.03816  0.12381  1.0000
  S   S1161     1.0  0.87780  0.04369  0.11545  1.0000
  S   S1162     1.0  0.82891  0.02758  0.13835  1.0000
  S   S1163     1.0  0.85414  0.02417  0.11703  1.0000
  Fe  Fe584     1.0  0.84908  0.09523  0.17756  1.0000
  S   S1164     1.0  0.86523  0.10421  0.17378  1.0000
  S   S1165     1.0  0.85197  0.07472  0.18449  1.0000
  Fe  Fe585     1.0  0.83207  0.11890  0.16781  1.0000
  S   S1166     1.0  0.84701  0.12974  0.16300  1.0000
  S   S1167     1.0  0.81337  0.12896  0.16352  1.0000
  Fe  Fe586     1.0  0.85926  0.11336  0.15577  1.0000
  S   S1168     1.0  0.87183  0.11253  0.13719  1.0000
  Fe  Fe587     1.0  0.85151  0.11971  0.18158  1.0000
  S   S1169     1.0  0.85132  0.12987  0.19645  1.0000
  S   S1170     1.0  0.84401  0.10338  0.15917  1.0000
  S   S1171     1.0  0.83567  0.10984  0.18673  1.0000
  Fe  Fe588     1.0  0.83609  0.11061  0.06599  1.0000
  S   S1172     1.0  0.83637  0.13052  0.06332  1.0000
  S   S1173     1.0  0.81970  0.10285  0.06724  1.0000
  Fe  Fe589     1.0  0.86324  0.10228  0.06628  1.0000
  S   S1174     1.0  0.86608  0.12161  0.06322  1.0000
  S   S1175     1.0  0.87822  0.08516  0.06689  1.0000
  Fe  Fe590     1.0  0.84838  0.12406  0.07734  1.0000
  S   S1176     1.0  0.84345  0.13389  0.09310  1.0000
  Fe  Fe591     1.0  0.85381  0.12631  0.04945  1.0000
  S   S1177     1.0  0.85641  0.13927  0.03083  1.0000
  S   S1178     1.0  0.84642  0.10446  0.08125  1.0000
  S   S1179     1.0  0.85270  0.10677  0.05125  1.0000
  H   H6884     1.0  0.79654  0.04869  0.13599  1.0000
  S   S1180     1.0  0.89273  0.13383  0.22259  1.0000
  H   H6885     1.0  0.80455  0.07446  0.14859  1.0000
  H   H6886     1.0  0.83293  0.15241  0.19781  1.0000
  C   C4021     1.0  0.84927  0.13758  0.01972  1.0000
  C   C4022     1.0  0.83906  0.12584  0.01219  1.0000
  C   C4023     1.0  0.84417  0.12730  0.02145  1.0000
  H   H6887     1.0  0.83525  0.11778  0.01355  1.0000
  H   H6888     1.0  0.84428  0.12039  0.02983  1.0000
  C   C4024     1.0  0.86313  0.13102  0.20330  1.0000
  C   C4025     1.0  0.85986  0.13784  0.21264  1.0000
  C   C4026     1.0  0.86876  0.13874  0.21866  1.0000
  C   C4027     1.0  0.88112  0.13296  0.21530  1.0000
  C   C4028     1.0  0.88442  0.12628  0.20584  1.0000
  C   C4029     1.0  0.87548  0.12522  0.19994  1.0000
  H   H6889     1.0  0.85036  0.14243  0.21527  1.0000
  H   H6890     1.0  0.75377  0.11570  0.08063  1.0000
  H   H6891     1.0  0.89397  0.12187  0.20308  1.0000
  H   H6892     1.0  0.87818  0.12000  0.19274  1.0000
  C   C4030     1.0  0.86388  0.11822  0.12498  1.0000
  C   C4031     1.0  0.85304  0.12725  0.12607  1.0000
  C   C4032     1.0  0.84708  0.13217  0.11610  1.0000
  C   C4033     1.0  0.85150  0.12766  0.10522  1.0000
  C   C4034     1.0  0.86217  0.11839  0.10421  1.0000
  C   C4035     1.0  0.86850  0.11388  0.11398  1.0000
  H   H6893     1.0  0.84951  0.13078  0.13443  1.0000
  H   H6894     1.0  0.83908  0.13959  0.11681  1.0000
  H   H6895     1.0  0.86575  0.11496  0.09578  1.0000
  H   H6896     1.0  0.87700  0.10708  0.11298  1.0000
  C   C4036     1.0  0.87765  0.05537  0.10215  1.0000
  C   C4037     1.0  0.88715  0.05409  0.09182  1.0000
  C   C4038     1.0  0.88723  0.06333  0.08110  1.0000
  C   C4039     1.0  0.87806  0.07410  0.08076  1.0000
  C   C4040     1.0  0.86880  0.07558  0.09128  1.0000
  C   C4041     1.0  0.86840  0.06610  0.10186  1.0000
  H   H6897     1.0  0.89438  0.04587  0.09206  1.0000
  H   H6898     1.0  0.89449  0.06216  0.07306  1.0000
  H   H6899     1.0  0.86191  0.08396  0.09129  1.0000
  H   H6900     1.0  0.86111  0.06721  0.10985  1.0000
  C   C4042     1.0  0.83251  0.05854  0.16453  1.0000
  C   C4043     1.0  0.84288  0.05132  0.16905  1.0000
  C   C4044     1.0  0.84863  0.05617  0.17556  1.0000
  C   C4045     1.0  0.84421  0.06832  0.17725  1.0000
  C   C4046     1.0  0.83381  0.07547  0.17276  1.0000
  C   C4047     1.0  0.82789  0.07055  0.16653  1.0000
  H   H6901     1.0  0.84634  0.04196  0.16771  1.0000
  H   H6902     1.0  0.85658  0.05057  0.17918  1.0000
  H   H6903     1.0  0.83019  0.08472  0.17432  1.0000
  H   H6904     1.0  0.81978  0.07609  0.16318  1.0000
  H   H6905     1.0  0.75416  0.06707  0.16894  1.0000
  C   C4048     1.0  0.84385  0.14508  0.99951  1.0000
  H   H6906     1.0  0.85964  0.05616  0.08711  1.0000
  H   H6907     1.0  0.88357  0.10173  0.98944  1.0000
  H   H6908     1.0  0.80317  0.16116  0.17178  1.0000
  C   C4049     1.0  0.78539  0.06267  0.11468  1.0000
  C   C4050     1.0  0.78715  0.05151  0.11108  1.0000
  C   C4051     1.0  0.79907  0.04465  0.10774  1.0000
  C   C4052     1.0  0.80932  0.04865  0.10843  1.0000
  C   C4053     1.0  0.80765  0.05992  0.11186  1.0000
  C   C4054     1.0  0.79568  0.06709  0.11467  1.0000
  H   H6909     1.0  0.77925  0.04811  0.11093  1.0000
  H   H6910     1.0  0.80029  0.03608  0.10491  1.0000
  H   H6911     1.0  0.81556  0.06314  0.11227  1.0000
  H   H6912     1.0  0.79439  0.07587  0.11708  1.0000
  C   C4055     1.0  0.78607  0.12279  0.09078  1.0000
  C   C4056     1.0  0.79481  0.12930  0.08289  1.0000
  C   C4057     1.0  0.80510  0.12319  0.07556  1.0000
  C   C4058     1.0  0.80654  0.11064  0.07591  1.0000
  C   C4059     1.0  0.79759  0.10422  0.08353  1.0000
  C   C4060     1.0  0.78742  0.11026  0.09109  1.0000
  H   H6913     1.0  0.79381  0.13897  0.08272  1.0000
  H   H6914     1.0  0.81191  0.12820  0.06963  1.0000
  H   H6915     1.0  0.79870  0.09449  0.08387  1.0000
  H   H6916     1.0  0.78067  0.10519  0.09717  1.0000
  C   C4061     1.0  0.78646  0.10691  0.16082  1.0000
  C   C4062     1.0  0.78377  0.11979  0.15785  1.0000
  C   C4063     1.0  0.79206  0.12645  0.15878  1.0000
  C   C4064     1.0  0.80314  0.12027  0.16262  1.0000
  C   C4065     1.0  0.80581  0.10739  0.16566  1.0000
  C   C4066     1.0  0.79742  0.10073  0.16491  1.0000
  H   H6917     1.0  0.77520  0.12463  0.15500  1.0000
  H   H6918     1.0  0.78990  0.13641  0.15652  1.0000
  H   H6919     1.0  0.81427  0.10256  0.16871  1.0000
  H   H6920     1.0  0.79947  0.09077  0.16740  1.0000
  N   N287      1.0  0.83039  0.99310  0.11203  1.0000
  C   C4067     1.0  0.80396  0.15929  0.19124  1.0000
  H   H6921     1.0  0.80378  0.11449  0.03207  1.0000
  H   H6922     1.0  0.79762  0.14805  0.18184  1.0000
  H   H6923     1.0  0.87683  0.10250  0.01006  1.0000
  C   C4068     1.0  0.85667  0.07309  0.05271  1.0000
  H   H6924     1.0  0.81194  0.12892  0.18935  1.0000
  C   C4069     1.0  0.85224  0.05281  0.08513  1.0000
  H   H6925     1.0  0.82105  0.16772  0.17049  1.0000
  N   N288      1.0  0.84714  0.06166  0.07450  1.0000
  H   H6926     1.0  0.81948  0.06381  0.06603  1.0000
  H   H6927     1.0  0.80985  0.14089  0.21099  1.0000
  H   H6928     1.0  0.81974  0.14384  0.17621  1.0000
  H   H6929     1.0  0.85043  0.03461  0.08370  1.0000
  N   N289      1.0  0.80526  0.14026  0.03073  1.0000
  C   C4070     1.0  0.80412  0.13813  0.01866  1.0000
  C   C4071     1.0  0.81039  0.12788  0.03810  1.0000
  C   C4072     1.0  0.81422  0.14874  0.02769  1.0000
  C   C4073     1.0  0.79268  0.14614  0.03715  1.0000
  C   C4074     1.0  0.80108  0.14979  0.00874  1.0000
  H   H6930     1.0  0.80645  0.10978  0.04731  1.0000
  C   C4075     1.0  0.81897  0.15039  0.03836  1.0000
  C   C4076     1.0  0.79062  0.14492  0.05124  1.0000
  H   H6931     1.0  0.81282  0.13237  0.01440  1.0000
  H   H6932     1.0  0.79682  0.13285  0.02011  1.0000
  H   H6933     1.0  0.81145  0.12846  0.04721  1.0000
  H   H6934     1.0  0.81990  0.12417  0.03340  1.0000
  H   H6935     1.0  0.82252  0.14555  0.02089  1.0000
  H   H6936     1.0  0.81015  0.15819  0.02312  1.0000
  H   H6937     1.0  0.79035  0.15613  0.03294  1.0000
  H   H6938     1.0  0.78548  0.14202  0.03580  1.0000
  H   H6939     1.0  0.79910  0.14705  0.00098  1.0000
  H   H6940     1.0  0.79285  0.15645  0.01227  1.0000
  H   H6941     1.0  0.80910  0.15432  0.00476  1.0000
  C   C4077     1.0  0.86418  0.10815  0.98898  1.0000
  H   H6942     1.0  0.80273  0.00749  0.10182  1.0000
  H   H6943     1.0  0.86611  0.14407  0.22577  1.0000
  H   H6944     1.0  0.82627  0.15590  0.03445  1.0000
  H   H6945     1.0  0.82344  0.14156  0.04353  1.0000
  H   H6946     1.0  0.81167  0.15571  0.04451  1.0000
  H   H6947     1.0  0.78442  0.15346  0.05383  1.0000
  H   H6948     1.0  0.79900  0.14358  0.05482  1.0000
  H   H6949     1.0  0.78568  0.13735  0.05630  1.0000
  H   H6950     1.0  0.82034  0.00581  0.13852  1.0000
  C   C4078     1.0  0.87476  0.12225  0.00098  1.0000
  H   H6951     1.0  0.86053  0.10724  0.99902  1.0000
  S   S1181     1.0  0.85046  0.99541  0.14475  1.0000
  C   C4079     1.0  0.77282  0.05774  0.16181  1.0000
  H   H6952     1.0  0.75963  0.14770  0.06480  1.0000
  H   H6953     1.0  0.83284  0.14138  0.18241  1.0000
  H   H6954     1.0  0.82447  0.07309  0.08852  1.0000
  N   N290      1.0  0.78621  0.05872  0.15852  1.0000
  H   H6955     1.0  0.78625  0.05698  0.18894  1.0000
  H   H6956     1.0  0.80116  0.07862  0.13374  1.0000
  N   N291      1.0  0.81641  0.15117  0.19270  1.0000
  H   H6957     1.0  0.84759  0.07627  0.05006  1.0000
  C   C4080     1.0  0.83291  0.07570  0.08909  1.0000
  C   C4081     1.0  0.83644  0.05730  0.07296  1.0000
  C   C4082     1.0  0.82330  0.15772  0.19764  1.0000
  H   H6958     1.0  0.81907  0.15187  0.21785  1.0000
  H   H6959     1.0  0.82209  0.16698  0.21230  1.0000
  H   H6960     1.0  0.78518  0.07102  0.17053  1.0000
  H   H6961     1.0  0.85137  0.07704  0.07889  1.0000
  N   N292      1.0  0.87228  0.07066  0.13858  1.0000
  C   C4083     1.0  0.86048  0.06734  0.13824  1.0000
  C   C4084     1.0  0.88138  0.05870  0.14139  1.0000
  C   C4085     1.0  0.87702  0.07770  0.12590  1.0000
  C   C4086     1.0  0.86946  0.07847  0.14808  1.0000
  C   C4087     1.0  0.84999  0.07820  0.13462  1.0000
  C   C4088     1.0  0.87745  0.04999  0.15373  1.0000
  C   C4089     1.0  0.88926  0.08180  0.12392  1.0000
  C   C4090     1.0  0.88028  0.07879  0.15362  1.0000
  H   H6962     1.0  0.86232  0.06094  0.13188  1.0000
  H   H6963     1.0  0.85644  0.06230  0.14742  1.0000
  H   H6964     1.0  0.89053  0.06016  0.14138  1.0000
  H   H6965     1.0  0.88328  0.05343  0.13399  1.0000
  H   H6966     1.0  0.87824  0.07215  0.11889  1.0000
  H   H6967     1.0  0.87029  0.08635  0.12336  1.0000
  H   H6968     1.0  0.86532  0.08816  0.14422  1.0000
  H   H6969     1.0  0.86230  0.07527  0.15606  1.0000
  H   H6970     1.0  0.84145  0.07461  0.13630  1.0000
  H   H6971     1.0  0.84786  0.08527  0.14025  1.0000
  H   H6972     1.0  0.85203  0.08249  0.12468  1.0000
  H   H6973     1.0  0.87416  0.05481  0.16151  1.0000
  H   H6974     1.0  0.87023  0.04539  0.15327  1.0000
  H   H6975     1.0  0.88550  0.04254  0.15573  1.0000
  H   H6976     1.0  0.89185  0.08630  0.11408  1.0000
  H   H6977     1.0  0.89703  0.07401  0.12580  1.0000
  H   H6978     1.0  0.88825  0.08886  0.12931  1.0000
  H   H6979     1.0  0.87945  0.08836  0.15459  1.0000
  H   H6980     1.0  0.88961  0.07613  0.14814  1.0000
  H   H6981     1.0  0.87956  0.07314  0.16314  1.0000
  H   H6982     1.0  0.80766  0.06291  0.13934  1.0000
  H   H6983     1.0  0.80402  0.04644  0.15478  1.0000
  C   C4091     1.0  0.76379  0.06746  0.16871  1.0000
  H   H6984     1.0  0.79986  0.06228  0.16634  1.0000
  H   H6985     1.0  0.78280  0.04309  0.14472  1.0000
  H   H6986     1.0  0.79221  0.03895  0.16396  1.0000
  H   H6987     1.0  0.80749  0.16449  0.21173  1.0000
  C   C4092     1.0  0.78872  0.05214  0.18116  1.0000
  H   H6988     1.0  0.79777  0.03323  0.14439  1.0000
  H   H6989     1.0  0.80921  0.12189  0.20522  1.0000
  C   C4093     1.0  0.80817  0.13093  0.19866  1.0000
  C   C4094     1.0  0.83889  0.13471  0.00121  1.0000
  H   H6990     1.0  0.82681  0.01113  0.11668  1.0000
  C   C4095     1.0  0.78999  0.06166  0.16886  1.0000
  C   C4096     1.0  0.85774  0.03942  0.08343  1.0000
  C   C4097     1.0  0.79256  0.04281  0.14460  1.0000
  H   H6991     1.0  0.74958  0.12729  0.09539  1.0000
  C   C4098     1.0  0.80112  0.07118  0.14211  1.0000
  C   C4099     1.0  0.80282  0.11787  0.04054  1.0000
  H   H6992     1.0  0.78855  0.16319  0.18205  1.0000
  H   H6993     1.0  0.78446  0.06751  0.13973  1.0000
  H   H6994     1.0  0.86494  0.03881  0.07494  1.0000
  C   C4100     1.0  0.81503  0.13920  0.20178  1.0000
  H   H6995     1.0  0.77155  0.04852  0.16750  1.0000
  H   H6996     1.0  0.84865  0.00981  0.08684  1.0000
  C   C4101     1.0  0.78787  0.06897  0.14734  1.0000
  H   H6997     1.0  0.78206  0.07784  0.14936  1.0000
  H   H6998     1.0  0.86359  0.99830  0.11911  1.0000
  C   C4102     1.0  0.79410  0.04658  0.15594  1.0000
  H   H6999     1.0  0.80438  0.16923  0.18907  1.0000
  H   H7000     1.0  0.79814  0.13489  0.19986  1.0000
  H   H7001     1.0  0.83020  0.08555  0.08973  1.0000
  S   S1182     1.0  0.75630  0.12053  0.13442  1.0000
  H   H7002     1.0  0.78137  0.04701  0.18257  1.0000
  H   H7003     1.0  0.84017  0.08153  0.06994  1.0000
  H   H7004     1.0  0.85294  0.15450  0.00737  1.0000
  H   H7005     1.0  0.83967  0.04823  0.07018  1.0000
  C   C4103     1.0  0.82896  0.06568  0.06342  1.0000
  H   H7006     1.0  0.85644  0.10218  0.21826  1.0000
  H   H7007     1.0  0.86651  0.06031  0.06558  1.0000
  H   H7008     1.0  0.82749  0.07562  0.06322  1.0000
  N   N293      1.0  0.81053  0.11996  0.12052  1.0000
  C   C4104     1.0  0.81417  0.12911  0.12551  1.0000
  C   C4105     1.0  0.80947  0.10857  0.13051  1.0000
  C   C4106     1.0  0.79833  0.12519  0.11660  1.0000
  C   C4107     1.0  0.82020  0.11704  0.10940  1.0000
  C   C4108     1.0  0.81321  0.14229  0.11758  1.0000
  C   C4109     1.0  0.82155  0.10132  0.13468  1.0000
  C   C4110     1.0  0.78733  0.12920  0.12674  1.0000
  C   C4111     1.0  0.81914  0.10618  0.10436  1.0000
  H   H7009     1.0  0.80866  0.12984  0.13491  1.0000
  H   H7010     1.0  0.82387  0.12589  0.12676  1.0000
  H   H7011     1.0  0.80542  0.10207  0.12791  1.0000
  H   H7012     1.0  0.80294  0.11104  0.13889  1.0000
  H   H7013     1.0  0.79898  0.13315  0.10866  1.0000
  H   H7014     1.0  0.79562  0.11840  0.11306  1.0000
  H   H7015     1.0  0.82004  0.12524  0.10167  1.0000
  H   H7016     1.0  0.82962  0.11498  0.11138  1.0000
  H   H7017     1.0  0.81684  0.14787  0.12184  1.0000
  H   H7018     1.0  0.81880  0.14242  0.10812  1.0000
  H   H7019     1.0  0.80353  0.14699  0.11718  1.0000
  H   H7020     1.0  0.82865  0.09788  0.12708  1.0000
  H   H7021     1.0  0.82533  0.10688  0.13882  1.0000
  H   H7022     1.0  0.81959  0.09315  0.14196  1.0000
  H   H7023     1.0  0.78444  0.12105  0.13338  1.0000
  H   H7024     1.0  0.77933  0.13439  0.12250  1.0000
  H   H7025     1.0  0.78922  0.13535  0.13169  1.0000
  H   H7026     1.0  0.82023  0.10897  0.09420  1.0000
  H   H7027     1.0  0.81028  0.10309  0.10785  1.0000
  H   H7028     1.0  0.82680  0.09819  0.10616  1.0000
  C   C4112     1.0  0.75556  0.14035  0.07180  1.0000
  H   H7029     1.0  0.81719  0.01151  0.09436  1.0000
  C   C4113     1.0  0.81180  0.00772  0.10341  1.0000
  H   H7030     1.0  0.76502  0.07693  0.16416  1.0000
  C   C4114     1.0  0.85739  0.06153  0.06314  1.0000
  H   H7031     1.0  0.83657  0.16151  0.17310  1.0000
  C   C4115     1.0  0.84244  0.00896  0.09608  1.0000
  H   H7032     1.0  0.83842  0.99294  0.09268  1.0000
  H   H7033     1.0  0.87539  0.11275  0.01985  1.0000
  H   H7034     1.0  0.75733  0.13242  0.06736  1.0000
  H   H7035     1.0  0.80989  0.01403  0.10981  1.0000
  C   C4116     1.0  0.84329  0.07427  0.07760  1.0000
  H   H7036     1.0  0.84362  0.15205  0.99113  1.0000
  H   H7037     1.0  0.79758  0.04537  0.18170  1.0000
  H   H7038     1.0  0.86459  0.12373  0.00315  1.0000
  N   N294      1.0  0.87962  0.12159  0.98763  1.0000
  C   C4117     1.0  0.87957  0.11093  0.01045  1.0000
  H   H7039     1.0  0.76054  0.13790  0.07946  1.0000
  C   C4118     1.0  0.82851  0.15936  0.17105  1.0000
  H   H7040     1.0  0.83157  0.15695  0.16182  1.0000
  S   S1183     1.0  0.75477  0.10507  0.11435  1.0000
  H   H7041     1.0  0.76937  0.05850  0.15337  1.0000
  H   H7042     1.0  0.83395  0.01607  0.09533  1.0000
  H   H7043     1.0  0.83598  0.07051  0.09772  1.0000
  H   H7044     1.0  0.87538  0.09857  0.22562  1.0000
  H   H7045     1.0  0.84724  0.01104  0.10228  1.0000
  H   H7046     1.0  0.79294  0.12108  0.04446  1.0000
  C   C4119     1.0  0.82433  0.14828  0.18070  1.0000
  H   H7047     1.0  0.76480  0.06567  0.17839  1.0000
  H   H7048     1.0  0.82426  0.16683  0.19151  1.0000
  H   H7049     1.0  0.86234  0.03430  0.09119  1.0000
  H   H7050     1.0  0.84505  0.05214  0.09374  1.0000
  C   C4120     1.0  0.81748  0.16035  0.21064  1.0000
  H   H7051     1.0  0.79711  0.15799  0.20009  1.0000
  H   H7052     1.0  0.85903  0.08065  0.05537  1.0000
  H   H7053     1.0  0.82428  0.13356  0.20313  1.0000
  H   H7054     1.0  0.86371  0.07106  0.04441  1.0000
  H   H7055     1.0  0.83328  0.06387  0.05406  1.0000
  C   C4121     1.0  0.84022  0.99567  0.10055  1.0000
  S   S1184     1.0  0.75426  0.09149  0.14320  1.0000
  H   H7056     1.0  0.87690  0.13032  0.00302  1.0000
  S   S1185     1.0  0.83200  0.13271  0.99007  1.0000
  H   H7057     1.0  0.89833  0.11255  0.98947  1.0000
  C   C4122     1.0  0.81811  0.99455  0.10876  1.0000
  H   H7058     1.0  0.89528  0.12872  0.98791  1.0000
  H   H7059     1.0  0.86692  0.11365  0.22590  1.0000
  C   C4123     1.0  0.82961  0.00120  0.12076  1.0000
  H   H7060     1.0  0.87169  0.14746  0.98946  1.0000
  H   H7061     1.0  0.83889  0.00025  0.12261  1.0000
  H   H7062     1.0  0.86394  0.09943  0.98666  1.0000
  H   H7063     1.0  0.81129  0.99923  0.13256  1.0000
  C   C4124     1.0  0.82082  0.99869  0.13339  1.0000
  C   C4125     1.0  0.85584  0.10031  0.22837  1.0000
  C   C4126     1.0  0.86694  0.10394  0.23069  1.0000
  H   H7064     1.0  0.84942  0.98997  0.10193  1.0000
  H   H7065     1.0  0.89332  0.10618  0.22812  1.0000
  C   C4127     1.0  0.87759  0.11013  0.98505  1.0000
  H   H7066     1.0  0.81143  0.99088  0.11696  1.0000
  H   H7067     1.0  0.85593  0.09035  0.23191  1.0000
  H   H7068     1.0  0.84691  0.10585  0.23228  1.0000
  H   H7069     1.0  0.81457  0.26989  0.40371  1.0000
  C   C4128     1.0  0.96935  0.17335  0.36001  1.0000
  H   H7070     1.0  0.80014  0.00261  0.36518  1.0000
  S   S1186     1.0  0.83240  0.02165  0.34577  1.0000
  Fe  Fe592     1.0  0.90322  0.13332  0.26350  1.0000
  S   S1187     1.0  0.88550  0.13902  0.27638  1.0000
  S   S1188     1.0  0.91968  0.12424  0.27256  1.0000
  S   S1189     1.0  0.87147  0.14446  0.25312  1.0000
  Fe  Fe593     1.0  0.88141  0.15445  0.26062  1.0000
  S   S1190     1.0  0.87281  0.17369  0.26369  1.0000
  Fe  Fe594     1.0  0.87744  0.12851  0.26774  1.0000
  S   S1191     1.0  0.86479  0.11589  0.27888  1.0000
  Fe  Fe595     1.0  0.97934  0.12986  0.32770  1.0000
  S   S1192     1.0  0.96678  0.12214  0.34497  1.0000
  Fe  Fe596     1.0  0.95879  0.13647  0.31245  1.0000
  S   S1193     1.0  0.94481  0.12973  0.32868  1.0000
  S   S1194     1.0  0.95381  0.14525  0.29378  1.0000
  Fe  Fe597     1.0  0.95262  0.13876  0.33917  1.0000
  S   S1195     1.0  0.94074  0.15040  0.35251  1.0000
  Fe  Fe598     1.0  0.96015  0.11374  0.33283  1.0000
  S   S1196     1.0  0.95682  0.09432  0.33774  1.0000
  S   S1197     1.0  0.96534  0.14700  0.32260  1.0000
  S   S1198     1.0  0.97402  0.11991  0.31587  1.0000
  Fe  Fe599     1.0  0.88443  0.18718  0.33427  1.0000
  S   S1199     1.0  0.87812  0.18520  0.35473  1.0000
  S   S1200     1.0  0.90326  0.18989  0.32376  1.0000
  Fe  Fe600     1.0  0.85984  0.18590  0.33031  1.0000
  S   S1201     1.0  0.85105  0.18453  0.35042  1.0000
  S   S1202     1.0  0.84895  0.18608  0.31649  1.0000
  Fe  Fe601     1.0  0.86127  0.19906  0.35007  1.0000
  S   S1203     1.0  0.85299  0.21668  0.35762  1.0000
  Fe  Fe602     1.0  0.86859  0.17088  0.35327  1.0000
  S   S1204     1.0  0.86922  0.15213  0.36604  1.0000
  S   S1205     1.0  0.86821  0.20172  0.32955  1.0000
  S   S1206     1.0  0.87677  0.17151  0.33322  1.0000
  Fe  Fe603     1.0  0.86785  0.09345  0.34730  1.0000
  S   S1207     1.0  0.88782  0.09258  0.33828  1.0000
  S   S1208     1.0  0.85534  0.11236  0.34541  1.0000
  Fe  Fe604     1.0  0.87098  0.06533  0.35585  1.0000
  S   S1209     1.0  0.89137  0.06248  0.34798  1.0000
  S   S1210     1.0  0.86447  0.04735  0.36546  1.0000
  Fe  Fe605     1.0  0.89136  0.07872  0.35531  1.0000
  S   S1211     1.0  0.90619  0.07795  0.36526  1.0000
  Fe  Fe606     1.0  0.88604  0.07651  0.33176  1.0000
  S   S1212     1.0  0.89510  0.07324  0.31291  1.0000
  S   S1213     1.0  0.87140  0.08041  0.36497  1.0000
  S   S1214     1.0  0.86567  0.07855  0.33898  1.0000
  S   S1215     1.0  0.97638  0.40335  0.35197  1.0000
  Fe  Fe607     1.0  0.86660  0.32513  0.45856  1.0000
  S   S1216     1.0  0.86003  0.33900  0.44277  1.0000
  S   S1217     1.0  0.87510  0.30557  0.45607  1.0000
  Fe  Fe608     1.0  0.85721  0.34363  0.47600  1.0000
  S   S1218     1.0  0.84996  0.35871  0.46109  1.0000
  H   H7071     1.0  0.85650  0.29623  0.41594  1.0000
  Fe  Fe609     1.0  0.84301  0.34419  0.45659  1.0000
  S   S1219     1.0  0.82506  0.34508  0.45164  1.0000
  Fe  Fe610     1.0  0.86787  0.35179  0.44890  1.0000
  S   S1220     1.0  0.88014  0.36413  0.43588  1.0000
  S   S1221     1.0  0.84895  0.32949  0.47223  1.0000
  S   S1222     1.0  0.87563  0.33761  0.46398  1.0000
  Fe  Fe611     1.0  0.87399  0.26226  0.38491  1.0000
  S   S1223     1.0  0.85952  0.27536  0.37542  1.0000
  S   S1224     1.0  0.87962  0.24196  0.38369  1.0000
  Fe  Fe612     1.0  0.87829  0.28279  0.39527  1.0000
  S   S1225     1.0  0.86420  0.29733  0.38629  1.0000
  S   S1226     1.0  0.88947  0.28964  0.40466  1.0000
  Fe  Fe613     1.0  0.85285  0.28281  0.39271  1.0000
  S   S1227     1.0  0.83278  0.28575  0.40176  1.0000
  Fe  Fe614     1.0  0.87239  0.28846  0.37001  1.0000
  S   S1228     1.0  0.87632  0.29833  0.35033  1.0000
  S   S1229     1.0  0.86634  0.26871  0.40289  1.0000
  S   S1230     1.0  0.88746  0.27494  0.37830  1.0000
  Fe  Fe615     1.0  0.80592  0.35495  0.37944  1.0000
  S   S1231     1.0  0.80629  0.36554  0.36001  1.0000
  S   S1232     1.0  0.79879  0.33743  0.38514  1.0000
  Fe  Fe616     1.0  0.81358  0.37449  0.38720  1.0000
  S   S1233     1.0  0.81438  0.38690  0.36855  1.0000
  S   S1234     1.0  0.81990  0.38121  0.40066  1.0000
  Fe  Fe617     1.0  0.79679  0.38181  0.36864  1.0000
  S   S1235     1.0  0.78105  0.39676  0.36272  1.0000
  Fe  Fe618     1.0  0.82380  0.36973  0.36155  1.0000
  S   S1236     1.0  0.84049  0.36903  0.34613  1.0000
  S   S1237     1.0  0.79502  0.37096  0.38810  1.0000
  S   S1238     1.0  0.82441  0.35752  0.38020  1.0000
  Fe  Fe619     1.0  0.90017  0.37202  0.35769  1.0000
  S   S1239     1.0  0.89759  0.35259  0.36510  1.0000
  S   S1240     1.0  0.88307  0.38699  0.35775  1.0000
  Fe  Fe620     1.0  0.92811  0.36480  0.35136  1.0000
  S   S1241     1.0  0.92779  0.34468  0.35806  1.0000
  S   S1242     1.0  0.94713  0.36850  0.34197  1.0000
  Fe  Fe621     1.0  0.91204  0.34849  0.34862  1.0000
  S   S1243     1.0  0.91145  0.33621  0.33652  1.0000
  Fe  Fe622     1.0  0.91345  0.35045  0.37399  1.0000
  S   S1244     1.0  0.91313  0.33816  0.39279  1.0000
  S   S1245     1.0  0.91348  0.36816  0.34040  1.0000
  S   S1246     1.0  0.91482  0.37037  0.36819  1.0000
  N   N295      1.0  0.86756  0.10211  0.24398  1.0000
  C   C4129     1.0  0.77413  0.39604  0.35103  1.0000
  C   C4130     1.0  0.76324  0.40456  0.34907  1.0000
  C   C4131     1.0  0.75697  0.40380  0.34040  1.0000
  C   C4132     1.0  0.76178  0.39474  0.33335  1.0000
  C   C4133     1.0  0.77299  0.38655  0.33490  1.0000
  C   C4134     1.0  0.77905  0.38706  0.34389  1.0000
  H   H7072     1.0  0.75945  0.41160  0.35449  1.0000
  C   C4135     1.0  0.94739  0.40956  0.32665  1.0000
  H   H7073     1.0  0.77672  0.37951  0.32948  1.0000
  H   H7074     1.0  0.78735  0.38038  0.34543  1.0000
  C   C4136     1.0  0.85233  0.37446  0.34887  1.0000
  C   C4137     1.0  0.86469  0.36933  0.34445  1.0000
  C   C4138     1.0  0.87420  0.37312  0.34716  1.0000
  C   C4139     1.0  0.87138  0.38253  0.35371  1.0000
  C   C4140     1.0  0.85904  0.38817  0.35746  1.0000
  C   C4141     1.0  0.84952  0.38387  0.35541  1.0000
  H   H7075     1.0  0.86698  0.36221  0.33919  1.0000
  H   H7076     1.0  0.88373  0.36887  0.34403  1.0000
  H   H7077     1.0  0.85683  0.39560  0.36232  1.0000
  H   H7078     1.0  0.84005  0.38798  0.35877  1.0000
  C   C4142     1.0  0.88576  0.30909  0.34697  1.0000
  C   C4143     1.0  0.89307  0.31135  0.33518  1.0000
  C   C4144     1.0  0.90078  0.31979  0.33215  1.0000
  C   C4145     1.0  0.90098  0.32634  0.34075  1.0000
  C   C4146     1.0  0.89327  0.32448  0.35245  1.0000
  C   C4147     1.0  0.88581  0.31566  0.35565  1.0000
  H   H7079     1.0  0.89298  0.30639  0.32841  1.0000
  H   H7080     1.0  0.90666  0.32125  0.32308  1.0000
  H   H7081     1.0  0.89322  0.32969  0.35905  1.0000
  H   H7082     1.0  0.88004  0.31406  0.36474  1.0000
  C   C4148     1.0  0.82373  0.30035  0.39713  1.0000
  C   C4149     1.0  0.81105  0.30142  0.39851  1.0000
  C   C4150     1.0  0.80356  0.31287  0.39480  1.0000
  C   C4151     1.0  0.80862  0.32339  0.38992  1.0000
  C   C4152     1.0  0.82127  0.32243  0.38880  1.0000
  C   C4153     1.0  0.82885  0.31087  0.39234  1.0000
  H   H7083     1.0  0.80700  0.29337  0.40233  1.0000
  H   H7084     1.0  0.79378  0.31358  0.39575  1.0000
  H   H7085     1.0  0.82518  0.33056  0.38516  1.0000
  H   H7086     1.0  0.83858  0.31013  0.39152  1.0000
  C   C4154     1.0  0.87730  0.30170  0.44163  1.0000
  C   C4155     1.0  0.87848  0.28937  0.44114  1.0000
  C   C4156     1.0  0.88120  0.28578  0.42977  1.0000
  C   C4157     1.0  0.88287  0.29450  0.41875  1.0000
  C   C4158     1.0  0.88144  0.30690  0.41922  1.0000
  C   C4159     1.0  0.87860  0.31051  0.43060  1.0000
  H   H7087     1.0  0.87758  0.28248  0.44961  1.0000
  H   H7088     1.0  0.88261  0.27615  0.42954  1.0000
  H   H7089     1.0  0.88288  0.31368  0.41078  1.0000
  H   H7090     1.0  0.87784  0.32001  0.43082  1.0000
  C   C4160     1.0  0.88992  0.35676  0.42420  1.0000
  C   C4161     1.0  0.89806  0.36292  0.41479  1.0000
  C   C4162     1.0  0.90506  0.35740  0.40490  1.0000
  C   C4163     1.0  0.90394  0.34569  0.40448  1.0000
  C   C4164     1.0  0.89585  0.33954  0.41390  1.0000
  C   C4165     1.0  0.88909  0.34496  0.42384  1.0000
  H   H7091     1.0  0.89896  0.37196  0.41514  1.0000
  H   H7092     1.0  0.91145  0.36212  0.39771  1.0000
  H   H7093     1.0  0.89489  0.33053  0.41358  1.0000
  H   H7094     1.0  0.88332  0.33991  0.43127  1.0000
  C   C4166     1.0  0.82326  0.35540  0.43770  1.0000
  C   C4167     1.0  0.81451  0.35476  0.43147  1.0000
  C   C4168     1.0  0.81364  0.36239  0.41986  1.0000
  C   C4169     1.0  0.82103  0.37115  0.41485  1.0000
  C   C4170     1.0  0.82939  0.37213  0.42132  1.0000
  C   C4171     1.0  0.83076  0.36406  0.43257  1.0000
  H   H7095     1.0  0.80848  0.34829  0.43556  1.0000
  H   H7096     1.0  0.80701  0.36177  0.41499  1.0000
  H   H7097     1.0  0.83479  0.37917  0.41760  1.0000
  H   H7098     1.0  0.83740  0.36470  0.43742  1.0000
  C   C4172     1.0  0.96842  0.39249  0.35095  1.0000
  C   C4173     1.0  0.97460  0.38267  0.34515  1.0000
  C   C4174     1.0  0.96794  0.37519  0.34280  1.0000
  C   C4175     1.0  0.95507  0.37711  0.34668  1.0000
  C   C4176     1.0  0.94889  0.38646  0.35316  1.0000
  C   C4177     1.0  0.95556  0.39422  0.35517  1.0000
  C   C4178     1.0  0.88552  0.36886  0.46802  1.0000
  H   H7099     1.0  0.97278  0.36790  0.33788  1.0000
  H   H7100     1.0  0.93896  0.38804  0.35614  1.0000
  H   H7101     1.0  0.95071  0.40176  0.35975  1.0000
  C   C4179     1.0  0.86087  0.22348  0.36457  1.0000
  C   C4180     1.0  0.86844  0.21638  0.37275  1.0000
  C   C4181     1.0  0.87413  0.22217  0.37852  1.0000
  C   C4182     1.0  0.87233  0.23509  0.37618  1.0000
  C   C4183     1.0  0.86492  0.24217  0.36786  1.0000
  C   C4184     1.0  0.85910  0.23640  0.36222  1.0000
  H   H7102     1.0  0.86977  0.20644  0.37475  1.0000
  H   H7103     1.0  0.87986  0.21660  0.38492  1.0000
  H   H7104     1.0  0.86368  0.25209  0.36574  1.0000
  H   H7105     1.0  0.85330  0.24197  0.35587  1.0000
  C   C4185     1.0  0.86469  0.14120  0.36071  1.0000
  C   C4186     1.0  0.85903  0.14478  0.35058  1.0000
  C   C4187     1.0  0.85591  0.13590  0.34620  1.0000
  C   C4188     1.0  0.85896  0.12332  0.35149  1.0000
  C   C4189     1.0  0.86461  0.11972  0.36164  1.0000
  C   C4190     1.0  0.86715  0.12867  0.36644  1.0000
  H   H7106     1.0  0.85688  0.15443  0.34622  1.0000
  H   H7107     1.0  0.85120  0.13882  0.33865  1.0000
  H   H7108     1.0  0.86678  0.11007  0.36596  1.0000
  H   H7109     1.0  0.87119  0.12586  0.37449  1.0000
  C   C4191     1.0  0.94224  0.09104  0.34559  1.0000
  C   C4192     1.0  0.94158  0.08199  0.35644  1.0000
  C   C4193     1.0  0.93045  0.07822  0.36237  1.0000
  C   C4194     1.0  0.91997  0.08297  0.35720  1.0000
  C   C4195     1.0  0.92062  0.09184  0.34617  1.0000
  C   C4196     1.0  0.93164  0.09617  0.34058  1.0000
  H   H7110     1.0  0.94974  0.07788  0.36029  1.0000
  H   H7111     1.0  0.93005  0.07140  0.37089  1.0000
  H   H7112     1.0  0.91255  0.09557  0.34214  1.0000
  H   H7113     1.0  0.93199  0.10332  0.33235  1.0000
  C   C4197     1.0  0.93109  0.16239  0.34443  1.0000
  C   C4198     1.0  0.93280  0.16395  0.33168  1.0000
  C   C4199     1.0  0.92455  0.17287  0.32528  1.0000
  C   C4200     1.0  0.91424  0.17984  0.33169  1.0000
  C   C4201     1.0  0.91250  0.17834  0.34444  1.0000
  C   C4202     1.0  0.92113  0.16985  0.35078  1.0000
  H   H7114     1.0  0.94035  0.15817  0.32669  1.0000
  H   H7115     1.0  0.92595  0.17404  0.31543  1.0000
  H   H7116     1.0  0.90450  0.18370  0.34940  1.0000
  H   H7117     1.0  0.91978  0.16868  0.36066  1.0000
  C   C4203     1.0  0.94332  0.14030  0.28822  1.0000
  C   C4204     1.0  0.94418  0.14253  0.27546  1.0000
  C   C4205     1.0  0.93623  0.13848  0.27063  1.0000
  C   C4206     1.0  0.92716  0.13235  0.27850  1.0000
  C   C4207     1.0  0.92601  0.13048  0.29129  1.0000
  C   C4208     1.0  0.93404  0.13446  0.29615  1.0000
  H   H7118     1.0  0.95129  0.14707  0.26926  1.0000
  H   H7119     1.0  0.93746  0.13965  0.26076  1.0000
  H   H7120     1.0  0.91919  0.12555  0.29746  1.0000
  H   H7121     1.0  0.93320  0.13283  0.30600  1.0000
  C   C4209     1.0  0.87324  0.10383  0.28813  1.0000
  C   C4210     1.0  0.86734  0.09512  0.29696  1.0000
  C   C4211     1.0  0.87408  0.08569  0.30460  1.0000
  C   C4212     1.0  0.88679  0.08466  0.30305  1.0000
  C   C4213     1.0  0.89271  0.09323  0.29410  1.0000
  C   C4214     1.0  0.88589  0.10295  0.28683  1.0000
  H   H7122     1.0  0.85754  0.09585  0.29809  1.0000
  H   H7123     1.0  0.86943  0.07926  0.31170  1.0000
  H   H7124     1.0  0.90248  0.09264  0.29306  1.0000
  H   H7125     1.0  0.89046  0.10983  0.28037  1.0000
  C   C4215     1.0  0.85660  0.18276  0.30195  1.0000
  C   C4216     1.0  0.85193  0.18983  0.29163  1.0000
  C   C4217     1.0  0.85709  0.18698  0.28001  1.0000
  C   C4218     1.0  0.86660  0.17667  0.27861  1.0000
  C   C4219     1.0  0.87113  0.16934  0.28896  1.0000
  C   C4220     1.0  0.86635  0.17255  0.30059  1.0000
  H   H7126     1.0  0.84432  0.19763  0.29262  1.0000
  H   H7127     1.0  0.85354  0.19271  0.27207  1.0000
  H   H7128     1.0  0.87849  0.16139  0.28791  1.0000
  H   H7129     1.0  0.86978  0.16689  0.30860  1.0000
  C   C4221     1.0  0.84125  0.02855  0.35159  1.0000
  C   C4222     1.0  0.84919  0.02165  0.35946  1.0000
  C   C4223     1.0  0.85617  0.02755  0.36369  1.0000
  C   C4224     1.0  0.85546  0.04036  0.35992  1.0000
  C   C4225     1.0  0.84754  0.04724  0.35202  1.0000
  C   C4226     1.0  0.84038  0.04138  0.34800  1.0000
  H   H7130     1.0  0.84994  0.01178  0.36234  1.0000
  H   H7131     1.0  0.86219  0.02213  0.36986  1.0000
  H   H7132     1.0  0.84678  0.05712  0.34915  1.0000
  H   H7133     1.0  0.83422  0.04682  0.34196  1.0000
  H   H7134     1.0  0.83350  0.30330  0.41771  1.0000
  H   H7135     1.0  0.92601  0.30470  0.41484  1.0000
  H   H7136     1.0  0.96776  0.13933  0.36072  1.0000
  H   H7137     1.0  0.80628  0.02307  0.34922  1.0000
  H   H7138     1.0  0.91891  0.15886  0.30165  1.0000
  H   H7139     1.0  0.80393  0.04570  0.34372  1.0000
  H   H7140     1.0  0.93599  0.29824  0.39263  1.0000
  H   H7141     1.0  0.92064  0.04810  0.37315  1.0000
  H   H7142     1.0  0.86033  0.08541  0.25127  1.0000
  C   C4227     1.0  0.92409  0.28959  0.44855  1.0000
  H   H7143     1.0  0.89245  0.39543  0.45645  1.0000
  H   H7144     1.0  0.93183  0.28144  0.44823  1.0000
  H   H7145     1.0  0.95675  0.15039  0.36895  1.0000
  H   H7146     1.0  0.88721  0.39060  0.47261  1.0000
  H   H7147     1.0  0.87583  0.08284  0.24349  1.0000
  H   H7148     1.0  0.91524  0.31918  0.36090  1.0000
  H   H7149     1.0  0.87859  0.10703  0.25406  1.0000
  C   C4228     1.0  0.86911  0.08855  0.24976  1.0000
  C   C4229     1.0  0.79839  0.02877  0.35461  1.0000
  H   H7150     1.0  0.80537  0.25845  0.40573  1.0000
  C   C4230     1.0  0.97575  0.40139  0.31561  1.0000
  C   C4231     1.0  0.81256  0.26082  0.40897  1.0000
  H   H7151     1.0  0.79774  0.01306  0.39314  1.0000
  N   N296      1.0  0.79480  0.02152  0.36751  1.0000
  C   C4232     1.0  0.91299  0.29354  0.42421  1.0000
  H   H7152     1.0  0.89962  0.16955  0.27006  1.0000
  Fe  Fe623     1.0  0.88999  0.13808  0.24161  1.0000
  H   H7153     1.0  0.90419  0.29327  0.43099  1.0000
  C   C4233     1.0  0.79158  0.00969  0.36713  1.0000
  H   H7154     1.0  0.98450  0.38098  0.34219  1.0000
  C   C4234     1.0  0.95811  0.41634  0.32375  1.0000
  N   N297      1.0  0.83792  0.31500  0.42725  1.0000
  C   C4235     1.0  0.83740  0.30246  0.42585  1.0000
  C   C4236     1.0  0.82486  0.32207  0.43047  1.0000
  C   C4237     1.0  0.84447  0.31405  0.43733  1.0000
  C   C4238     1.0  0.84493  0.32139  0.41533  1.0000
  C   C4239     1.0  0.81774  0.32677  0.41990  1.0000
  C   C4240     1.0  0.83903  0.30711  0.45019  1.0000
  C   C4241     1.0  0.84600  0.33466  0.41486  1.0000
  H   H7155     1.0  0.83098  0.29805  0.43381  1.0000
  H   H7156     1.0  0.82454  0.33005  0.43434  1.0000
  H   H7157     1.0  0.81923  0.31633  0.43804  1.0000
  H   H7158     1.0  0.85434  0.30965  0.43490  1.0000
  H   H7159     1.0  0.85460  0.31617  0.41328  1.0000
  H   H7160     1.0  0.84118  0.32142  0.40731  1.0000
  H   H7161     1.0  0.80811  0.33119  0.42357  1.0000
  H   H7162     1.0  0.82174  0.33393  0.41255  1.0000
  H   H7163     1.0  0.81724  0.31917  0.41591  1.0000
  H   H7164     1.0  0.83902  0.29744  0.45029  1.0000
  H   H7165     1.0  0.82960  0.31198  0.45384  1.0000
  H   H7166     1.0  0.84487  0.30679  0.45666  1.0000
  H   H7167     1.0  0.85464  0.33459  0.41757  1.0000
  H   H7168     1.0  0.83819  0.33962  0.42086  1.0000
  H   H7169     1.0  0.84600  0.34025  0.40538  1.0000
  N   N298      1.0  0.87900  0.03887  0.32140  1.0000
  C   C4242     1.0  0.89114  0.03319  0.31408  1.0000
  C   C4243     1.0  0.87117  0.02925  0.32641  1.0000
  C   C4244     1.0  0.88086  0.04308  0.33202  1.0000
  C   C4245     1.0  0.87293  0.04995  0.31307  1.0000
  C   C4246     1.0  0.90110  0.04108  0.30954  1.0000
  C   C4247     1.0  0.86601  0.02585  0.31690  1.0000
  C   C4248     1.0  0.88767  0.03303  0.34119  1.0000
  C   C4249     1.0  0.85982  0.05637  0.31868  1.0000
  H   H7170     1.0  0.89526  0.02415  0.31942  1.0000
  H   H7171     1.0  0.88973  0.03104  0.30572  1.0000
  H   H7172     1.0  0.86328  0.03201  0.33379  1.0000
  H   H7173     1.0  0.87647  0.02046  0.33104  1.0000
  H   H7174     1.0  0.88580  0.05086  0.32872  1.0000
  H   H7175     1.0  0.87183  0.04699  0.33747  1.0000
  H   H7176     1.0  0.87848  0.05723  0.31017  1.0000
  H   H7177     1.0  0.87276  0.04786  0.30420  1.0000
  H   H7178     1.0  0.89818  0.04982  0.30314  1.0000
  H   H7179     1.0  0.90388  0.04311  0.31723  1.0000
  H   H7180     1.0  0.90953  0.03588  0.30434  1.0000
  H   H7181     1.0  0.84264  0.15337  0.27656  1.0000
  H   H7182     1.0  0.80853  0.26199  0.41860  1.0000
  H   H7183     1.0  0.89132  0.17736  0.28697  1.0000
  H   H7184     1.0  0.89715  0.02900  0.33678  1.0000
  H   H7185     1.0  0.88242  0.02566  0.34590  1.0000
  H   H7186     1.0  0.88853  0.03722  0.34851  1.0000
  H   H7187     1.0  0.86011  0.06247  0.32460  1.0000
  H   H7188     1.0  0.85387  0.04983  0.32409  1.0000
  H   H7189     1.0  0.85507  0.06193  0.31113  1.0000
  N   N299      1.0  0.81697  0.40534  0.32833  1.0000
  C   C4250     1.0  0.82909  0.40030  0.33249  1.0000
  C   C4251     1.0  0.80921  0.39566  0.33343  1.0000
  C   C4252     1.0  0.81009  0.41690  0.33293  1.0000
  C   C4253     1.0  0.81957  0.40844  0.31447  1.0000
  C   C4254     1.0  0.83770  0.40942  0.32976  1.0000
  C   C4255     1.0  0.81335  0.38439  0.32729  1.0000
  C   C4256     1.0  0.80756  0.41575  0.34698  1.0000
  C   C4257     1.0  0.80813  0.41328  0.30849  1.0000
  H   H7190     1.0  0.82758  0.39635  0.34255  1.0000
  H   H7191     1.0  0.83455  0.39244  0.32813  1.0000
  H   H7192     1.0  0.79933  0.39962  0.33308  1.0000
  H   H7193     1.0  0.80905  0.39199  0.34342  1.0000
  H   H7194     1.0  0.81498  0.42463  0.32846  1.0000
  H   H7195     1.0  0.80090  0.42013  0.33031  1.0000
  H   H7196     1.0  0.82505  0.41578  0.31089  1.0000
  H   H7197     1.0  0.82567  0.40056  0.31046  1.0000
  H   H7198     1.0  0.83352  0.41726  0.33446  1.0000
  H   H7199     1.0  0.84618  0.40449  0.33335  1.0000
  H   H7200     1.0  0.84076  0.41287  0.31976  1.0000
  H   H7201     1.0  0.81204  0.38691  0.31766  1.0000
  H   H7202     1.0  0.82306  0.37973  0.32758  1.0000
  H   H7203     1.0  0.80759  0.37752  0.33235  1.0000
  H   H7204     1.0  0.80255  0.42482  0.34924  1.0000
  H   H7205     1.0  0.81614  0.41313  0.35060  1.0000
  H   H7206     1.0  0.80153  0.40912  0.35191  1.0000
  H   H7207     1.0  0.80545  0.42349  0.30696  1.0000
  H   H7208     1.0  0.79999  0.40946  0.31395  1.0000
  H   H7209     1.0  0.81027  0.41046  0.29950  1.0000
  N   N300      1.0  0.84837  0.14101  0.30643  1.0000
  C   C4258     1.0  0.86226  0.13801  0.30324  1.0000
  C   C4259     1.0  0.84341  0.13084  0.31617  1.0000
  C   C4260     1.0  0.86888  0.13507  0.31407  1.0000
  C   C4261     1.0  0.84841  0.11768  0.31368  1.0000
  H   H7210     1.0  0.86571  0.13017  0.29838  1.0000
  H   H7211     1.0  0.86578  0.14588  0.29668  1.0000
  H   H7212     1.0  0.84733  0.13402  0.29106  1.0000
  H   H7213     1.0  0.84511  0.13071  0.32529  1.0000
  H   H7214     1.0  0.83321  0.13246  0.31751  1.0000
  H   H7215     1.0  0.84721  0.15155  0.31998  1.0000
  H   H7216     1.0  0.86728  0.14319  0.31823  1.0000
  H   H7217     1.0  0.86629  0.12713  0.32129  1.0000
  H   H7218     1.0  0.87899  0.13253  0.31054  1.0000
  H   H7219     1.0  0.84400  0.11113  0.32147  1.0000
  H   H7220     1.0  0.85849  0.11462  0.31322  1.0000
  H   H7221     1.0  0.84619  0.11676  0.30520  1.0000
  H   H7222     1.0  0.98779  0.43162  0.31498  1.0000
  H   H7223     1.0  0.98228  0.42317  0.30000  1.0000
  H   H7224     1.0  0.99008  0.41533  0.31969  1.0000
  H   H7225     1.0  0.86684  0.08992  0.26914  1.0000
  H   H7226     1.0  0.91597  0.18674  0.29686  1.0000
  C   C4262     1.0  0.89114  0.18942  0.29823  1.0000
  H   H7227     1.0  0.95068  0.39949  0.32727  1.0000
  N   N301      1.0  0.84715  0.32940  0.35023  1.0000
  C   C4263     1.0  0.85712  0.33626  0.34912  1.0000
  C   C4264     1.0  0.84990  0.32454  0.33861  1.0000
  C   C4265     1.0  0.84774  0.31885  0.36127  1.0000
  C   C4266     1.0  0.83490  0.33832  0.35191  1.0000
  C   C4267     1.0  0.85779  0.33977  0.36100  1.0000
  C   C4268     1.0  0.84993  0.33436  0.32654  1.0000
  C   C4269     1.0  0.84232  0.30777  0.36162  1.0000
  C   C4270     1.0  0.82331  0.33360  0.35253  1.0000
  H   H7228     1.0  0.86639  0.33082  0.34572  1.0000
  H   H7229     1.0  0.85608  0.34503  0.34214  1.0000
  H   H7230     1.0  0.84332  0.31890  0.33884  1.0000
  H   H7231     1.0  0.85909  0.31813  0.33765  1.0000
  H   H7232     1.0  0.85748  0.31484  0.36211  1.0000
  H   H7233     1.0  0.84319  0.32224  0.36989  1.0000
  H   H7234     1.0  0.83315  0.34163  0.36059  1.0000
  H   H7235     1.0  0.83494  0.34694  0.34473  1.0000
  H   H7236     1.0  0.85993  0.33161  0.36836  1.0000
  H   H7237     1.0  0.86545  0.34474  0.35886  1.0000
  H   H7238     1.0  0.84925  0.34607  0.36454  1.0000
  H   H7239     1.0  0.85166  0.32967  0.31876  1.0000
  H   H7240     1.0  0.84092  0.34090  0.32654  1.0000
  H   H7241     1.0  0.85745  0.33946  0.32456  1.0000
  H   H7242     1.0  0.84267  0.30129  0.37063  1.0000
  H   H7243     1.0  0.84795  0.30251  0.35450  1.0000
  H   H7244     1.0  0.83258  0.31033  0.36078  1.0000
  H   H7245     1.0  0.81949  0.32926  0.36213  1.0000
  H   H7246     1.0  0.82480  0.32717  0.34639  1.0000
  H   H7247     1.0  0.81614  0.34151  0.34929  1.0000
  N   N302      1.0  0.90838  0.13344  0.35997  1.0000
  C   C4271     1.0  0.90343  0.14547  0.36430  1.0000
  C   C4272     1.0  0.91550  0.13634  0.34693  1.0000
  C   C4273     1.0  0.91688  0.12519  0.36824  1.0000
  C   C4274     1.0  0.89754  0.12793  0.36087  1.0000
  C   C4275     1.0  0.89723  0.14454  0.37807  1.0000
  C   C4276     1.0  0.90814  0.14520  0.33749  1.0000
  C   C4277     1.0  0.92640  0.11445  0.36332  1.0000
  C   C4278     1.0  0.89999  0.11634  0.35553  1.0000
  H   H7248     1.0  0.91098  0.15048  0.36258  1.0000
  H   H7249     1.0  0.89644  0.15169  0.35910  1.0000
  H   H7250     1.0  0.91988  0.12793  0.34318  1.0000
  H   H7251     1.0  0.92335  0.14042  0.34670  1.0000
  H   H7252     1.0  0.92247  0.13068  0.37041  1.0000
  H   H7253     1.0  0.91145  0.12110  0.37723  1.0000
  H   H7254     1.0  0.89291  0.12531  0.37065  1.0000
  H   H7255     1.0  0.89029  0.13488  0.35661  1.0000
  H   H7256     1.0  0.90381  0.13967  0.38418  1.0000
  H   H7257     1.0  0.89373  0.15402  0.37986  1.0000
  H   H7258     1.0  0.88911  0.14018  0.38066  1.0000
  H   H7259     1.0  0.91425  0.14589  0.32819  1.0000
  H   H7260     1.0  0.90005  0.14184  0.33712  1.0000
  H   H7261     1.0  0.90520  0.15469  0.33925  1.0000
  H   H7262     1.0  0.93360  0.11778  0.35552  1.0000
  H   H7263     1.0  0.92211  0.10829  0.36066  1.0000
  H   H7264     1.0  0.93130  0.10872  0.37071  1.0000
  H   H7265     1.0  0.90187  0.10783  0.36263  1.0000
  H   H7266     1.0  0.90743  0.11610  0.34727  1.0000
  H   H7267     1.0  0.89168  0.11622  0.35235  1.0000
  N   N303      1.0  0.83099  0.24723  0.39676  1.0000
  C   C4279     1.0  0.84181  0.23677  0.39914  1.0000
  C   C4280     1.0  0.82256  0.24230  0.39200  1.0000
  C   C4281     1.0  0.83582  0.25791  0.38775  1.0000
  C   C4282     1.0  0.85110  0.23927  0.40532  1.0000
  C   C4283     1.0  0.82832  0.23757  0.37995  1.0000
  C   C4284     1.0  0.82674  0.26764  0.38043  1.0000
  H   H7268     1.0  0.83858  0.22834  0.40497  1.0000
  H   H7269     1.0  0.84734  0.23407  0.39039  1.0000
  C   C4285     1.0  0.84422  0.15277  0.31122  1.0000
  H   H7270     1.0  0.83963  0.26289  0.39252  1.0000
  H   H7271     1.0  0.84374  0.25444  0.38072  1.0000
  H   H7272     1.0  0.85934  0.23160  0.40502  1.0000
  H   H7273     1.0  0.85442  0.24785  0.40044  1.0000
  H   H7274     1.0  0.84724  0.23951  0.41517  1.0000
  H   H7275     1.0  0.83499  0.22865  0.38146  1.0000
  H   H7276     1.0  0.82095  0.23581  0.37639  1.0000
  H   H7277     1.0  0.83289  0.24433  0.37264  1.0000
  H   H7278     1.0  0.82804  0.27699  0.38010  1.0000
  H   H7279     1.0  0.81685  0.26772  0.38423  1.0000
  H   H7280     1.0  0.82897  0.26666  0.37070  1.0000
  N   N304      1.0  0.94108  0.09289  0.29735  1.0000
  C   C4286     1.0  0.94551  0.09849  0.28397  1.0000
  C   C4287     1.0  0.94511  0.09943  0.30495  1.0000
  C   C4288     1.0  0.92714  0.09505  0.29987  1.0000
  C   C4289     1.0  0.94671  0.07930  0.29945  1.0000
  C   C4290     1.0  0.94093  0.09437  0.27448  1.0000
  C   C4291     1.0  0.95912  0.09844  0.30296  1.0000
  C   C4292     1.0  0.92012  0.09531  0.31324  1.0000
  C   C4293     1.0  0.94434  0.07182  0.31279  1.0000
  H   H7281     1.0  0.94276  0.10874  0.28230  1.0000
  H   H7282     1.0  0.95576  0.09636  0.28133  1.0000
  H   H7283     1.0  0.94192  0.09613  0.31491  1.0000
  H   H7284     1.0  0.94077  0.10939  0.30319  1.0000
  H   H7285     1.0  0.92323  0.10408  0.29435  1.0000
  H   H7286     1.0  0.92416  0.08800  0.29689  1.0000
  H   H7287     1.0  0.94318  0.07471  0.29408  1.0000
  H   H7288     1.0  0.95684  0.07752  0.29569  1.0000
  H   H7289     1.0  0.93073  0.09657  0.27581  1.0000
  H   H7290     1.0  0.94444  0.09953  0.26513  1.0000
  H   H7291     1.0  0.94450  0.08443  0.27445  1.0000
  H   H7292     1.0  0.96081  0.10290  0.30968  1.0000
  H   H7293     1.0  0.96422  0.08875  0.30469  1.0000
  H   H7294     1.0  0.96298  0.10347  0.29370  1.0000
  H   H7295     1.0  0.92350  0.08714  0.31999  1.0000
  H   H7296     1.0  0.91023  0.09552  0.31389  1.0000
  H   H7297     1.0  0.92045  0.10381  0.31592  1.0000
  H   H7298     1.0  0.93542  0.06881  0.31511  1.0000
  H   H7299     1.0  0.94464  0.07668  0.31979  1.0000
  H   H7300     1.0  0.95188  0.06352  0.31374  1.0000
  N   N305      1.0  0.86582  0.37873  0.39598  1.0000
  C   C4294     1.0  0.87490  0.36781  0.39162  1.0000
  C   C4295     1.0  0.87169  0.38984  0.39075  1.0000
  C   C4296     1.0  0.85439  0.38055  0.39095  1.0000
  C   C4297     1.0  0.86293  0.37582  0.40988  1.0000
  C   C4298     1.0  0.87026  0.35563  0.39519  1.0000
  C   C4299     1.0  0.88436  0.38862  0.39369  1.0000
  C   C4300     1.0  0.84572  0.39338  0.38986  1.0000
  C   C4301     1.0  0.85752  0.38681  0.41639  1.0000
  H   H7301     1.0  0.87800  0.36993  0.38141  1.0000
  H   H7302     1.0  0.88341  0.36563  0.39534  1.0000
  H   H7303     1.0  0.86573  0.39817  0.39391  1.0000
  H   H7304     1.0  0.87283  0.39225  0.38057  1.0000
  H   H7305     1.0  0.85702  0.37864  0.38151  1.0000
  H   H7306     1.0  0.84861  0.37377  0.39645  1.0000
  H   H7307     1.0  0.85661  0.36922  0.41352  1.0000
  H   H7308     1.0  0.87151  0.37101  0.41324  1.0000
  H   H7309     1.0  0.86248  0.35631  0.39082  1.0000
  H   H7310     1.0  0.87789  0.34830  0.39182  1.0000
  H   H7311     1.0  0.86760  0.35256  0.40531  1.0000
  H   H7312     1.0  0.89172  0.38231  0.38855  1.0000
  H   H7313     1.0  0.88698  0.39776  0.39064  1.0000
  H   H7314     1.0  0.88414  0.38559  0.40369  1.0000
  H   H7315     1.0  0.85042  0.40096  0.38440  1.0000
  H   H7316     1.0  0.84052  0.39526  0.39895  1.0000
  H   H7317     1.0  0.83870  0.39351  0.38473  1.0000
  H   H7318     1.0  0.85136  0.38376  0.42529  1.0000
  H   H7319     1.0  0.85203  0.39490  0.41123  1.0000
  H   H7320     1.0  0.86497  0.38957  0.41893  1.0000
  N   N306      1.0  0.91847  0.30989  0.43259  1.0000
  C   C4302     1.0  0.92244  0.32214  0.42800  1.0000
  C   C4303     1.0  0.90603  0.31207  0.44114  1.0000
  C   C4304     1.0  0.91712  0.30585  0.42161  1.0000
  C   C4305     1.0  0.92822  0.30072  0.43883  1.0000
  H   H7321     1.0  0.97189  0.18172  0.35335  1.0000
  H   H7322     1.0  0.95083  0.18426  0.35933  1.0000
  H   H7323     1.0  0.88270  0.08566  0.26132  1.0000
  H   H7324     1.0  0.98248  0.15054  0.34300  1.0000
  H   H7325     1.0  0.92424  0.32526  0.43564  1.0000
  H   H7326     1.0  0.91213  0.15712  0.26705  1.0000
  H   H7327     1.0  0.89903  0.31841  0.43600  1.0000
  H   H7328     1.0  0.91050  0.31305  0.41663  1.0000
  H   H7329     1.0  0.93610  0.29702  0.43185  1.0000
  H   H7330     1.0  0.93218  0.30541  0.44377  1.0000
  C   C4306     1.0  0.97637  0.15079  0.36724  1.0000
  H   H7331     1.0  0.93705  0.33140  0.41649  1.0000
  H   H7332     1.0  0.94141  0.41331  0.31979  1.0000
  H   H7333     1.0  0.86638  0.40506  0.46059  1.0000
  H   H7334     1.0  0.86068  0.01853  0.32172  1.0000
  H   H7335     1.0  0.95292  0.17009  0.35526  1.0000
  H   H7336     1.0  0.81409  0.24919  0.39038  1.0000
  C   C4307     1.0  0.90557  0.31758  0.45216  1.0000
  C   C4308     1.0  0.90055  0.31735  0.38563  1.0000
  H   H7337     1.0  0.93775  0.18323  0.28788  1.0000
  C   C4309     1.0  0.85278  0.38901  0.46773  1.0000
  H   H7338     1.0  0.86474  0.40576  0.48160  1.0000
  H   H7339     1.0  0.91458  0.03569  0.37224  1.0000
  H   H7340     1.0  0.77029  0.34695  0.38182  1.0000
  N   N307      1.0  0.90295  0.22559  0.34325  1.0000
  C   C4310     1.0  0.90856  0.21223  0.34768  1.0000
  C   C4311     1.0  0.91009  0.23006  0.33055  1.0000
  C   C4312     1.0  0.88970  0.22718  0.34250  1.0000
  C   C4313     1.0  0.90338  0.23289  0.35225  1.0000
  C   C4314     1.0  0.90155  0.20569  0.36002  1.0000
  C   C4315     1.0  0.92362  0.23051  0.32971  1.0000
  C   C4316     1.0  0.88713  0.21900  0.33515  1.0000
  C   C4317     1.0  0.89925  0.24701  0.34852  1.0000
  H   H7341     1.0  0.90966  0.20672  0.34064  1.0000
  H   H7342     1.0  0.91805  0.21125  0.34901  1.0000
  H   H7343     1.0  0.90538  0.23940  0.32633  1.0000
  H   H7344     1.0  0.91045  0.22403  0.32425  1.0000
  H   H7345     1.0  0.88387  0.22553  0.35184  1.0000
  H   H7346     1.0  0.88591  0.23684  0.33822  1.0000
  H   H7347     1.0  0.89730  0.23016  0.36132  1.0000
  H   H7348     1.0  0.91279  0.23085  0.35419  1.0000
  H   H7349     1.0  0.90088  0.21007  0.36775  1.0000
  H   H7350     1.0  0.89222  0.20513  0.35948  1.0000
  H   H7351     1.0  0.90673  0.19608  0.36241  1.0000
  H   H7352     1.0  0.92775  0.23414  0.31997  1.0000
  H   H7353     1.0  0.92444  0.23678  0.33520  1.0000
  H   H7354     1.0  0.92928  0.22122  0.33242  1.0000
  H   H7355     1.0  0.88948  0.20905  0.33928  1.0000
  H   H7356     1.0  0.89191  0.22071  0.32535  1.0000
  H   H7357     1.0  0.87708  0.22125  0.33530  1.0000
  H   H7358     1.0  0.90535  0.25103  0.34007  1.0000
  H   H7359     1.0  0.89966  0.25122  0.35604  1.0000
  H   H7360     1.0  0.88956  0.24983  0.34732  1.0000
  C   C4318     1.0  0.97602  0.15917  0.34513  1.0000
  H   H7361     1.0  0.84961  0.12431  0.23653  1.0000
  H   H7362     1.0  0.93225  0.32261  0.40869  1.0000
  H   H7363     1.0  0.99379  0.40379  0.30336  1.0000
  H   H7364     1.0  0.81056  0.03975  0.35694  1.0000
  H   H7365     1.0  0.77378  0.03787  0.36056  1.0000
  C   C4319     1.0  0.95536  0.17439  0.36159  1.0000
  C   C4320     1.0  0.80503  0.00912  0.38594  1.0000
  C   C4321     1.0  0.92321  0.31359  0.36502  1.0000
  H   H7366     1.0  0.76082  0.38186  0.37480  1.0000
  C   C4322     1.0  0.93414  0.32259  0.41770  1.0000
  H   H7367     1.0  0.84801  0.10438  0.25233  1.0000
  H   H7368     1.0  0.88369  0.40650  0.46541  1.0000
  H   H7369     1.0  0.85442  0.39983  0.44859  1.0000
  H   H7370     1.0  0.91137  0.29222  0.41558  1.0000
  C   C4323     1.0  0.95366  0.42703  0.29759  1.0000
  H   H7371     1.0  0.97016  0.39422  0.31780  1.0000
  S   S1247     1.0  0.89973  0.14950  0.24787  1.0000
  H   H7372     1.0  0.94634  0.42517  0.29406  1.0000
  C   C4324     1.0  0.97560  0.42384  0.30889  1.0000
  H   H7373     1.0  0.94878  0.43196  0.30513  1.0000
  H   H7374     1.0  0.76613  0.02788  0.37361  1.0000
  C   C4325     1.0  0.76698  0.35662  0.37722  1.0000
  H   H7375     1.0  0.85864  0.12802  0.24536  1.0000
  H   H7376     1.0  0.96217  0.41353  0.33211  1.0000
  H   H7377     1.0  0.77077  0.35727  0.36721  1.0000
  H   H7378     1.0  0.78746  0.03636  0.37764  1.0000
  H   H7379     1.0  0.90527  0.32765  0.44926  1.0000
  H   H7380     1.0  0.91495  0.32949  0.42454  1.0000
  H   H7381     1.0  0.78147  0.00124  0.35919  1.0000
  H   H7382     1.0  0.84447  0.32339  0.43846  1.0000
  C   C4326     1.0  0.84980  0.29309  0.42432  1.0000
  H   H7383     1.0  0.81914  0.23455  0.39905  1.0000
  H   H7384     1.0  0.91055  0.30001  0.39429  1.0000
  H   H7385     1.0  0.95122  0.17047  0.37123  1.0000
  S   S1248     1.0  0.89541  0.12146  0.25601  1.0000
  C   C4327     1.0  0.93412  0.31052  0.35430  1.0000
  C   C4328     1.0  0.84360  0.14243  0.29498  1.0000
  H   H7386     1.0  0.94197  0.31498  0.41988  1.0000
  H   H7387     1.0  0.83341  0.14334  0.29717  1.0000
  H   H7388     1.0  0.84863  0.16014  0.30474  1.0000
  H   H7389     1.0  0.82646  0.16081  0.30526  1.0000
  H   H7390     1.0  0.82203  0.24248  0.41590  1.0000
  C   C4329     1.0  0.91547  0.16779  0.27846  1.0000
  C   C4330     1.0  0.82442  0.25075  0.40893  1.0000
  H   H7391     1.0  0.83053  0.25433  0.41264  1.0000
  H   H7392     1.0  0.97511  0.15342  0.37622  1.0000
  C   C4331     1.0  0.88456  0.39697  0.46427  1.0000
  H   H7393     1.0  0.89836  0.02717  0.38099  1.0000
  H   H7394     1.0  0.88370  0.06329  0.40258  1.0000
  H   H7395     1.0  0.84291  0.16238  0.28691  1.0000
  H   H7396     1.0  0.85682  0.15229  0.28066  1.0000
  C   C4332     1.0  0.91420  0.04188  0.37835  1.0000
  H   H7397     1.0  0.85399  0.29075  0.43252  1.0000
  C   C4333     1.0  0.84675  0.15328  0.28433  1.0000
  C   C4334     1.0  0.83020  0.15801  0.31377  1.0000
  C   C4335     1.0  0.98289  0.42383  0.31841  1.0000
  H   H7398     1.0  0.82504  0.15148  0.32076  1.0000
  H   H7399     1.0  0.91772  0.03652  0.38670  1.0000
  H   H7400     1.0  0.82844  0.16646  0.31750  1.0000
  H   H7401     1.0  0.91606  0.28677  0.44734  1.0000
  C   C4336     1.0  0.78418  0.01025  0.35748  1.0000
  H   H7402     1.0  0.79098  0.03100  0.34937  1.0000
  H   H7403     1.0  0.94149  0.41088  0.33573  1.0000
  H   H7404     1.0  0.89753  0.32133  0.39399  1.0000
  H   H7405     1.0  0.85691  0.10822  0.26063  1.0000
  H   H7406     1.0  0.90533  0.03558  0.41476  1.0000
  H   H7407     1.0  0.87010  0.03356  0.39006  1.0000
  C   C4337     1.0  0.98711  0.39768  0.30563  1.0000
  H   H7408     1.0  0.94266  0.31252  0.35548  1.0000
  C   C4338     1.0  0.91270  0.30773  0.38649  1.0000
  H   H7409     1.0  0.80358  0.00006  0.38553  1.0000
  H   H7410     1.0  0.96964  0.43321  0.30719  1.0000
  N   N308      1.0  0.97784  0.16172  0.35669  1.0000
  H   H7411     1.0  0.93211  0.31686  0.34560  1.0000
  H   H7412     1.0  0.78166  0.02302  0.38462  1.0000
  H   H7413     1.0  0.89044  0.04583  0.41633  1.0000
  C   C4339     1.0  0.90668  0.16228  0.27433  1.0000
  H   H7414     1.0  0.78637  0.00563  0.37627  1.0000
  C   C4340     1.0  0.80197  0.04110  0.35359  1.0000
  H   H7415     1.0  0.89838  0.05489  0.37267  1.0000
  C   C4341     1.0  0.96591  0.14418  0.36839  1.0000
  H   H7416     1.0  0.97913  0.40026  0.32415  1.0000
  C   C4342     1.0  0.78443  0.02888  0.37542  1.0000
  H   H7417     1.0  0.76758  0.04287  0.37448  1.0000
  H   H7418     1.0  0.98452  0.39722  0.29715  1.0000
  C   C4343     1.0  0.89784  0.18249  0.28776  1.0000
  H   H7419     1.0  0.84809  0.28438  0.42326  1.0000
  H   H7420     1.0  0.92029  0.28562  0.42710  1.0000
  H   H7421     1.0  0.98491  0.14348  0.36658  1.0000
  H   H7422     1.0  0.96676  0.15729  0.34621  1.0000
  H   H7423     1.0  0.88949  0.18303  0.30727  1.0000
  H   H7424     1.0  0.91928  0.17422  0.27007  1.0000
  H   H7425     1.0  0.98755  0.17047  0.33040  1.0000
  H   H7426     1.0  0.90336  0.04977  0.40433  1.0000
  H   H7427     1.0  0.94815  0.28969  0.38303  1.0000
  H   H7428     1.0  0.97157  0.17833  0.33474  1.0000
  H   H7429     1.0  0.89612  0.19629  0.29872  1.0000
  C   C4344     1.0  0.80598  0.01813  0.37329  1.0000
  H   H7430     1.0  0.89210  0.16085  0.30090  1.0000
  H   H7431     1.0  0.92336  0.16016  0.28050  1.0000
  H   H7432     1.0  0.93601  0.30110  0.35268  1.0000
  C   C4345     1.0  0.90118  0.04984  0.38152  1.0000
  H   H7433     1.0  0.90233  0.05711  0.38557  1.0000
  N   N309      1.0  0.96796  0.41410  0.31248  1.0000
  H   H7434     1.0  0.97056  0.17458  0.36887  1.0000
  C   C4346     1.0  0.91877  0.18253  0.28859  1.0000
  H   H7435     1.0  0.87291  0.07476  0.26612  1.0000
  C   C4347     1.0  0.97782  0.16940  0.33348  1.0000
  H   H7436     1.0  0.88828  0.03941  0.37317  1.0000
  Fe  Fe624     1.0  0.83212  0.00117  0.34923  1.0000
  H   H7437     1.0  0.95766  0.40698  0.30341  1.0000
  H   H7438     1.0  0.88767  0.36918  0.47675  1.0000
  H   H7439     1.0  0.80829  0.02644  0.37465  1.0000
  H   H7440     1.0  0.88403  0.07042  0.38653  1.0000
  C   C4348     1.0  0.93025  0.29296  0.37821  1.0000
  H   H7441     1.0  0.77562  0.01740  0.35787  1.0000
  H   H7442     1.0  0.95403  0.42632  0.32324  1.0000
  H   H7443     1.0  0.93424  0.16859  0.29555  1.0000
  C   C4349     1.0  0.96243  0.41474  0.30175  1.0000
  H   H7444     1.0  0.96980  0.41339  0.29347  1.0000
  C   C4350     1.0  0.89479  0.03556  0.40153  1.0000
  H   H7445     1.0  0.84317  0.12642  0.25189  1.0000
  H   H7446     1.0  0.97559  0.16678  0.32580  1.0000
  H   H7447     1.0  0.90818  0.16987  0.30908  1.0000
  S   S1249     1.0  0.75362  0.39315  0.32306  1.0000
  C   C4351     1.0  0.88983  0.03437  0.38253  1.0000
  H   H7448     1.0  0.89875  0.18946  0.27895  1.0000
  C   C4352     1.0  0.75272  0.35966  0.38023  1.0000
  H   H7449     1.0  0.90231  0.30358  0.44499  1.0000
  H   H7450     1.0  0.81427  0.01390  0.36705  1.0000
  H   H7451     1.0  0.90776  0.28969  0.37902  1.0000
  N   N310      1.0  0.91943  0.30294  0.37495  1.0000
  H   H7452     1.0  0.93677  0.17309  0.27896  1.0000
  H   H7453     1.0  0.85950  0.03374  0.31259  1.0000
  N   N311      1.0  0.89134  0.04309  0.38959  1.0000
  C   C4353     1.0  0.99095  0.16345  0.35423  1.0000
  H   H7454     1.0  0.87480  0.05469  0.38371  1.0000
  H   H7455     1.0  0.88826  0.35904  0.46719  1.0000
  H   H7456     1.0  0.92595  0.31994  0.36916  1.0000
  H   H7457     1.0  0.90221  0.15562  0.28178  1.0000
  H   H7458     1.0  0.78994  0.01159  0.34803  1.0000
  H   H7459     1.0  0.90171  0.32513  0.37768  1.0000
  H   H7460     1.0  0.77098  0.36248  0.38075  1.0000
  H   H7461     1.0  0.91825  0.19042  0.28054  1.0000
  H   H7462     1.0  0.87345  0.02213  0.30967  1.0000
  H   H7463     1.0  0.89695  0.31635  0.45907  1.0000
  C   C4354     1.0  0.90042  0.15671  0.30474  1.0000
  H   H7464     1.0  0.90224  0.02733  0.40001  1.0000
  C   C4355     1.0  0.91070  0.29731  0.37141  1.0000
  H   H7465     1.0  0.97683  0.42501  0.32744  1.0000
  H   H7466     1.0  0.86974  0.06959  0.39710  1.0000
  H   H7467     1.0  0.91660  0.29992  0.35128  1.0000
  C   C4356     1.0  0.87916  0.05209  0.39190  1.0000
  C   C4357     1.0  0.89857  0.04223  0.40957  1.0000
  H   H7468     1.0  0.99020  0.17125  0.37022  1.0000
  H   H7469     1.0  0.95882  0.43332  0.29019  1.0000
  C   C4358     1.0  0.87927  0.02730  0.38856  1.0000
  C   C4359     1.0  0.87939  0.06444  0.39472  1.0000
  H   H7470     1.0  0.89294  0.31316  0.38543  1.0000
  H   H7471     1.0  0.81390  0.00724  0.38896  1.0000
  H   H7472     1.0  0.84787  0.38148  0.47323  1.0000
  H   H7473     1.0  0.88191  0.19460  0.29646  1.0000
  H   H7474     1.0  0.88082  0.02086  0.39732  1.0000
  H   H7475     1.0  0.89698  0.15485  0.31487  1.0000
  H   H7476     1.0  0.92385  0.28508  0.35962  1.0000
  H   H7477     1.0  0.90479  0.14779  0.30188  1.0000
  H   H7478     1.0  0.75495  0.36657  0.34484  1.0000
  H   H7479     1.0  0.87247  0.04777  0.39964  1.0000
  H   H7480     1.0  0.87889  0.02164  0.38223  1.0000
  H   H7481     1.0  0.88693  0.03149  0.40757  1.0000
  H   H7482     1.0  0.91861  0.31225  0.38942  1.0000
  H   H7483     1.0  0.92696  0.28524  0.38543  1.0000
  H   H7484     1.0  0.90212  0.30411  0.37004  1.0000
  H   H7485     1.0  0.91340  0.31303  0.45680  1.0000
  H   H7486     1.0  0.96546  0.13697  0.37699  1.0000
  C   C4360     1.0  0.90977  0.16517  0.30130  1.0000
  C   C4361     1.0  0.87310  0.08466  0.26229  1.0000
  C   C4362     1.0  0.93964  0.29701  0.38300  1.0000
  C   C4363     1.0  0.91535  0.29234  0.35947  1.0000
  H   H7487     1.0  0.94234  0.30562  0.37717  1.0000
  H   H7488     1.0  0.99421  0.12314  0.35256  1.0000
  C   C4364     1.0  0.93259  0.17635  0.28770  1.0000
  H   H7489     1.0  0.93549  0.28860  0.37036  1.0000
  H   H7490     1.0  0.90815  0.28810  0.35832  1.0000
  N   N312      1.0  0.91023  0.17428  0.28914  1.0000
  H   H7491     1.0  0.92229  0.29130  0.45800  1.0000
  C   C4365     1.0  0.85591  0.10881  0.25113  1.0000
  H   H7492     1.0  0.75066  0.37852  0.38921  1.0000
  C   C4366     1.0  0.77237  0.03453  0.37064  1.0000
  C   C4367     1.0  0.85177  0.12265  0.24575  1.0000
  H   H7493     1.0  0.89133  0.37390  0.46003  1.0000
  H   H7494     1.0  0.79441  0.04748  0.35841  1.0000
  H   H7495     1.0  0.87707  0.11710  0.24005  1.0000
  H   H7496     1.0  0.76060  0.37530  0.35769  1.0000
  H   H7497     1.0  0.87504  0.39397  0.45173  1.0000
  C   C4368     1.0  0.87826  0.10715  0.24444  1.0000
  H   H7498     1.0  0.99222  0.17219  0.34750  1.0000
  C   C4369     1.0  0.87258  0.39575  0.46125  1.0000
  H   H7499     1.0  0.99204  0.38824  0.30923  1.0000
  C   C4370     1.0  0.89111  0.10110  0.23781  1.0000
  H   H7500     1.0  0.87114  0.37263  0.45844  1.0000
  H   H7501     1.0  0.86670  0.36652  0.47432  1.0000
  C   C4371     1.0  0.87173  0.37343  0.46763  1.0000
  H   H7502     1.0  0.74971  0.35809  0.39045  1.0000
  S   S1250     1.0  0.81753  0.99625  0.34244  1.0000
  N   N313      1.0  0.86577  0.38621  0.46992  1.0000
  H   H7503     1.0  0.74882  0.40095  0.37898  1.0000
  H   H7504     1.0  0.89201  0.09131  0.23775  1.0000
  H   H7505     1.0  0.84160  0.39242  0.45406  1.0000
  C   C4372     1.0  0.85149  0.39124  0.45420  1.0000
  H   H7506     1.0  0.85654  0.38349  0.44962  1.0000
  H   H7507     1.0  0.89826  0.10128  0.24262  1.0000
  C   C4373     1.0  0.86463  0.38606  0.48333  1.0000
  H   H7508     1.0  0.74896  0.35691  0.35846  1.0000
  C   C4374     1.0  0.75065  0.37509  0.36065  1.0000
  H   H7509     1.0  0.84721  0.39748  0.47094  1.0000
  C   C4375     1.0  0.75099  0.38150  0.37911  1.0000
  C   C4376     1.0  0.74800  0.36666  0.35363  1.0000
  H   H7510     1.0  0.74977  0.35245  0.37759  1.0000
  H   H7511     1.0  0.74839  0.41022  0.33919  1.0000
  H   H7512     1.0  0.99641  0.15476  0.37219  1.0000
  C   C4377     1.0  0.99577  0.16372  0.36550  1.0000
  Fe  Fe625     1.0  0.99701  0.40025  0.34423  1.0000
  S   S1251     1.0  0.90274  0.38606  0.71075  1.0000
  S   S1252     1.0  0.76584  0.38814  0.61812  1.0000
  Fe  Fe626     1.0  0.77189  0.42125  0.60224  1.0000
  S   S1253     1.0  0.78679  0.40563  0.60813  1.0000
  S   S1254     1.0  0.77618  0.44014  0.59304  1.0000
  Fe  Fe627     1.0  0.77859  0.39437  0.60042  1.0000
  S   S1255     1.0  0.79044  0.38134  0.58851  1.0000
  Fe  Fe628     1.0  0.77270  0.40111  0.62526  1.0000
  S   S1256     1.0  0.77838  0.39911  0.64326  1.0000
  S   S1257     1.0  0.76483  0.41038  0.59288  1.0000
  S   S1258     1.0  0.84518  0.45727  0.59694  1.0000
  H   H7513     1.0  0.78813  0.44630  0.65977  1.0000
  Fe  Fe629     1.0  0.85409  0.46574  0.60683  1.0000
  S   S1259     1.0  0.86758  0.45400  0.61835  1.0000
  C   C4378     1.0  0.86158  0.40669  0.71499  1.0000
  C   C4379     1.0  0.86744  0.40495  0.70170  1.0000
  Fe  Fe630     1.0  0.87244  0.40372  0.54924  1.0000
  S   S1260     1.0  0.88084  0.38355  0.55032  1.0000
  S   S1261     1.0  0.88340  0.41728  0.54954  1.0000
  Fe  Fe631     1.0  0.84727  0.40038  0.54925  1.0000
  S   S1262     1.0  0.85334  0.37997  0.55049  1.0000
  S   S1263     1.0  0.82783  0.41110  0.54977  1.0000
  Fe  Fe632     1.0  0.86363  0.38063  0.56438  1.0000
  S   S1264     1.0  0.86267  0.36688  0.58248  1.0000
  Fe  Fe633     1.0  0.86987  0.38457  0.53622  1.0000
  S   S1265     1.0  0.87876  0.37456  0.52031  1.0000
  S   S1266     1.0  0.85614  0.40066  0.56433  1.0000
  S   S1267     1.0  0.86303  0.40514  0.53389  1.0000
  Fe  Fe634     1.0  0.86748  0.38317  0.64082  1.0000
  S   S1268     1.0  0.84762  0.39241  0.64156  1.0000
  S   S1269     1.0  0.87979  0.38496  0.62185  1.0000
  Fe  Fe635     1.0  0.86388  0.37449  0.66890  1.0000
  S   S1270     1.0  0.84351  0.38257  0.67158  1.0000
  S   S1271     1.0  0.87025  0.36498  0.68690  1.0000
  Fe  Fe636     1.0  0.84377  0.37532  0.65518  1.0000
  S   S1272     1.0  0.82969  0.36558  0.65355  1.0000
  Fe  Fe637     1.0  0.84922  0.39880  0.65776  1.0000
  S   S1273     1.0  0.83998  0.41769  0.66103  1.0000
  S   S1274     1.0  0.86366  0.36551  0.65365  1.0000
  S   S1275     1.0  0.86956  0.39128  0.65588  1.0000
  C   C4380     1.0  0.87124  0.36725  0.51344  1.0000
  C   C4381     1.0  0.87829  0.36074  0.50426  1.0000
  H   H7514     1.0  0.96406  0.34915  0.69599  1.0000
  C   C4382     1.0  0.86001  0.35521  0.50205  1.0000
  C   C4383     1.0  0.85302  0.36146  0.51145  1.0000
  C   C4384     1.0  0.85857  0.36756  0.51703  1.0000
  H   H7515     1.0  0.83703  0.42309  0.58709  1.0000
  H   H7516     1.0  0.82554  0.43778  0.54792  1.0000
  H   H7517     1.0  0.85302  0.37254  0.52407  1.0000
  C   C4385     1.0  0.86779  0.37156  0.59339  1.0000
  C   C4386     1.0  0.86460  0.36636  0.60596  1.0000
  C   C4387     1.0  0.86793  0.37064  0.61480  1.0000
  C   C4388     1.0  0.87515  0.37960  0.61104  1.0000
  C   C4389     1.0  0.87889  0.38427  0.59842  1.0000
  C   C4390     1.0  0.87494  0.38056  0.58965  1.0000
  H   H7518     1.0  0.85950  0.35906  0.60888  1.0000
  H   H7519     1.0  0.86519  0.36677  0.62450  1.0000
  H   H7520     1.0  0.88485  0.39079  0.59539  1.0000
  H   H7521     1.0  0.87767  0.38446  0.57996  1.0000
  C   C4391     1.0  0.85994  0.44430  0.63069  1.0000
  C   C4392     1.0  0.84706  0.44683  0.63399  1.0000
  C   C4393     1.0  0.84096  0.43891  0.64369  1.0000
  C   C4394     1.0  0.84772  0.42813  0.64972  1.0000
  C   C4395     1.0  0.86062  0.42557  0.64643  1.0000
  C   C4396     1.0  0.86674  0.43379  0.63709  1.0000
  H   H7522     1.0  0.84172  0.45481  0.62905  1.0000
  H   H7523     1.0  0.83099  0.44096  0.64620  1.0000
  H   H7524     1.0  0.86592  0.41732  0.65110  1.0000
  H   H7525     1.0  0.87670  0.43186  0.63462  1.0000
  C   C4397     1.0  0.87509  0.43157  0.55312  1.0000
  C   C4398     1.0  0.86656  0.43233  0.56426  1.0000
  C   C4399     1.0  0.86108  0.44391  0.56743  1.0000
  C   C4400     1.0  0.86370  0.45476  0.55919  1.0000
  C   C4401     1.0  0.87201  0.45391  0.54799  1.0000
  C   C4402     1.0  0.87788  0.44239  0.54510  1.0000
  H   H7526     1.0  0.86448  0.42398  0.57055  1.0000
  H   H7527     1.0  0.85466  0.44444  0.57609  1.0000
  H   H7528     1.0  0.87407  0.46222  0.54156  1.0000
  H   H7529     1.0  0.88455  0.44188  0.53654  1.0000
  C   C4403     1.0  0.78731  0.44559  0.59716  1.0000
  C   C4404     1.0  0.79630  0.43760  0.60335  1.0000
  C   C4405     1.0  0.80464  0.44236  0.60696  1.0000
  C   C4406     1.0  0.80402  0.45512  0.60447  1.0000
  C   C4407     1.0  0.79541  0.46303  0.59778  1.0000
  C   C4408     1.0  0.78716  0.45827  0.59407  1.0000
  H   H7530     1.0  0.76589  0.43930  0.66725  1.0000
  H   H7531     1.0  0.84211  0.41111  0.68843  1.0000
  H   H7532     1.0  0.79464  0.47289  0.59605  1.0000
  H   H7533     1.0  0.78030  0.46450  0.58921  1.0000
  C   C4409     1.0  0.79287  0.38983  0.64544  1.0000
  C   C4410     1.0  0.80149  0.39496  0.64806  1.0000
  C   C4411     1.0  0.81283  0.38762  0.65049  1.0000
  C   C4412     1.0  0.81554  0.37502  0.65053  1.0000
  C   C4413     1.0  0.80685  0.36983  0.64810  1.0000
  C   C4414     1.0  0.79557  0.37722  0.64552  1.0000
  H   H7534     1.0  0.79939  0.40461  0.64823  1.0000
  H   H7535     1.0  0.81942  0.39169  0.65245  1.0000
  H   H7536     1.0  0.80884  0.36006  0.64824  1.0000
  H   H7537     1.0  0.78883  0.37312  0.64386  1.0000
  C   C4415     1.0  0.80035  0.38951  0.57694  1.0000
  C   C4416     1.0  0.81142  0.38319  0.57086  1.0000
  C   C4417     1.0  0.81982  0.38978  0.56232  1.0000
  C   C4418     1.0  0.81707  0.40268  0.55969  1.0000
  C   C4419     1.0  0.80576  0.40896  0.56541  1.0000
  C   C4420     1.0  0.79752  0.40240  0.57418  1.0000
  H   H7538     1.0  0.81362  0.37322  0.57292  1.0000
  H   H7539     1.0  0.82831  0.38486  0.55767  1.0000
  H   H7540     1.0  0.80345  0.41891  0.56327  1.0000
  H   H7541     1.0  0.78901  0.40738  0.57881  1.0000
  C   C4421     1.0  0.89378  0.37984  0.70439  1.0000
  C   C4422     1.0  0.88554  0.37244  0.71173  1.0000
  C   C4423     1.0  0.87846  0.36788  0.70625  1.0000
  C   C4424     1.0  0.87938  0.37085  0.69341  1.0000
  C   C4425     1.0  0.88768  0.37820  0.68608  1.0000
  C   C4426     1.0  0.89487  0.38260  0.69155  1.0000
  H   H7542     1.0  0.88465  0.37019  0.72163  1.0000
  H   H7543     1.0  0.87218  0.36210  0.71200  1.0000
  H   H7544     1.0  0.88866  0.38036  0.67618  1.0000
  H   H7545     1.0  0.90130  0.38822  0.68578  1.0000
  C   C4427     1.0  0.75650  0.37221  0.56445  1.0000
  N   N314      1.0  0.85961  0.41122  0.69224  1.0000
  H   H7546     1.0  0.82221  0.45394  0.54494  1.0000
  N   N315      1.0  0.87411  0.34160  0.54990  1.0000
  C   C4428     1.0  0.88159  0.33990  0.53730  1.0000
  C   C4429     1.0  0.87869  0.35119  0.55331  1.0000
  C   C4430     1.0  0.86080  0.34651  0.54886  1.0000
  C   C4431     1.0  0.87568  0.32930  0.55878  1.0000
  C   C4432     1.0  0.87729  0.33196  0.53093  1.0000
  C   C4433     1.0  0.89251  0.34807  0.55371  1.0000
  C   C4434     1.0  0.85139  0.34866  0.56078  1.0000
  C   C4435     1.0  0.87333  0.32951  0.57264  1.0000
  H   H7547     1.0  0.88186  0.34895  0.53085  1.0000
  H   H7548     1.0  0.89140  0.33557  0.53769  1.0000
  H   H7549     1.0  0.87353  0.35339  0.56229  1.0000
  H   H7550     1.0  0.87705  0.36012  0.54662  1.0000
  H   H7551     1.0  0.85990  0.35536  0.54193  1.0000
  H   H7552     1.0  0.85733  0.34011  0.54547  1.0000
  H   H7553     1.0  0.86963  0.32361  0.55776  1.0000
  H   H7554     1.0  0.88530  0.32396  0.55649  1.0000
  H   H7555     1.0  0.86893  0.33711  0.52723  1.0000
  H   H7556     1.0  0.88458  0.32979  0.52284  1.0000
  H   H7557     1.0  0.87561  0.32311  0.53708  1.0000
  H   H7558     1.0  0.89546  0.33864  0.55895  1.0000
  H   H7559     1.0  0.89832  0.34926  0.54427  1.0000
  H   H7560     1.0  0.89433  0.35463  0.55829  1.0000
  H   H7561     1.0  0.85369  0.35481  0.56545  1.0000
  H   H7562     1.0  0.85019  0.33981  0.56724  1.0000
  H   H7563     1.0  0.84225  0.35326  0.55844  1.0000
  H   H7564     1.0  0.86881  0.32177  0.57814  1.0000
  H   H7565     1.0  0.86732  0.33796  0.57544  1.0000
  H   H7566     1.0  0.88220  0.32773  0.57564  1.0000
  H   H7567     1.0  0.79671  0.42779  0.60551  1.0000
  H   H7568     1.0  0.80321  0.43982  0.63206  1.0000
  H   H7569     1.0  0.78390  0.44866  0.62694  1.0000
  C   C4436     1.0  0.80804  0.42840  0.64904  1.0000
  N   N316      1.0  0.78592  0.43851  0.64533  1.0000
  H   H7570     1.0  0.78647  0.38731  0.55230  1.0000
  C   C4437     1.0  0.81272  0.37714  0.60514  1.0000
  H   H7571     1.0  0.87136  0.46310  0.65376  1.0000
  C   C4438     1.0  0.79913  0.43320  0.64001  1.0000
  C   C4439     1.0  0.87271  0.35481  0.49853  1.0000
  S   S1276     1.0  0.81149  0.46115  0.61251  1.0000
  H   H7572     1.0  0.81132  0.43615  0.61205  1.0000
  H   H7573     1.0  0.80237  0.45568  0.64119  1.0000
  C   C4440     1.0  0.79224  0.45921  0.64262  1.0000
  H   H7574     1.0  0.84132  0.41148  0.70389  1.0000
  H   H7575     1.0  0.80768  0.41878  0.65401  1.0000
  H   H7576     1.0  0.81762  0.42867  0.64379  1.0000
  H   H7577     1.0  0.76914  0.39514  0.56746  1.0000
  C   C4441     1.0  0.81875  0.38973  0.61582  1.0000
  H   H7578     1.0  0.80962  0.43542  0.56641  1.0000
  N   N317      1.0  0.82413  0.44522  0.56382  1.0000
  H   H7579     1.0  0.86840  0.33080  0.66929  1.0000
  C   C4442     1.0  0.82769  0.44579  0.55012  1.0000
  H   H7580     1.0  0.76088  0.43616  0.65490  1.0000
  H   H7581     1.0  0.77528  0.45423  0.65318  1.0000
  C   C4443     1.0  0.81087  0.44395  0.56837  1.0000
  H   H7582     1.0  0.79965  0.42527  0.63592  1.0000
  C   C4444     1.0  0.78507  0.44934  0.65084  1.0000
  H   H7583     1.0  0.79891  0.36579  0.61303  1.0000
  H   H7584     1.0  0.79017  0.46712  0.64721  1.0000
  H   H7585     1.0  0.78950  0.46286  0.63357  1.0000
  H   H7586     1.0  0.86015  0.41062  0.67343  1.0000
  C   C4445     1.0  0.84140  0.44591  0.54420  1.0000
  H   H7587     1.0  0.86864  0.39731  0.68142  1.0000
  H   H7588     1.0  0.83565  0.39732  0.61160  1.0000
  H   H7589     1.0  0.88002  0.45350  0.57941  1.0000
  H   H7590     1.0  0.84494  0.45244  0.54728  1.0000
  C   C4446     1.0  0.85960  0.39859  0.48729  1.0000
  C   C4447     1.0  0.83081  0.36881  0.61518  1.0000
  H   H7591     1.0  0.83394  0.37818  0.58977  1.0000
  H   H7592     1.0  0.76917  0.42790  0.63713  1.0000
  H   H7593     1.0  0.78166  0.42029  0.65165  1.0000
  C   C4448     1.0  0.86374  0.42585  0.60424  1.0000
  H   H7594     1.0  0.86350  0.33577  0.68883  1.0000
  H   H7595     1.0  0.89696  0.40544  0.61515  1.0000
  N   N318      1.0  0.84358  0.34284  0.69100  1.0000
  C   C4449     1.0  0.87222  0.48168  0.64311  1.0000
  H   H7596     1.0  0.82595  0.35365  0.61018  1.0000
  H   H7597     1.0  0.86112  0.34345  0.70491  1.0000
  H   H7598     1.0  0.80634  0.43420  0.65586  1.0000
  Fe  Fe638     1.0  0.75222  0.40483  0.61097  1.0000
  H   H7599     1.0  0.92416  0.37251  0.72088  1.0000
  H   H7600     1.0  0.84730  0.43655  0.54609  1.0000
  C   C4450     1.0  0.86626  0.40749  0.68020  1.0000
  H   H7601     1.0  0.84184  0.43373  0.56662  1.0000
  C   C4451     1.0  0.87413  0.46769  0.64398  1.0000
  H   H7602     1.0  0.81252  0.38630  0.62448  1.0000
  C   C4452     1.0  0.82679  0.39753  0.58892  1.0000
  H   H7603     1.0  0.83606  0.45456  0.56809  1.0000
  C   C4453     1.0  0.82362  0.46885  0.55875  1.0000
  H   H7604     1.0  0.81287  0.39802  0.61116  1.0000
  H   H7605     1.0  0.81677  0.47000  0.55315  1.0000
  H   H7606     1.0  0.76397  0.42420  0.66784  1.0000
  H   H7607     1.0  0.84250  0.44874  0.53404  1.0000
  H   H7608     1.0  0.83075  0.42535  0.56709  1.0000
  H   H7609     1.0  0.83960  0.37070  0.61586  1.0000
  H   H7610     1.0  0.81738  0.34720  0.69517  1.0000
  H   H7611     1.0  0.85175  0.42772  0.69965  1.0000
  H   H7612     1.0  0.96407  0.34617  0.72842  1.0000
  H   H7613     1.0  0.93396  0.38930  0.71146  1.0000
  C   C4454     1.0  0.80105  0.45468  0.56335  1.0000
  H   H7614     1.0  0.79188  0.45212  0.56705  1.0000
  H   H7615     1.0  0.83594  0.32728  0.69176  1.0000
  H   H7616     1.0  0.82597  0.36647  0.62496  1.0000
  H   H7617     1.0  0.84103  0.38478  0.59760  1.0000
  Fe  Fe639     1.0  0.82783  0.47029  0.60321  1.0000
  C   C4455     1.0  0.83191  0.43355  0.56982  1.0000
  H   H7618     1.0  0.82004  0.47604  0.56439  1.0000
  H   H7619     1.0  0.85421  0.33943  0.66519  1.0000
  H   H7620     1.0  0.93103  0.34787  0.71235  1.0000
  H   H7621     1.0  0.80243  0.45660  0.55319  1.0000
  H   H7622     1.0  0.78071  0.37399  0.55352  1.0000
  C   C4456     1.0  0.82962  0.43082  0.58402  1.0000
  H   H7623     1.0  0.76983  0.44911  0.63781  1.0000
  Fe  Fe640     1.0  0.90138  0.38457  0.73125  1.0000
  C   C4457     1.0  0.78070  0.42865  0.65526  1.0000
  C   C4458     1.0  0.80343  0.37154  0.61616  1.0000
  H   H7624     1.0  0.82076  0.42781  0.58828  1.0000
  C   C4459     1.0  0.84777  0.39340  0.69945  1.0000
  H   H7625     1.0  0.89131  0.47851  0.60710  1.0000
  H   H7626     1.0  0.84013  0.34972  0.61533  1.0000
  H   H7627     1.0  0.78603  0.42544  0.66274  1.0000
  H   H7628     1.0  0.84961  0.40196  0.48736  1.0000
  C   C4460     1.0  0.88249  0.47858  0.61400  1.0000
  S   S1277     1.0  0.75789  0.41742  0.61975  1.0000
  C   C4461     1.0  0.84730  0.40742  0.69601  1.0000
  C   C4462     1.0  0.82868  0.39395  0.61959  1.0000
  H   H7629     1.0  0.83275  0.39918  0.57963  1.0000
  H   H7630     1.0  0.77193  0.43712  0.62203  1.0000
  H   H7631     1.0  0.80718  0.38565  0.60048  1.0000
  H   H7632     1.0  0.87681  0.42220  0.67102  1.0000
  C   C4463     1.0  0.83186  0.38462  0.59614  1.0000
  C   C4464     1.0  0.85071  0.43294  0.68064  1.0000
  H   H7633     1.0  0.85274  0.38886  0.69165  1.0000
  H   H7634     1.0  0.85846  0.37980  0.48922  1.0000
  H   H7635     1.0  0.80819  0.44293  0.57850  1.0000
  H   H7636     1.0  0.79619  0.37891  0.61994  1.0000
  C   C4465     1.0  0.77604  0.43277  0.63029  1.0000
  H   H7637     1.0  0.82416  0.40165  0.62446  1.0000
  H   H7638     1.0  0.84503  0.36006  0.69430  1.0000
  H   H7639     1.0  0.89963  0.42714  0.60322  1.0000
  C   C4466     1.0  0.83422  0.35714  0.60977  1.0000
  H   H7640     1.0  0.83857  0.35802  0.67622  1.0000
  H   H7641     1.0  0.83337  0.38643  0.62613  1.0000
  C   C4467     1.0  0.82625  0.45611  0.56745  1.0000
  H   H7642     1.0  0.91689  0.35896  0.71205  1.0000
  C   C4468     1.0  0.85743  0.42496  0.69098  1.0000
  C   C4469     1.0  0.76707  0.43247  0.66155  1.0000
  H   H7643     1.0  0.84320  0.36174  0.51431  1.0000
  C   C4470     1.0  0.92493  0.35547  0.71660  1.0000
  H   H7644     1.0  0.84816  0.33809  0.71621  1.0000
  H   H7645     1.0  0.86833  0.46518  0.63912  1.0000
  H   H7646     1.0  0.94288  0.34398  0.72744  1.0000
  H   H7647     1.0  0.85924  0.34963  0.67869  1.0000
  H   H7648     1.0  0.80043  0.46309  0.56668  1.0000
  H   H7649     1.0  0.88255  0.40823  0.66551  1.0000
  H   H7650     1.0  0.76512  0.38188  0.58649  1.0000
  H   H7651     1.0  0.84129  0.43129  0.68205  1.0000
  H   H7652     1.0  0.78439  0.42588  0.62749  1.0000
  C   C4471     1.0  0.82148  0.35455  0.68826  1.0000
  H   H7653     1.0  0.83234  0.47116  0.55269  1.0000
  C   C4472     1.0  0.85122  0.34594  0.70916  1.0000
  C   C4473     1.0  0.94286  0.38672  0.71453  1.0000
  Fe  Fe641     1.0  0.84899  0.47293  0.58132  1.0000
  H   H7654     1.0  0.85194  0.38875  0.70759  1.0000
  H   H7655     1.0  0.80772  0.36531  0.62368  1.0000
  H   H7656     1.0  0.89678  0.43483  0.57974  1.0000
  N   N319      1.0  0.75806  0.38143  0.57087  1.0000
  H   H7657     1.0  0.76482  0.35536  0.58889  1.0000
  C   C4474     1.0  0.89038  0.42469  0.60571  1.0000
  C   C4475     1.0  0.77010  0.36280  0.58465  1.0000
  H   H7658     1.0  0.83958  0.35871  0.60017  1.0000
  H   H7659     1.0  0.86812  0.40123  0.72103  1.0000
  C   C4476     1.0  0.93118  0.36628  0.71532  1.0000
  H   H7660     1.0  0.83820  0.39184  0.70183  1.0000
  H   H7661     1.0  0.82686  0.40485  0.59351  1.0000
  H   H7662     1.0  0.81740  0.39854  0.58748  1.0000
  H   H7663     1.0  0.82049  0.36256  0.69240  1.0000
  S   S1278     1.0  0.85629  0.46959  0.56202  1.0000
  H   H7664     1.0  0.81566  0.37119  0.59820  1.0000
  C   C4477     1.0  0.77884  0.44291  0.63507  1.0000
  H   H7665     1.0  0.87623  0.40825  0.69923  1.0000
  H   H7666     1.0  0.82073  0.45702  0.57683  1.0000
  C   C4478     1.0  0.85836  0.33353  0.67303  1.0000
  N   N320      1.0  0.82354  0.38006  0.60810  1.0000
  C   C4479     1.0  0.85647  0.34067  0.68326  1.0000
  H   H7667     1.0  0.87824  0.34979  0.49153  1.0000
  C   C4480     1.0  0.88070  0.44631  0.58796  1.0000
  H   H7668     1.0  0.85594  0.43156  0.67136  1.0000
  H   H7669     1.0  0.85268  0.31341  0.69749  1.0000
  C   C4481     1.0  0.76767  0.38848  0.56274  1.0000
  H   H7670     1.0  0.76447  0.39407  0.55421  1.0000
  H   H7671     1.0  0.95352  0.37276  0.72614  1.0000
  H   H7672     1.0  0.77588  0.36219  0.59126  1.0000
  H   H7673     1.0  0.85691  0.32305  0.70520  1.0000
  H   H7674     1.0  0.85774  0.41972  0.61072  1.0000
  H   H7675     1.0  0.86061  0.39735  0.49692  1.0000
  H   H7676     1.0  0.83134  0.33293  0.70559  1.0000
  H   H7677     1.0  0.88084  0.48301  0.64483  1.0000
  H   H7678     1.0  0.88327  0.46940  0.62015  1.0000
  C   C4482     1.0  0.94442  0.37417  0.72370  1.0000
  H   H7679     1.0  0.85847  0.43211  0.59739  1.0000
  H   H7680     1.0  0.88814  0.36032  0.50153  1.0000
  H   H7681     1.0  0.89755  0.40338  0.59661  1.0000
  H   H7682     1.0  0.87635  0.40847  0.60352  1.0000
  C   C4483     1.0  0.95406  0.36126  0.70857  1.0000
  H   H7683     1.0  0.87309  0.41692  0.58932  1.0000
  H   H7684     1.0  0.88607  0.44917  0.59309  1.0000
  H   H7685     1.0  0.95326  0.36923  0.70067  1.0000
  H   H7686     1.0  0.95681  0.34112  0.71039  1.0000
  H   H7687     1.0  0.85043  0.35330  0.71413  1.0000
  H   H7688     1.0  0.78529  0.37662  0.56653  1.0000
  C   C4484     1.0  0.84288  0.35099  0.69965  1.0000
  C   C4485     1.0  0.84909  0.32034  0.70342  1.0000
  H   H7689     1.0  0.94782  0.35048  0.69903  1.0000
  C   C4486     1.0  0.94385  0.35232  0.72993  1.0000
  H   H7690     1.0  0.76499  0.36510  0.56277  1.0000
  C   C4487     1.0  0.95559  0.34978  0.70337  1.0000
  H   H7691     1.0  0.84967  0.44282  0.68065  1.0000
  N   N321      1.0  0.94343  0.36325  0.71926  1.0000
  C   C4488     1.0  0.83505  0.34987  0.68231  1.0000
  H   H7692     1.0  0.85288  0.40327  0.71873  1.0000
  S   S1279     1.0  0.83649  0.47762  0.61450  1.0000
  H   H7693     1.0  0.83472  0.34414  0.67599  1.0000
  H   H7694     1.0  0.95060  0.38699  0.70642  1.0000
  H   H7695     1.0  0.89288  0.41662  0.62446  1.0000
  H   H7696     1.0  0.86551  0.43124  0.61001  1.0000
  S   S1280     1.0  0.85965  0.48035  0.59063  1.0000
  H   H7697     1.0  0.88289  0.43293  0.57717  1.0000
  C   C4489     1.0  0.87838  0.41203  0.67396  1.0000
  H   H7698     1.0  0.88529  0.40878  0.67988  1.0000
  H   H7699     1.0  0.86629  0.42794  0.68956  1.0000
  H   H7700     1.0  0.93743  0.37530  0.73229  1.0000
  H   H7701     1.0  0.93192  0.37153  0.70561  1.0000
  H   H7702     1.0  0.77653  0.36073  0.57612  1.0000
  C   C4490     1.0  0.87540  0.41794  0.59775  1.0000
  H   H7703     1.0  0.86001  0.41642  0.71576  1.0000
  H   H7704     1.0  0.94291  0.39402  0.71923  1.0000
  C   C4491     1.0  0.89025  0.41394  0.61705  1.0000
  C   C4492     1.0  0.78066  0.38092  0.55865  1.0000
  H   H7705     1.0  0.92124  0.35171  0.72643  1.0000
  H   H7706     1.0  0.88397  0.46365  0.64060  1.0000
  C   C4493     1.0  0.83936  0.33105  0.69794  1.0000
  H   H7707     1.0  0.88398  0.43275  0.60900  1.0000
  H   H7708     1.0  0.84451  0.31538  0.71241  1.0000
  H   H7709     1.0  0.82994  0.43876  0.58764  1.0000
  S   S1281     1.0  0.85248  0.34785  0.49526  1.0000
  H   H7710     1.0  0.83338  0.35308  0.70522  1.0000
  N   N322      1.0  0.88733  0.42239  0.59462  1.0000
  H   H7711     1.0  0.90496  0.40192  0.57536  1.0000
  C   C4494     1.0  0.89759  0.41236  0.58996  1.0000
  H   H7712     1.0  0.81596  0.35792  0.68095  1.0000
  H   H7713     1.0  0.86516  0.48408  0.65130  1.0000
  H   H7714     1.0  0.90678  0.41447  0.58902  1.0000
  H   H7715     1.0  0.89918  0.41781  0.56968  1.0000
  C   C4495     1.0  0.89744  0.40990  0.57738  1.0000
  H   H7716     1.0  0.88089  0.41189  0.62080  1.0000
  C   C4496     1.0  0.88718  0.43380  0.58443  1.0000
  H   H7717     1.0  0.88873  0.40747  0.57728  1.0000
  H   H7718     1.0  0.96293  0.36076  0.71110  1.0000
  H   H7719     1.0  0.87122  0.44640  0.59330  1.0000
  H   H7720     1.0  0.85459  0.32503  0.67644  1.0000
  H   H7721     1.0  0.87025  0.39490  0.70198  1.0000
  C   C4497     1.0  0.76125  0.37558  0.58334  1.0000
  H   H7722     1.0  0.75113  0.40816  0.57125  1.0000
  H   H7723     1.0  0.85984  0.47890  0.62582  1.0000
  H   H7724     1.0  0.74880  0.39862  0.58667  1.0000
  H   H7725     1.0  0.75472  0.37687  0.55509  1.0000
  H   H7726     1.0  0.87518  0.48006  0.60875  1.0000
  H   H7727     1.0  0.84726  0.48292  0.64679  1.0000
  H   H7728     1.0  0.75273  0.37420  0.59028  1.0000
  C   C4498     1.0  0.85821  0.48809  0.62803  1.0000
  H   H7729     1.0  0.87350  0.38212  0.48633  1.0000
  S   S1282     1.0  0.83093  0.48582  0.58685  1.0000
  H   H7730     1.0  0.83891  0.48692  0.63475  1.0000
  H   H7731     1.0  0.88902  0.48814  0.62397  1.0000
  C   C4499     1.0  0.84618  0.48932  0.63790  1.0000
  C   C4500     1.0  0.88035  0.48908  0.62083  1.0000
  H   H7732     1.0  0.85427  0.10937  0.91589  1.0000
  C   C4501     1.0  0.76063  0.14684  0.89520  1.0000
  Fe  Fe642     1.0  0.91687  0.37662  0.75152  1.0000
  S   S1283     1.0  0.90113  0.38452  0.76526  1.0000
  S   S1284     1.0  0.93431  0.36543  0.75807  1.0000
  Fe  Fe643     1.0  0.88967  0.37616  0.75800  1.0000
  S   S1285     1.0  0.87671  0.36525  0.77194  1.0000
  Fe  Fe644     1.0  0.89767  0.40052  0.74980  1.0000
  S   S1286     1.0  0.89528  0.41939  0.75327  1.0000
  H   H7733     1.0  0.77305  0.13433  0.81967  1.0000
  H   H7734     1.0  0.91824  0.35036  0.87473  1.0000
  Fe  Fe645     1.0  0.96237  0.38079  0.82851  1.0000
  S   S1287     1.0  0.97562  0.38923  0.81240  1.0000
  S   S1288     1.0  0.94763  0.39110  0.84155  1.0000
  Fe  Fe646     1.0  0.97125  0.35554  0.82231  1.0000
  S   S1289     1.0  0.98504  0.36193  0.80559  1.0000
  S   S1290     1.0  0.96889  0.33589  0.82819  1.0000
  H   H7735     1.0  0.99199  0.10975  0.88454  1.0000
  Fe  Fe647     1.0  0.96982  0.37842  0.80182  1.0000
  S   S1291     1.0  0.96363  0.38803  0.78377  1.0000
  S   S1292     1.0  0.97660  0.36437  0.83480  1.0000
  S   S1293     1.0  0.95577  0.37113  0.81770  1.0000
  Fe  Fe648     1.0  0.86783  0.43011  0.81650  1.0000
  S   S1294     1.0  0.85764  0.43362  0.83518  1.0000
  S   S1295     1.0  0.85850  0.42559  0.80376  1.0000
  Fe  Fe649     1.0  0.89231  0.43189  0.82055  1.0000
  S   S1296     1.0  0.88442  0.43534  0.83960  1.0000
  S   S1297     1.0  0.91202  0.43155  0.81096  1.0000
  Fe  Fe650     1.0  0.87414  0.42050  0.84159  1.0000
  S   S1298     1.0  0.87291  0.40514  0.85829  1.0000
  Fe  Fe651     1.0  0.86883  0.44815  0.83141  1.0000
  S   S1299     1.0  0.86194  0.46826  0.83238  1.0000
  S   S1300     1.0  0.88348  0.41591  0.82323  1.0000
  S   S1301     1.0  0.87757  0.44572  0.81208  1.0000
  Fe  Fe652     1.0  0.89788  0.32770  0.82878  1.0000
  S   S1302     1.0  0.87825  0.32609  0.83736  1.0000
  S   S1303     1.0  0.90771  0.32778  0.80919  1.0000
  Fe  Fe653     1.0  0.90378  0.32836  0.85276  1.0000
  S   S1304     1.0  0.88475  0.32689  0.86337  1.0000
  S   S1305     1.0  0.91804  0.32790  0.86308  1.0000
  Fe  Fe654     1.0  0.88618  0.31252  0.85280  1.0000
  S   S1306     1.0  0.88328  0.29364  0.86367  1.0000
  Fe  Fe655     1.0  0.87870  0.34060  0.84712  1.0000
  S   S1307     1.0  0.86277  0.35652  0.85016  1.0000
  S   S1308     1.0  0.90583  0.31304  0.84333  1.0000
  S   S1309     1.0  0.89775  0.34324  0.83729  1.0000
  H   H7736     1.0  0.79031  0.19404  0.92638  1.0000
  Fe  Fe656     1.0  0.83409  0.16454  0.94937  1.0000
  S   S1310     1.0  0.84795  0.15538  0.93508  1.0000
  S   S1311     1.0  0.82378  0.18403  0.94456  1.0000
  Fe  Fe657     1.0  0.83753  0.14213  0.97014  1.0000
  S   S1312     1.0  0.85164  0.13101  0.95748  1.0000
  H   H7737     1.0  0.90846  0.37186  0.83544  1.0000
  Fe  Fe658     1.0  0.85922  0.14815  0.94967  1.0000
  S   S1313     1.0  0.87964  0.14670  0.94663  1.0000
  Fe  Fe659     1.0  0.83902  0.13917  0.94410  1.0000
  S   S1314     1.0  0.83662  0.12770  0.93206  1.0000
  S   S1315     1.0  0.84613  0.15874  0.96334  1.0000
  S   S1316     1.0  0.82415  0.14888  0.95738  1.0000
  Fe  Fe660     1.0  0.84565  0.24638  0.86442  1.0000
  S   S1317     1.0  0.84107  0.23463  0.85405  1.0000
  S   S1318     1.0  0.84473  0.26677  0.85652  1.0000
  Fe  Fe661     1.0  0.84957  0.22508  0.88611  1.0000
  S   S1319     1.0  0.84564  0.21141  0.87765  1.0000
  S   S1320     1.0  0.85368  0.22106  0.90498  1.0000
  Fe  Fe662     1.0  0.85697  0.22055  0.86033  1.0000
  S   S1321     1.0  0.86986  0.20869  0.84775  1.0000
  Fe  Fe663     1.0  0.83007  0.22655  0.87216  1.0000
  S   S1322     1.0  0.81094  0.22358  0.87436  1.0000
  S   S1323     1.0  0.86253  0.23284  0.86928  1.0000
  S   S1324     1.0  0.83303  0.23962  0.88203  1.0000
  Fe  Fe664     1.0  0.90017  0.14118  0.86234  1.0000
  S   S1325     1.0  0.89622  0.14705  0.88032  1.0000
  S   S1326     1.0  0.88461  0.14580  0.85214  1.0000
  Fe  Fe665     1.0  0.92812  0.13377  0.86137  1.0000
  S   S1327     1.0  0.92622  0.13905  0.87929  1.0000
  S   S1328     1.0  0.94709  0.12783  0.85018  1.0000
  Fe  Fe666     1.0  0.91002  0.12988  0.88559  1.0000
  S   S1329     1.0  0.90778  0.11775  0.90439  1.0000
  Fe  Fe667     1.0  0.91275  0.15558  0.87217  1.0000
  S   S1330     1.0  0.91219  0.17464  0.87400  1.0000
  S   S1331     1.0  0.91284  0.12313  0.86818  1.0000
  S   S1332     1.0  0.91585  0.15106  0.85371  1.0000
  Fe  Fe668     1.0  0.79749  0.14645  0.88679  1.0000
  S   S1333     1.0  0.80083  0.12937  0.87937  1.0000
  S   S1334     1.0  0.79052  0.14759  0.90671  1.0000
  Fe  Fe669     1.0  0.80532  0.16227  0.86173  1.0000
  S   S1335     1.0  0.80917  0.14659  0.85211  1.0000
  S   S1336     1.0  0.80816  0.18093  0.85057  1.0000
  Fe  Fe670     1.0  0.79147  0.14179  0.86424  1.0000
  S   S1337     1.0  0.77503  0.14038  0.85725  1.0000
  Fe  Fe671     1.0  0.81820  0.13572  0.86794  1.0000
  S   S1338     1.0  0.83701  0.12311  0.86478  1.0000
  S   S1339     1.0  0.78699  0.15853  0.87261  1.0000
  S   S1340     1.0  0.81547  0.15177  0.87666  1.0000
  S   S1341     1.0  0.97944  0.16810  0.83830  1.0000
  H   H7738     1.0  0.88195  0.12342  0.89731  1.0000
  H   H7739     1.0  0.94105  0.35703  0.87404  1.0000
  H   H7740     1.0  0.81535  0.29734  0.91166  1.0000
  C   C4502     1.0  0.76834  0.12811  0.85719  1.0000
  H   H7741     1.0  0.97457  0.15410  0.87549  1.0000
  H   H7742     1.0  0.89628  0.38448  0.86600  1.0000
  C   C4503     1.0  0.75666  0.10928  0.85690  1.0000
  C   C4504     1.0  0.76887  0.10645  0.85863  1.0000
  C   C4505     1.0  0.77467  0.11580  0.85888  1.0000
  H   H7743     1.0  0.90340  0.39503  0.85317  1.0000
  C   C4506     1.0  0.80927  0.28131  0.88300  1.0000
  H   H7744     1.0  0.77388  0.09697  0.85977  1.0000
  H   H7745     1.0  0.78406  0.11350  0.86022  1.0000
  C   C4507     1.0  0.95595  0.13919  0.84639  1.0000
  C   C4508     1.0  0.96745  0.13779  0.83826  1.0000
  C   C4509     1.0  0.97474  0.14667  0.83559  1.0000
  C   C4510     1.0  0.97053  0.15694  0.84107  1.0000
  C   C4511     1.0  0.95910  0.15825  0.84926  1.0000
  C   C4512     1.0  0.95179  0.14946  0.85185  1.0000
  H   H7746     1.0  0.97071  0.12986  0.83400  1.0000
  H   H7747     1.0  0.98352  0.14562  0.82918  1.0000
  H   H7748     1.0  0.95601  0.16595  0.85384  1.0000
  H   H7749     1.0  0.94301  0.15056  0.85823  1.0000
  C   C4513     1.0  0.87204  0.13832  0.85777  1.0000
  C   C4514     1.0  0.86083  0.14430  0.86406  1.0000
  C   C4515     1.0  0.85000  0.13979  0.86619  1.0000
  C   C4516     1.0  0.85035  0.12916  0.86220  1.0000
  C   C4517     1.0  0.86167  0.12295  0.85631  1.0000
  C   C4518     1.0  0.87244  0.12757  0.85399  1.0000
  H   H7750     1.0  0.86042  0.15271  0.86685  1.0000
  H   H7751     1.0  0.84140  0.14456  0.87091  1.0000
  H   H7752     1.0  0.86205  0.11471  0.85321  1.0000
  H   H7753     1.0  0.88098  0.12306  0.84885  1.0000
  C   C4519     1.0  0.81019  0.21144  0.86811  1.0000
  C   C4520     1.0  0.80031  0.21265  0.86258  1.0000
  C   C4521     1.0  0.79953  0.20309  0.85752  1.0000
  C   C4522     1.0  0.80823  0.19200  0.85858  1.0000
  C   C4523     1.0  0.81777  0.19052  0.86468  1.0000
  C   C4524     1.0  0.81898  0.20038  0.86910  1.0000
  H   H7754     1.0  0.79346  0.22117  0.86184  1.0000
  H   H7755     1.0  0.79221  0.20434  0.85270  1.0000
  H   H7756     1.0  0.82443  0.18192  0.86561  1.0000
  H   H7757     1.0  0.82655  0.19937  0.87349  1.0000
  C   C4525     1.0  0.88166  0.19949  0.85508  1.0000
  C   C4526     1.0  0.88570  0.18718  0.85410  1.0000
  C   C4527     1.0  0.89474  0.17953  0.86032  1.0000
  C   C4528     1.0  0.90028  0.18426  0.86702  1.0000
  C   C4529     1.0  0.89639  0.19665  0.86791  1.0000
  C   C4530     1.0  0.88692  0.20423  0.86208  1.0000
  H   H7758     1.0  0.88171  0.18343  0.84875  1.0000
  H   H7759     1.0  0.89736  0.16996  0.85985  1.0000
  H   H7760     1.0  0.90066  0.20036  0.87308  1.0000
  H   H7761     1.0  0.88390  0.21380  0.86275  1.0000
  C   C4531     1.0  0.83276  0.19376  0.93362  1.0000
  C   C4532     1.0  0.83721  0.19197  0.92152  1.0000
  C   C4533     1.0  0.84326  0.20059  0.91255  1.0000
  C   C4534     1.0  0.84545  0.21062  0.91583  1.0000
  C   C4535     1.0  0.84142  0.21211  0.92802  1.0000
  C   C4536     1.0  0.83483  0.20387  0.93682  1.0000
  H   H7762     1.0  0.83580  0.18408  0.91903  1.0000
  H   H7763     1.0  0.84645  0.19935  0.90318  1.0000
  H   H7764     1.0  0.84314  0.21981  0.93061  1.0000
  H   H7765     1.0  0.83138  0.20530  0.94615  1.0000
  C   C4537     1.0  0.82324  0.13279  0.92585  1.0000
  C   C4538     1.0  0.81329  0.14164  0.93030  1.0000
  C   C4539     1.0  0.80292  0.14573  0.92482  1.0000
  C   C4540     1.0  0.80275  0.14142  0.91453  1.0000
  C   C4541     1.0  0.81266  0.13254  0.91017  1.0000
  C   C4542     1.0  0.82267  0.12799  0.91606  1.0000
  H   H7766     1.0  0.81354  0.14524  0.93799  1.0000
  H   H7767     1.0  0.79518  0.15247  0.92835  1.0000
  H   H7768     1.0  0.81253  0.12904  0.90235  1.0000
  H   H7769     1.0  0.83004  0.12078  0.91297  1.0000
  C   C4543     1.0  0.88752  0.13883  0.93478  1.0000
  C   C4544     1.0  0.88296  0.14123  0.92405  1.0000
  C   C4545     1.0  0.88961  0.13532  0.91438  1.0000
  C   C4546     1.0  0.90028  0.12628  0.91580  1.0000
  C   C4547     1.0  0.90471  0.12371  0.92662  1.0000
  C   C4548     1.0  0.89854  0.13026  0.93595  1.0000
  H   H7770     1.0  0.87445  0.14784  0.92311  1.0000
  H   H7771     1.0  0.88628  0.13747  0.90600  1.0000
  H   H7772     1.0  0.91301  0.11678  0.92772  1.0000
  H   H7773     1.0  0.90219  0.12846  0.94413  1.0000
  H   H7774     1.0  0.80552  0.28988  0.90744  1.0000
  H   H7775     1.0  0.95680  0.31087  0.82291  1.0000
  H   H7776     1.0  0.91325  0.35600  0.85452  1.0000
  H   H7777     1.0  0.86648  0.10108  0.89098  1.0000
  H   H7778     1.0  0.83868  0.25786  0.91123  1.0000
  C   C4549     1.0  0.87334  0.28603  0.86049  1.0000
  C   C4550     1.0  0.87345  0.27365  0.86631  1.0000
  C   C4551     1.0  0.86514  0.26745  0.86464  1.0000
  C   C4552     1.0  0.85650  0.27368  0.85731  1.0000
  C   C4553     1.0  0.85650  0.28602  0.85136  1.0000
  C   C4554     1.0  0.86495  0.29218  0.85288  1.0000
  H   H7779     1.0  0.87989  0.26884  0.87223  1.0000
  H   H7780     1.0  0.86520  0.25797  0.86931  1.0000
  H   H7781     1.0  0.84981  0.29090  0.84570  1.0000
  H   H7782     1.0  0.86477  0.30174  0.84840  1.0000
  C   C4555     1.0  0.86397  0.47435  0.84408  1.0000
  H   H7783     1.0  0.77394  0.09876  0.81828  1.0000
  H   H7784     1.0  0.81520  0.26670  0.89760  1.0000
  C   C4556     1.0  0.89722  0.46656  0.81726  1.0000
  C   C4557     1.0  0.86354  0.47340  0.86553  1.0000
  C   C4558     1.0  0.86324  0.46767  0.85621  1.0000
  H   H7785     1.0  0.83765  0.17033  0.85097  1.0000
  H   H7786     1.0  0.84896  0.17444  0.86385  1.0000
  H   H7787     1.0  0.86263  0.46832  0.87498  1.0000
  H   H7788     1.0  0.86205  0.45824  0.85847  1.0000
  C   C4559     1.0  0.87014  0.39192  0.85541  1.0000
  C   C4560     1.0  0.87966  0.38397  0.84913  1.0000
  C   C4561     1.0  0.87768  0.37281  0.84790  1.0000
  C   C4562     1.0  0.86599  0.36985  0.85246  1.0000
  C   C4563     1.0  0.85641  0.37801  0.85840  1.0000
  C   C4564     1.0  0.85853  0.38889  0.86007  1.0000
  H   H7789     1.0  0.88858  0.38640  0.84538  1.0000
  H   H7790     1.0  0.88507  0.36668  0.84315  1.0000
  H   H7791     1.0  0.84734  0.37583  0.86189  1.0000
  H   H7792     1.0  0.85116  0.39498  0.86497  1.0000
  C   C4565     1.0  0.95475  0.33445  0.83827  1.0000
  C   C4566     1.0  0.94370  0.34182  0.83527  1.0000
  C   C4567     1.0  0.93236  0.33929  0.84243  1.0000
  C   C4568     1.0  0.93208  0.33031  0.85332  1.0000
  C   C4569     1.0  0.94312  0.32344  0.85671  1.0000
  C   C4570     1.0  0.95444  0.32520  0.84896  1.0000
  H   H7793     1.0  0.94393  0.34910  0.82714  1.0000
  H   H7794     1.0  0.92387  0.34449  0.83967  1.0000
  H   H7795     1.0  0.94295  0.31660  0.86520  1.0000
  H   H7796     1.0  0.96298  0.31954  0.85133  1.0000
  C   C4571     1.0  0.93825  0.40329  0.83325  1.0000
  C   C4572     1.0  0.92666  0.40885  0.83927  1.0000
  C   C4573     1.0  0.91851  0.41748  0.83245  1.0000
  C   C4574     1.0  0.92222  0.42114  0.81970  1.0000
  C   C4575     1.0  0.93408  0.41621  0.81379  1.0000
  C   C4576     1.0  0.94198  0.40710  0.82052  1.0000
  H   H7797     1.0  0.92389  0.40636  0.84916  1.0000
  H   H7798     1.0  0.90941  0.42133  0.83710  1.0000
  H   H7799     1.0  0.93704  0.41908  0.80393  1.0000
  H   H7800     1.0  0.95093  0.40297  0.81580  1.0000
  C   C4577     1.0  0.94227  0.37195  0.76519  1.0000
  C   C4578     1.0  0.94334  0.38429  0.76127  1.0000
  C   C4579     1.0  0.95018  0.38900  0.76685  1.0000
  C   C4580     1.0  0.95567  0.38155  0.77663  1.0000
  C   C4581     1.0  0.95454  0.36922  0.78057  1.0000
  C   C4582     1.0  0.94806  0.36442  0.77470  1.0000
  H   H7801     1.0  0.93906  0.39015  0.75383  1.0000
  H   H7802     1.0  0.95109  0.39853  0.76370  1.0000
  H   H7803     1.0  0.95884  0.36339  0.78801  1.0000
  H   H7804     1.0  0.94745  0.35487  0.77754  1.0000
  C   C4583     1.0  0.88530  0.35412  0.78191  1.0000
  C   C4584     1.0  0.87940  0.34670  0.79231  1.0000
  C   C4585     1.0  0.88623  0.33848  0.80075  1.0000
  C   C4586     1.0  0.89899  0.33757  0.79864  1.0000
  C   C4587     1.0  0.90491  0.34468  0.78802  1.0000
  C   C4588     1.0  0.89807  0.35297  0.77974  1.0000
  H   H7805     1.0  0.86955  0.34739  0.79391  1.0000
  H   H7806     1.0  0.88165  0.33285  0.80884  1.0000
  H   H7807     1.0  0.91476  0.34398  0.78625  1.0000
  H   H7808     1.0  0.90277  0.35845  0.77167  1.0000
  C   C4589     1.0  0.88454  0.42161  0.76689  1.0000
  C   C4590     1.0  0.87532  0.41472  0.77168  1.0000
  C   C4591     1.0  0.86692  0.41647  0.78270  1.0000
  C   C4592     1.0  0.86811  0.42467  0.78925  1.0000
  C   C4593     1.0  0.87742  0.43144  0.78452  1.0000
  C   C4594     1.0  0.88546  0.43012  0.77322  1.0000
  H   H7809     1.0  0.87455  0.40817  0.76679  1.0000
  H   H7810     1.0  0.85969  0.41127  0.78628  1.0000
  H   H7811     1.0  0.87837  0.43780  0.78950  1.0000
  H   H7812     1.0  0.89258  0.43547  0.76953  1.0000
  H   H7813     1.0  0.84789  0.12865  0.90495  1.0000
  N   N323      1.0  0.80671  0.18390  0.90753  1.0000
  C   C4595     1.0  0.81918  0.17892  0.90025  1.0000
  C   C4596     1.0  0.80391  0.19775  0.90341  1.0000
  C   C4597     1.0  0.82321  0.16475  0.90223  1.0000
  C   C4598     1.0  0.81176  0.20472  0.90705  1.0000
  H   H7814     1.0  0.81968  0.18252  0.89024  1.0000
  H   H7815     1.0  0.82654  0.18217  0.90239  1.0000
  H   H7816     1.0  0.80524  0.20043  0.89323  1.0000
  H   H7817     1.0  0.79760  0.16897  0.90954  1.0000
  H   H7818     1.0  0.81657  0.16046  0.90020  1.0000
  H   H7819     1.0  0.83212  0.16235  0.89581  1.0000
  H   H7820     1.0  0.82483  0.16051  0.91166  1.0000
  H   H7821     1.0  0.81049  0.20341  0.91717  1.0000
  H   H7822     1.0  0.82167  0.20217  0.90283  1.0000
  H   H7823     1.0  0.80883  0.21476  0.90343  1.0000
  C   C4599     1.0  0.85189  0.38487  0.79326  1.0000
  H   H7824     1.0  0.84699  0.39721  0.81165  1.0000
  H   H7825     1.0  0.84265  0.37709  0.81817  1.0000
  H   H7826     1.0  0.85478  0.38398  0.78347  1.0000
  H   H7827     1.0  0.84488  0.37915  0.79773  1.0000
  H   H7828     1.0  0.84772  0.39473  0.79318  1.0000
  N   N324      1.0  0.91808  0.28727  0.87467  1.0000
  C   C4600     1.0  0.91597  0.28044  0.86604  1.0000
  C   C4601     1.0  0.92687  0.29553  0.86721  1.0000
  C   C4602     1.0  0.90580  0.29522  0.87915  1.0000
  C   C4603     1.0  0.92294  0.27801  0.88520  1.0000
  C   C4604     1.0  0.90839  0.27026  0.87201  1.0000
  C   C4605     1.0  0.93988  0.28901  0.86148  1.0000
  C   C4606     1.0  0.90533  0.30267  0.88866  1.0000
  C   C4607     1.0  0.92989  0.28250  0.89252  1.0000
  H   H7829     1.0  0.91138  0.28701  0.85873  1.0000
  H   H7830     1.0  0.92483  0.27564  0.86110  1.0000
  H   H7831     1.0  0.92818  0.30160  0.87260  1.0000
  H   H7832     1.0  0.92293  0.30208  0.85952  1.0000
  H   H7833     1.0  0.90237  0.30194  0.87122  1.0000
  H   H7834     1.0  0.89861  0.28967  0.88352  1.0000
  H   H7835     1.0  0.91526  0.27410  0.89189  1.0000
  H   H7836     1.0  0.92953  0.27005  0.88169  1.0000
  H   H7837     1.0  0.90688  0.26663  0.86457  1.0000
  H   H7838     1.0  0.91337  0.26237  0.87798  1.0000
  H   H7839     1.0  0.89911  0.27360  0.87729  1.0000
  H   H7840     1.0  0.94609  0.29569  0.85841  1.0000
  H   H7841     1.0  0.94401  0.28110  0.86805  1.0000
  H   H7842     1.0  0.93979  0.28596  0.85312  1.0000
  H   H7843     1.0  0.90671  0.29656  0.89763  1.0000
  H   H7844     1.0  0.89598  0.30861  0.89040  1.0000
  H   H7845     1.0  0.91188  0.30898  0.88537  1.0000
  H   H7846     1.0  0.92695  0.27873  0.90251  1.0000
  H   H7847     1.0  0.92837  0.29258  0.89145  1.0000
  H   H7848     1.0  0.93997  0.27872  0.89020  1.0000
  H   H7849     1.0  0.75083  0.10285  0.80680  1.0000
  C   C4608     1.0  0.81452  0.29280  0.90457  1.0000
  H   H7850     1.0  0.93109  0.44090  0.82351  1.0000
  C   C4609     1.0  0.82531  0.28161  0.90341  1.0000
  H   H7851     1.0  0.76566  0.10612  0.79926  1.0000
  H   H7852     1.0  0.92273  0.47115  0.83409  1.0000
  H   H7853     1.0  0.77373  0.11924  0.82896  1.0000
  H   H7854     1.0  0.94435  0.33492  0.78318  1.0000
  H   H7855     1.0  0.85358  0.20301  0.82201  1.0000
  H   H7856     1.0  0.84914  0.20437  0.83797  1.0000
  H   H7857     1.0  0.95646  0.35551  0.73991  1.0000
  H   H7858     1.0  0.88722  0.47076  0.81925  1.0000
  H   H7859     1.0  0.83489  0.46960  0.85319  1.0000
  C   C4610     1.0  0.75830  0.09028  0.82689  1.0000
  H   H7860     1.0  0.91562  0.38217  0.83913  1.0000
  H   H7861     1.0  0.91932  0.19681  0.85066  1.0000
  H   H7862     1.0  0.94029  0.37333  0.86711  1.0000
  H   H7863     1.0  0.75946  0.08607  0.81890  1.0000
  C   C4611     1.0  0.93089  0.34192  0.81054  1.0000
  C   C4612     1.0  0.91457  0.46877  0.84121  1.0000
  C   C4613     1.0  0.76796  0.12669  0.82331  1.0000
  S   S1342     1.0  0.90560  0.36704  0.74514  1.0000
  C   C4614     1.0  0.98453  0.15014  0.87279  1.0000
  H   H7864     1.0  0.90810  0.20709  0.83653  1.0000
  Fe  Fe672     1.0  0.98954  0.37200  0.81784  1.0000
  H   H7865     1.0  0.83344  0.46846  0.83856  1.0000
  H   H7866     1.0  0.99173  0.12576  0.89677  1.0000
  S   S1343     1.0  0.88448  0.39308  0.74373  1.0000
  H   H7867     1.0  0.98883  0.14790  0.88086  1.0000
  N   N325      1.0  0.82939  0.27766  0.89122  1.0000
  H   H7868     1.0  0.89882  0.11478  0.96706  1.0000
  C   C4615     1.0  0.91181  0.20132  0.82948  1.0000
  C   C4616     1.0  0.98997  0.11629  0.85624  1.0000
  C   C4617     1.0  0.83962  0.25599  0.90201  1.0000
  H   H7869     1.0  0.84424  0.26447  0.88284  1.0000
  C   C4618     1.0  0.91449  0.45047  0.83415  1.0000
  H   H7870     1.0  0.90037  0.44363  0.85709  1.0000
  H   H7871     1.0  0.97121  0.12049  0.89158  1.0000
  C   C4619     1.0  0.92561  0.45047  0.82319  1.0000
  H   H7872     1.0  0.84150  0.11947  0.89208  1.0000
  C   C4620     1.0  0.90429  0.47133  0.82422  1.0000
  N   N326      1.0  0.90708  0.46301  0.83612  1.0000
  H   H7873     1.0  0.94783  0.34447  0.79802  1.0000
  H   H7874     1.0  0.76515  0.10331  0.83209  1.0000
  H   H7875     1.0  0.97825  0.32574  0.78489  1.0000
  H   H7876     1.0  0.93187  0.32930  0.79321  1.0000
  H   H7877     1.0  0.81973  0.47257  0.84955  1.0000
  H   H7878     1.0  0.83352  0.19121  0.84188  1.0000
  H   H7879     1.0  0.95490  0.34002  0.74271  1.0000
  H   H7880     1.0  0.91282  0.47375  0.81777  1.0000
  C   C4621     1.0  0.96176  0.32130  0.79800  1.0000
  H   H7881     1.0  0.97420  0.13498  0.89093  1.0000
  H   H7882     1.0  0.75839  0.15675  0.89078  1.0000
  C   C4622     1.0  0.75617  0.13092  0.85539  1.0000
  H   H7883     1.0  0.77542  0.12378  0.89659  1.0000
  N   N327      1.0  0.98331  0.12729  0.87466  1.0000
  H   H7884     1.0  0.96599  0.32203  0.80541  1.0000
  H   H7885     1.0  0.89851  0.48038  0.82590  1.0000
  H   H7886     1.0  0.79774  0.18536  0.93847  1.0000
  C   C4623     1.0  0.97974  0.12051  0.86691  1.0000
  C   C4624     1.0  0.97253  0.12942  0.88520  1.0000
  C   C4625     1.0  0.77010  0.12069  0.89155  1.0000
  H   H7887     1.0  0.90123  0.45677  0.86259  1.0000
  H   H7888     1.0  0.95388  0.30953  0.78511  1.0000
  C   C4626     1.0  0.96001  0.13583  0.88152  1.0000
  H   H7889     1.0  0.85376  0.17720  0.81733  1.0000
  H   H7890     1.0  0.92546  0.34453  0.80324  1.0000
  H   H7891     1.0  0.75902  0.12540  0.91335  1.0000
  H   H7892     1.0  0.97202  0.12639  0.86255  1.0000
  C   C4627     1.0  0.92926  0.19637  0.84640  1.0000
  C   C4628     1.0  0.84135  0.19053  0.83385  1.0000
  H   H7893     1.0  0.84820  0.24885  0.90047  1.0000
  C   C4629     1.0  0.84605  0.20268  0.83030  1.0000
  H   H7894     1.0  0.93271  0.31671  0.81302  1.0000
  H   H7895     1.0  0.88943  0.45765  0.84099  1.0000
  H   H7896     1.0  0.98163  0.14259  0.85901  1.0000
  H   H7897     1.0  0.75119  0.14040  0.85410  1.0000
  C   C4630     1.0  0.75031  0.12156  0.85540  1.0000
  H   H7898     1.0  0.95593  0.12929  0.87899  1.0000
  H   H7899     1.0  0.95335  0.13919  0.88947  1.0000
  H   H7900     1.0  0.96083  0.14383  0.87374  1.0000
  C   C4631     1.0  0.96808  0.32893  0.78597  1.0000
  H   H7901     1.0  0.83190  0.25187  0.90204  1.0000
  H   H7902     1.0  0.88919  0.47071  0.84625  1.0000
  H   H7903     1.0  0.93580  0.36881  0.84824  1.0000
  H   H7904     1.0  0.90862  0.44470  0.83301  1.0000
  H   H7905     1.0  0.75920  0.13025  0.82931  1.0000
  H   H7906     1.0  0.90082  0.46904  0.80719  1.0000
  C   C4632     1.0  0.82937  0.47380  0.84596  1.0000
  H   H7907     1.0  0.90952  0.12205  0.96979  1.0000
  C   C4633     1.0  0.87500  0.14530  0.98016  1.0000
  H   H7908     1.0  0.89817  0.45645  0.81949  1.0000
  H   H7909     1.0  0.94983  0.33631  0.81278  1.0000
  S   S1344     1.0  0.74984  0.09732  0.85622  1.0000
  H   H7910     1.0  0.92864  0.20824  0.82326  1.0000
  H   H7911     1.0  0.94463  0.31875  0.77458  1.0000
  C   C4634     1.0  0.76583  0.12253  0.81244  1.0000
  H   H7912     1.0  0.94325  0.30469  0.83002  1.0000
  H   H7913     1.0  0.98576  0.11320  0.85019  1.0000
  H   H7914     1.0  0.96562  0.32766  0.77775  1.0000
  H   H7915     1.0  0.96601  0.33887  0.78612  1.0000
  C   C4635     1.0  0.87280  0.13268  0.97991  1.0000
  C   C4636     1.0  0.91203  0.36603  0.85402  1.0000
  H   H7916     1.0  0.92087  0.36149  0.88150  1.0000
  H   H7917     1.0  0.77180  0.10209  0.90369  1.0000
  H   H7918     1.0  0.82227  0.27397  0.91087  1.0000
  H   H7919     1.0  0.91976  0.38242  0.87118  1.0000
  H   H7920     1.0  0.89926  0.37216  0.88414  1.0000
  H   H7921     1.0  0.94612  0.30600  0.80827  1.0000
  C   C4637     1.0  0.84753  0.11017  0.89371  1.0000
  C   C4638     1.0  0.94207  0.32685  0.79046  1.0000
  C   C4639     1.0  0.91565  0.36034  0.87512  1.0000
  H   H7922     1.0  0.95180  0.18379  0.83773  1.0000
  C   C4640     1.0  0.94471  0.31555  0.78455  1.0000
  H   H7923     1.0  0.88654  0.10132  0.88521  1.0000
  H   H7924     1.0  0.92324  0.38604  0.85487  1.0000
  H   H7925     1.0  0.87882  0.12396  0.88304  1.0000
  H   H7926     1.0  0.96483  0.31142  0.79738  1.0000
  H   H7927     1.0  0.93755  0.30993  0.78895  1.0000
  H   H7928     1.0  0.94232  0.32070  0.82829  1.0000
  C   C4641     1.0  0.90201  0.36296  0.88171  1.0000
  H   H7929     1.0  0.80221  0.27620  0.88318  1.0000
  H   H7930     1.0  0.83699  0.19051  0.82627  1.0000
  H   H7931     1.0  0.82448  0.29540  0.87896  1.0000
  H   H7932     1.0  0.95239  0.17350  0.82166  1.0000
  C   C4642     1.0  0.94667  0.31280  0.82376  1.0000
  H   H7933     1.0  0.84465  0.10512  0.90324  1.0000
  H   H7934     1.0  0.93138  0.19397  0.86519  1.0000
  H   H7935     1.0  0.94893  0.19872  0.82828  1.0000
  H   H7936     1.0  0.90200  0.39636  0.86841  1.0000
  C   C4643     1.0  0.90392  0.38948  0.86258  1.0000
  C   C4644     1.0  0.91704  0.38149  0.86291  1.0000
  H   H7937     1.0  0.88802  0.09985  0.90095  1.0000
  C   C4645     1.0  0.86897  0.16455  0.82468  1.0000
  H   H7938     1.0  0.85481  0.13380  0.88941  1.0000
  C   C4646     1.0  0.94469  0.33701  0.80559  1.0000
  C   C4647     1.0  0.94296  0.31498  0.81128  1.0000
  C   C4648     1.0  0.94162  0.36401  0.86530  1.0000
  C   C4649     1.0  0.86157  0.13917  0.90232  1.0000
  C   C4650     1.0  0.87013  0.11186  0.92056  1.0000
  C   C4651     1.0  0.79669  0.17894  0.90539  1.0000
  H   H7939     1.0  0.86914  0.14249  0.89503  1.0000
  H   H7940     1.0  0.86445  0.13580  0.91125  1.0000
  H   H7941     1.0  0.85390  0.14730  0.90333  1.0000
  H   H7942     1.0  0.86354  0.11852  0.92588  1.0000
  H   H7943     1.0  0.87877  0.11519  0.91638  1.0000
  H   H7944     1.0  0.87287  0.10323  0.92721  1.0000
  H   H7945     1.0  0.84593  0.10509  0.88746  1.0000
  H   H7946     1.0  0.92677  0.33535  0.81847  1.0000
  H   H7947     1.0  0.90835  0.19263  0.83288  1.0000
  H   H7948     1.0  0.84332  0.30237  0.87367  1.0000
  C   C4652     1.0  0.87841  0.11828  0.89258  1.0000
  H   H7949     1.0  0.92869  0.19593  0.81693  1.0000
  H   H7950     1.0  0.97625  0.11221  0.87274  1.0000
  H   H7951     1.0  0.83832  0.21050  0.82818  1.0000
  H   H7952     1.0  0.88668  0.45337  0.86349  1.0000
  H   H7953     1.0  0.86317  0.39305  0.83064  1.0000
  H   H7954     1.0  0.86342  0.11548  0.88075  1.0000
  H   H7955     1.0  0.91870  0.17155  0.82988  1.0000
  H   H7956     1.0  0.82401  0.26576  0.88255  1.0000
  H   H7957     1.0  0.89731  0.10817  0.88830  1.0000
  H   H7958     1.0  0.91822  0.44513  0.84245  1.0000
  H   H7959     1.0  0.90782  0.20647  0.82131  1.0000
  C   C4653     1.0  0.86130  0.11077  0.89059  1.0000
  C   C4654     1.0  0.91544  0.37233  0.84033  1.0000
  C   C4655     1.0  0.89503  0.46159  0.84491  1.0000
  H   H7960     1.0  0.90196  0.36908  0.85696  1.0000
  H   H7961     1.0  0.93045  0.20611  0.84363  1.0000
  N   N328      1.0  0.91607  0.39940  0.79288  1.0000
  C   C4656     1.0  0.92431  0.40837  0.78567  1.0000
  C   C4657     1.0  0.91752  0.39653  0.80606  1.0000
  C   C4658     1.0  0.90299  0.40584  0.79206  1.0000
  C   C4659     1.0  0.91997  0.38814  0.78728  1.0000
  C   C4660     1.0  0.92308  0.41412  0.77219  1.0000
  C   C4661     1.0  0.93037  0.38941  0.80835  1.0000
  C   C4662     1.0  0.89285  0.39858  0.79903  1.0000
  C   C4663     1.0  0.91526  0.37637  0.79490  1.0000
  H   H7962     1.0  0.92266  0.41621  0.79034  1.0000
  H   H7963     1.0  0.93422  0.40390  0.78522  1.0000
  H   H7964     1.0  0.91092  0.39112  0.81243  1.0000
  H   H7965     1.0  0.91529  0.40519  0.80954  1.0000
  H   H7966     1.0  0.90063  0.41468  0.79532  1.0000
  H   H7967     1.0  0.90186  0.40831  0.78235  1.0000
  H   H7968     1.0  0.91733  0.39031  0.77820  1.0000
  H   H7969     1.0  0.93016  0.38540  0.78524  1.0000
  H   H7970     1.0  0.93076  0.41902  0.76753  1.0000
  H   H7971     1.0  0.92370  0.40716  0.76686  1.0000
  H   H7972     1.0  0.91440  0.42114  0.77168  1.0000
  H   H7973     1.0  0.93030  0.38789  0.81830  1.0000
  H   H7974     1.0  0.93287  0.38024  0.80589  1.0000
  H   H7975     1.0  0.93773  0.39459  0.80339  1.0000
  H   H7976     1.0  0.89309  0.39112  0.79447  1.0000
  H   H7977     1.0  0.88377  0.40486  0.79874  1.0000
  H   H7978     1.0  0.89300  0.39507  0.80889  1.0000
  H   H7979     1.0  0.90991  0.37356  0.78970  1.0000
  H   H7980     1.0  0.90942  0.37713  0.80406  1.0000
  H   H7981     1.0  0.92324  0.36861  0.79627  1.0000
  N   N329      1.0  0.88554  0.18004  0.90798  1.0000
  C   C4664     1.0  0.89944  0.17742  0.90602  1.0000
  C   C4665     1.0  0.88115  0.19376  0.90399  1.0000
  C   C4666     1.0  0.88219  0.17321  0.90008  1.0000
  C   C4667     1.0  0.88063  0.17549  0.92148  1.0000
  C   C4668     1.0  0.90591  0.16362  0.90809  1.0000
  C   C4669     1.0  0.88455  0.20195  0.91076  1.0000
  C   C4670     1.0  0.87035  0.17898  0.89490  1.0000
  C   C4671     1.0  0.86663  0.17900  0.92608  1.0000
  H   H7982     1.0  0.90350  0.18192  0.89655  1.0000
  H   H7983     1.0  0.90244  0.18141  0.91230  1.0000
  H   H7984     1.0  0.87096  0.19628  0.90509  1.0000
  H   H7985     1.0  0.88484  0.19680  0.89397  1.0000
  H   H7986     1.0  0.88956  0.17222  0.89170  1.0000
  H   H7987     1.0  0.88159  0.16361  0.90503  1.0000
  H   H7988     1.0  0.88314  0.16531  0.92397  1.0000
  H   H7989     1.0  0.88498  0.17876  0.92729  1.0000
  H   H7990     1.0  0.91605  0.16295  0.90596  1.0000
  H   H7991     1.0  0.90339  0.15877  0.91779  1.0000
  H   H7992     1.0  0.90408  0.15863  0.90192  1.0000
  H   H7993     1.0  0.89461  0.20161  0.90861  1.0000
  H   H7994     1.0  0.88009  0.21169  0.90754  1.0000
  H   H7995     1.0  0.88110  0.19965  0.92085  1.0000
  H   H7996     1.0  0.86205  0.18091  0.90208  1.0000
  H   H7997     1.0  0.86875  0.17244  0.89015  1.0000
  H   H7998     1.0  0.87138  0.18757  0.88785  1.0000
  H   H7999     1.0  0.86333  0.18909  0.92518  1.0000
  H   H8000     1.0  0.86432  0.17485  0.93606  1.0000
  H   H8001     1.0  0.86156  0.17527  0.92146  1.0000
  H   H8002     1.0  0.88477  0.14607  0.97669  1.0000
  H   H8003     1.0  0.96243  0.18402  0.81659  1.0000
  H   H8004     1.0  0.78747  0.18329  0.91020  1.0000
  H   H8005     1.0  0.81504  0.18237  0.92302  1.0000
  H   H8006     1.0  0.84731  0.39137  0.83396  1.0000
  H   H8007     1.0  0.86331  0.35407  0.82278  1.0000
  H   H8008     1.0  0.79403  0.20179  0.90669  1.0000
  C   C4672     1.0  0.85619  0.39357  0.81414  1.0000
  C   C4673     1.0  0.85192  0.37284  0.82034  1.0000
  H   H8009     1.0  0.86234  0.39962  0.80779  1.0000
  C   C4674     1.0  0.86337  0.38038  0.79911  1.0000
  C   C4675     1.0  0.85448  0.39588  0.82721  1.0000
  C   C4676     1.0  0.85488  0.35926  0.81931  1.0000
  H   H8010     1.0  0.88034  0.11022  0.97501  1.0000
  N   N330      1.0  0.86124  0.38041  0.81263  1.0000
  H   H8011     1.0  0.87018  0.38617  0.79364  1.0000
  H   H8012     1.0  0.85075  0.37268  0.83028  1.0000
  H   H8013     1.0  0.86752  0.37101  0.79729  1.0000
  H   H8014     1.0  0.85566  0.35823  0.80981  1.0000
  H   H8015     1.0  0.83317  0.28329  0.90630  1.0000
  C   C4677     1.0  0.80708  0.18000  0.92101  1.0000
  H   H8016     1.0  0.80430  0.17574  0.88646  1.0000
  H   H8017     1.0  0.85129  0.40594  0.82691  1.0000
  H   H8018     1.0  0.84723  0.35484  0.82525  1.0000
  H   H8019     1.0  0.86526  0.17084  0.84681  1.0000
  H   H8020     1.0  0.85098  0.15984  0.84561  1.0000
  C   C4678     1.0  0.86417  0.10895  0.91135  1.0000
  C   C4679     1.0  0.79589  0.18073  0.89183  1.0000
  H   H8021     1.0  0.78812  0.17681  0.89151  1.0000
  H   H8022     1.0  0.91849  0.46212  0.84888  1.0000
  C   C4680     1.0  0.85167  0.18272  0.85725  1.0000
  H   H8023     1.0  0.85765  0.18636  0.86103  1.0000
  C   C4681     1.0  0.86456  0.48580  0.86277  1.0000
  H   H8024     1.0  0.93366  0.16224  0.83043  1.0000
  C   C4682     1.0  0.85693  0.12947  0.89867  1.0000
  N   N331      1.0  0.94786  0.32502  0.80132  1.0000
  C   C4683     1.0  0.87330  0.37595  0.81705  1.0000
  H   H8025     1.0  0.86479  0.18643  0.83999  1.0000
  C   C4684     1.0  0.84088  0.26761  0.89172  1.0000
  H   H8026     1.0  0.86773  0.09901  0.91109  1.0000
  H   H8027     1.0  0.80883  0.16979  0.92393  1.0000
  H   H8028     1.0  0.87769  0.38375  0.81621  1.0000
  H   H8029     1.0  0.87164  0.37172  0.82700  1.0000
  C   C4685     1.0  0.85868  0.17973  0.84463  1.0000
  H   H8030     1.0  0.87595  0.16426  0.82990  1.0000
  H   H8031     1.0  0.84344  0.19020  0.85655  1.0000
  H   H8032     1.0  0.79401  0.19060  0.88723  1.0000
  H   H8033     1.0  0.83243  0.15752  0.84037  1.0000
  N   N332      1.0  0.86533  0.11693  0.89855  1.0000
  C   C4686     1.0  0.88356  0.36667  0.81056  1.0000
  H   H8034     1.0  0.89152  0.36390  0.81520  1.0000
  H   H8035     1.0  0.88705  0.37074  0.80078  1.0000
  H   H8036     1.0  0.92990  0.35047  0.81382  1.0000
  H   H8037     1.0  0.78879  0.17826  0.93254  1.0000
  C   C4687     1.0  0.92846  0.17197  0.82906  1.0000
  H   H8038     1.0  0.93622  0.17130  0.84447  1.0000
  C   C4688     1.0  0.86546  0.48657  0.84125  1.0000
  H   H8039     1.0  0.88050  0.35820  0.81109  1.0000
  C   C4689     1.0  0.93264  0.36345  0.85762  1.0000
  C   C4690     1.0  0.92951  0.17794  0.83927  1.0000
  H   H8040     1.0  0.92049  0.17835  0.84594  1.0000
  H   H8041     1.0  0.94576  0.19155  0.85459  1.0000
  H   H8042     1.0  0.94839  0.18825  0.81120  1.0000
  H   H8043     1.0  0.93207  0.17636  0.81951  1.0000
  C   C4691     1.0  0.88795  0.10610  0.89180  1.0000
  H   H8044     1.0  0.95122  0.36181  0.85996  1.0000
  C   C4692     1.0  0.95251  0.18348  0.81933  1.0000
  H   H8045     1.0  0.84857  0.27099  0.89306  1.0000
  C   C4693     1.0  0.92605  0.19906  0.82575  1.0000
  C   C4694     1.0  0.83719  0.16500  0.83461  1.0000
  H   H8046     1.0  0.86484  0.15629  0.82854  1.0000
  H   H8047     1.0  0.87405  0.16385  0.81517  1.0000
  C   C4695     1.0  0.84240  0.29451  0.88165  1.0000
  H   H8048     1.0  0.83589  0.28460  0.87189  1.0000
  C   C4696     1.0  0.76429  0.10165  0.82328  1.0000
  H   H8049     1.0  0.93187  0.45622  0.82347  1.0000
  N   N333      1.0  0.85090  0.17885  0.83630  1.0000
  C   C4697     1.0  0.84439  0.16833  0.84246  1.0000
  H   H8050     1.0  0.84335  0.16143  0.82658  1.0000
  H   H8051     1.0  0.83973  0.29834  0.89009  1.0000
  H   H8052     1.0  0.85168  0.28843  0.88112  1.0000
  H   H8053     1.0  0.92257  0.45347  0.81427  1.0000
  C   C4698     1.0  0.89609  0.45335  0.85770  1.0000
  C   C4699     1.0  0.79523  0.18468  0.93000  1.0000
  H   H8054     1.0  0.81281  0.28513  0.87314  1.0000
  C   C4700     1.0  0.93621  0.18996  0.85696  1.0000
  H   H8055     1.0  0.90080  0.35614  0.89056  1.0000
  C   C4701     1.0  0.85923  0.17675  0.82419  1.0000
  H   H8056     1.0  0.86448  0.18425  0.82005  1.0000
  H   H8057     1.0  0.82994  0.17286  0.83153  1.0000
  C   C4702     1.0  0.83263  0.28801  0.88061  1.0000
  H   H8058     1.0  0.80455  0.28891  0.88786  1.0000
  H   H8059     1.0  0.81453  0.30012  0.89614  1.0000
  H   H8060     1.0  0.93441  0.35372  0.85671  1.0000
  C   C4703     1.0  0.81969  0.27226  0.88892  1.0000
  N   N334      1.0  0.93286  0.19045  0.83532  1.0000
  C   C4704     1.0  0.94658  0.18945  0.83058  1.0000
  H   H8061     1.0  0.93634  0.17995  0.85977  1.0000
  H   H8062     1.0  0.92448  0.36750  0.83571  1.0000
  N   N335      1.0  0.91906  0.36809  0.86245  1.0000
  H   H8063     1.0  0.89566  0.36189  0.87646  1.0000
  H   H8064     1.0  0.87495  0.13176  0.97015  1.0000
  H   H8065     1.0  0.76233  0.13102  0.80610  1.0000
  H   H8066     1.0  0.77508  0.11879  0.80715  1.0000
  N   N336      1.0  0.75767  0.11323  0.81589  1.0000
  H   H8067     1.0  0.82940  0.48330  0.86536  1.0000
  H   H8068     1.0  0.74842  0.09240  0.83137  1.0000
  C   C4705     1.0  0.90775  0.48064  0.84602  1.0000
  H   H8069     1.0  0.78438  0.10406  0.89094  1.0000
  H   H8070     1.0  0.76299  0.08313  0.83373  1.0000
  C   C4706     1.0  0.98675  0.13910  0.86660  1.0000
  C   C4707     1.0  0.77417  0.10650  0.89383  1.0000
  H   H8071     1.0  0.77365  0.12422  0.88161  1.0000
  H   H8072     1.0  0.77037  0.10243  0.88823  1.0000
  H   H8073     1.0  0.89582  0.13136  0.96514  1.0000
  H   H8074     1.0  0.77082  0.14401  0.89307  1.0000
  C   C4708     1.0  0.75641  0.11006  0.80441  1.0000
  H   H8075     1.0  0.91445  0.48427  0.84883  1.0000
  C   C4709     1.0  0.89953  0.12245  0.97083  1.0000
  H   H8076     1.0  0.75039  0.11697  0.78705  1.0000
  H   H8077     1.0  0.86964  0.15260  0.97398  1.0000
  H   H8078     1.0  0.75518  0.11807  0.88030  1.0000
  C   C4710     1.0  0.75005  0.12055  0.79525  1.0000
  C   C4711     1.0  0.75434  0.13954  0.89002  1.0000
  H   H8079     1.0  0.75468  0.12849  0.79181  1.0000
  C   C4712     1.0  0.83023  0.48742  0.84048  1.0000
  H   H8080     1.0  0.90042  0.47887  0.85433  1.0000
  S   S1345     1.0  0.91432  0.39335  0.73636  1.0000
  H   H8081     1.0  0.84022  0.48734  0.83699  1.0000
  H   H8082     1.0  0.93581  0.35415  0.73760  1.0000
  H   H8083     1.0  0.98863  0.15759  0.86599  1.0000
  N   N337      1.0  0.75642  0.12582  0.89511  1.0000
  H   H8084     1.0  0.75754  0.14141  0.87982  1.0000
  H   H8085     1.0  0.90379  0.48804  0.83891  1.0000
  H   H8086     1.0  0.99449  0.12387  0.85046  1.0000
  H   H8087     1.0  0.99664  0.13743  0.86186  1.0000
  C   C4713     1.0  0.99418  0.11893  0.87972  1.0000
  H   H8088     1.0  0.80999  0.48733  0.86134  1.0000
  H   H8089     1.0  0.86268  0.13331  0.98285  1.0000
  C   C4714     1.0  0.75277  0.12278  0.90896  1.0000
  H   H8090     1.0  0.75408  0.11263  0.91238  1.0000
  C   C4715     1.0  0.74967  0.11979  0.88941  1.0000
  H   H8091     1.0  0.75727  0.14613  0.90527  1.0000
  H   H8092     1.0  0.74856  0.11052  0.89508  1.0000
  H   H8093     1.0  0.99698  0.10832  0.85963  1.0000
  H   H8094     1.0  0.85784  0.11558  0.98394  1.0000
  C   C4716     1.0  0.89327  0.12132  0.98458  1.0000
  C   C4717     1.0  0.95558  0.34846  0.73537  1.0000
  C   C4718     1.0  0.96820  0.64024  0.07900  1.0000
  S   S1346     1.0  0.97567  0.64262  0.13531  1.0000
  Fe  Fe673     1.0  0.86675  0.74777  0.07510  1.0000
  S   S1347     1.0  0.86017  0.73483  0.09248  1.0000
  S   S1348     1.0  0.86997  0.76697  0.07402  1.0000
  Fe  Fe674     1.0  0.87238  0.72759  0.05957  1.0000
  S   S1349     1.0  0.86662  0.71316  0.07595  1.0000
  S   S1350     1.0  0.88121  0.72342  0.04055  1.0000
  Fe  Fe675     1.0  0.85079  0.72828  0.08119  1.0000
  S   S1351     1.0  0.83133  0.72534  0.08907  1.0000
  Fe  Fe676     1.0  0.87646  0.72091  0.08569  1.0000
  S   S1352     1.0  0.88814  0.70883  0.09883  1.0000
  S   S1353     1.0  0.85582  0.74255  0.06411  1.0000
  S   S1354     1.0  0.88371  0.73408  0.06895  1.0000
  Fe  Fe677     1.0  0.89363  0.65377  0.00434  1.0000
  S   S1355     1.0  0.91290  0.64692  0.00793  1.0000
  Fe  Fe678     1.0  0.86802  0.64881  0.01147  1.0000
  S   S1356     1.0  0.85649  0.63554  0.02375  1.0000
  Fe  Fe679     1.0  0.87176  0.67507  0.00577  1.0000
  S   S1357     1.0  0.86290  0.69272  0.01286  1.0000
  S   S1358     1.0  0.88448  0.64256  0.99740  1.0000
  S   S1359     1.0  0.87772  0.65829  0.01959  1.0000
  Fe  Fe680     1.0  0.92113  0.62977  0.07558  1.0000
  S   S1360     1.0  0.91777  0.62136  0.09585  1.0000
  S   S1361     1.0  0.92145  0.61926  0.06142  1.0000
  Fe  Fe681     1.0  0.92404  0.65377  0.07968  1.0000
  S   S1362     1.0  0.92035  0.64762  0.10023  1.0000
  S   S1363     1.0  0.92842  0.67225  0.06975  1.0000
  Fe  Fe682     1.0  0.93319  0.62995  0.09660  1.0000
  S   S1364     1.0  0.95013  0.62056  0.10511  1.0000
  Fe  Fe683     1.0  0.90533  0.63982  0.09753  1.0000
  S   S1365     1.0  0.88569  0.64360  0.10838  1.0000
  S   S1366     1.0  0.93756  0.63659  0.07603  1.0000
  S   S1367     1.0  0.90794  0.64768  0.07725  1.0000
  Fe  Fe684     1.0  0.79841  0.64174  0.10028  1.0000
  S   S1368     1.0  0.79716  0.66188  0.09162  1.0000
  S   S1369     1.0  0.77949  0.63693  0.10918  1.0000
  Fe  Fe685     1.0  0.82682  0.63697  0.09422  1.0000
  S   S1370     1.0  0.82746  0.65658  0.08490  1.0000
  S   S1371     1.0  0.84532  0.62387  0.09433  1.0000
  Fe  Fe686     1.0  0.81240  0.66126  0.10073  1.0000
  S   S1372     1.0  0.81105  0.67594  0.11111  1.0000
  Fe  Fe687     1.0  0.81226  0.65535  0.07665  1.0000
  S   S1373     1.0  0.81186  0.66464  0.05705  1.0000
  S   S1374     1.0  0.81259  0.64163  0.11083  1.0000
  S   S1375     1.0  0.81274  0.63524  0.08454  1.0000
  Fe  Fe688     1.0  0.98540  0.85447  0.12610  1.0000
  S   S1376     1.0  0.97659  0.84995  0.11295  1.0000
  Fe  Fe689     1.0  0.96068  0.86634  0.14018  1.0000
  S   S1377     1.0  0.94984  0.86294  0.12823  1.0000
  S   S1378     1.0  0.95017  0.87703  0.15486  1.0000
  Fe  Fe690     1.0  0.96238  0.84436  0.12958  1.0000
  S   S1379     1.0  0.95410  0.82774  0.13349  1.0000
  Fe  Fe691     1.0  0.96481  0.86893  0.11264  1.0000
  S   S1380     1.0  0.96221  0.88141  0.09445  1.0000
  S   S1381     1.0  0.97210  0.84715  0.14293  1.0000
  S   S1382     1.0  0.97475  0.87401  0.12439  1.0000
  Fe  Fe692     1.0  0.87206  0.85320  0.20360  1.0000
  S   S1383     1.0  0.88519  0.84226  0.21582  1.0000
  S   S1384     1.0  0.86139  0.84687  0.19338  1.0000
  Fe  Fe693     1.0  0.87602  0.87749  0.20553  1.0000
  S   S1385     1.0  0.89005  0.86907  0.21738  1.0000
  S   S1386     1.0  0.86821  0.89754  0.19959  1.0000
  Fe  Fe694     1.0  0.89735  0.85554  0.20487  1.0000
  S   S1387     1.0  0.91727  0.84667  0.19921  1.0000
  H   H8095     1.0  0.75438  0.63397  0.11584  1.0000
  C   C4719     1.0  0.88734  0.62368  0.03163  1.0000
  S   S1388     1.0  0.88480  0.86541  0.19178  1.0000
  S   S1389     1.0  0.86240  0.86597  0.21656  1.0000
  Fe  Fe695     1.0  0.87769  0.93723  0.11507  1.0000
  S   S1390     1.0  0.89777  0.92901  0.11468  1.0000
  S   S1391     1.0  0.87172  0.95789  0.10891  1.0000
  Fe  Fe696     1.0  0.87112  0.91178  0.12189  1.0000
  S   S1392     1.0  0.89051  0.90156  0.12237  1.0000
  S   S1393     1.0  0.85516  0.90263  0.12507  1.0000
  Fe  Fe697     1.0  0.89093  0.91611  0.13195  1.0000
  S   S1394     1.0  0.90137  0.91050  0.14713  1.0000
  Fe  Fe698     1.0  0.89546  0.91537  0.10512  1.0000
  S   S1395     1.0  0.90855  0.91034  0.08807  1.0000
  S   S1396     1.0  0.87094  0.92522  0.13314  1.0000
  S   S1397     1.0  0.87595  0.92464  0.10386  1.0000
  Fe  Fe699     1.0  0.90172  0.82255  0.11096  1.0000
  S   S1398     1.0  0.88479  0.82318  0.10416  1.0000
  S   S1399     1.0  0.91862  0.82921  0.09896  1.0000
  Fe  Fe700     1.0  0.88957  0.81593  0.13778  1.0000
  S   S1400     1.0  0.87161  0.81602  0.13345  1.0000
  S   S1401     1.0  0.89402  0.81269  0.15650  1.0000
  Fe  Fe701     1.0  0.88293  0.80581  0.11849  1.0000
  S   S1402     1.0  0.87586  0.78930  0.11720  1.0000
  Fe  Fe702     1.0  0.87481  0.83320  0.11944  1.0000
  S   S1403     1.0  0.85918  0.84938  0.11612  1.0000
  S   S1404     1.0  0.90083  0.80431  0.12409  1.0000
  S   S1405     1.0  0.89175  0.83395  0.12502  1.0000
  C   C4720     1.0  0.85719  0.88770  0.12247  1.0000
  C   C4721     1.0  0.86797  0.87863  0.12364  1.0000
  C   C4722     1.0  0.86873  0.86664  0.12202  1.0000
  C   C4723     1.0  0.85881  0.86387  0.11896  1.0000
  C   C4724     1.0  0.84815  0.87297  0.11784  1.0000
  C   C4725     1.0  0.84729  0.88473  0.11973  1.0000
  H   H8096     1.0  0.87560  0.88080  0.12595  1.0000
  H   H8097     1.0  0.87699  0.85965  0.12297  1.0000
  H   H8098     1.0  0.84044  0.87092  0.11555  1.0000
  H   H8099     1.0  0.83890  0.89163  0.11893  1.0000
  C   C4726     1.0  0.87048  0.83741  0.18311  1.0000
  C   C4727     1.0  0.88208  0.83045  0.18489  1.0000
  C   C4728     1.0  0.88905  0.82264  0.17685  1.0000
  C   C4729     1.0  0.88469  0.82212  0.16672  1.0000
  C   C4730     1.0  0.87320  0.82929  0.16477  1.0000
  C   C4731     1.0  0.86602  0.83677  0.17308  1.0000
  H   H8100     1.0  0.88557  0.83086  0.19262  1.0000
  H   H8101     1.0  0.89792  0.81710  0.17840  1.0000
  H   H8102     1.0  0.86978  0.82893  0.15698  1.0000
  H   H8103     1.0  0.85703  0.84210  0.17170  1.0000
  C   C4732     1.0  0.87761  0.90222  0.18540  1.0000
  C   C4733     1.0  0.87270  0.91149  0.17631  1.0000
  C   C4734     1.0  0.87999  0.91421  0.16449  1.0000
  C   C4735     1.0  0.89224  0.90786  0.16192  1.0000
  C   C4736     1.0  0.89727  0.89900  0.17119  1.0000
  C   C4737     1.0  0.88991  0.89604  0.18287  1.0000
  H   H8104     1.0  0.86320  0.91634  0.17830  1.0000
  H   H8105     1.0  0.87621  0.92131  0.15743  1.0000
  H   H8106     1.0  0.90679  0.89420  0.16925  1.0000
  H   H8107     1.0  0.89377  0.88896  0.18991  1.0000
  H   H8108     1.0  0.92240  0.86498  0.10118  1.0000
  H   H8109     1.0  0.82088  0.82025  0.09480  1.0000
  H   H8110     1.0  0.91867  0.85065  0.22356  1.0000
  C   C4738     1.0  0.94096  0.86864  0.16716  1.0000
  C   C4739     1.0  0.93058  0.87487  0.17434  1.0000
  C   C4740     1.0  0.92311  0.86821  0.18415  1.0000
  C   C4741     1.0  0.92624  0.85533  0.18696  1.0000
  C   C4742     1.0  0.93676  0.84914  0.17992  1.0000
  C   C4743     1.0  0.94397  0.85577  0.16991  1.0000
  H   H8111     1.0  0.92826  0.88483  0.17227  1.0000
  H   H8112     1.0  0.91503  0.87304  0.18960  1.0000
  H   H8113     1.0  0.93924  0.83918  0.18211  1.0000
  H   H8114     1.0  0.95201  0.85089  0.16448  1.0000
  C   C4744     1.0  0.94484  0.82793  0.12340  1.0000
  C   C4745     1.0  0.93651  0.82002  0.12715  1.0000
  C   C4746     1.0  0.92847  0.82045  0.11966  1.0000
  C   C4747     1.0  0.92902  0.82844  0.10814  1.0000
  C   C4748     1.0  0.93757  0.83618  0.10421  1.0000
  C   C4749     1.0  0.94531  0.83610  0.11194  1.0000
  H   H8115     1.0  0.93608  0.81371  0.13601  1.0000
  H   H8116     1.0  0.92193  0.81447  0.12280  1.0000
  H   H8117     1.0  0.93805  0.84238  0.09531  1.0000
  H   H8118     1.0  0.95172  0.84225  0.10901  1.0000
  C   C4750     1.0  0.94707  0.88874  0.09277  1.0000
  C   C4751     1.0  0.94527  0.89704  0.08178  1.0000
  C   C4752     1.0  0.93337  0.90347  0.08037  1.0000
  C   C4753     1.0  0.92325  0.90190  0.09007  1.0000
  C   C4754     1.0  0.92498  0.89345  0.10103  1.0000
  C   C4755     1.0  0.93688  0.88668  0.10225  1.0000
  H   H8119     1.0  0.95309  0.89859  0.07436  1.0000
  H   H8120     1.0  0.93204  0.90991  0.07185  1.0000
  H   H8121     1.0  0.91717  0.89204  0.10849  1.0000
  H   H8122     1.0  0.93818  0.87996  0.11052  1.0000
  H   H8123     1.0  0.86790  0.89547  0.14775  1.0000
  C   C4756     1.0  0.86302  0.96362  0.13200  1.0000
  C   C4757     1.0  0.86771  0.96771  0.11947  1.0000
  H   H8124     1.0  0.95123  0.65408  0.07882  1.0000
  H   H8125     1.0  0.86269  0.95399  0.13557  1.0000
  C   C4758     1.0  0.87468  0.63796  0.10429  1.0000
  C   C4759     1.0  0.86210  0.64287  0.10802  1.0000
  C   C4760     1.0  0.85306  0.63885  0.10473  1.0000
  C   C4761     1.0  0.85653  0.62936  0.09823  1.0000
  C   C4762     1.0  0.86910  0.62408  0.09489  1.0000
  C   C4763     1.0  0.87818  0.62858  0.09761  1.0000
  H   H8126     1.0  0.85934  0.64973  0.11355  1.0000
  H   H8127     1.0  0.84339  0.64284  0.10756  1.0000
  H   H8128     1.0  0.87182  0.61646  0.09026  1.0000
  H   H8129     1.0  0.88786  0.62454  0.09488  1.0000
  C   C4764     1.0  0.82388  0.65639  0.04762  1.0000
  C   C4765     1.0  0.82723  0.64354  0.05085  1.0000
  C   C4766     1.0  0.83718  0.63709  0.04342  1.0000
  C   C4767     1.0  0.84403  0.64355  0.03300  1.0000
  C   C4768     1.0  0.84075  0.65640  0.02988  1.0000
  C   C4769     1.0  0.83047  0.66278  0.03697  1.0000
  H   H8130     1.0  0.82201  0.63854  0.05893  1.0000
  H   H8131     1.0  0.83961  0.62714  0.04583  1.0000
  H   H8132     1.0  0.84601  0.66148  0.02194  1.0000
  H   H8133     1.0  0.82778  0.67267  0.03437  1.0000
  C   C4770     1.0  0.91487  0.63948  0.02299  1.0000
  C   C4771     1.0  0.92521  0.63002  0.02451  1.0000
  C   C4772     1.0  0.92719  0.62399  0.03633  1.0000
  C   C4773     1.0  0.91911  0.62765  0.04675  1.0000
  C   C4774     1.0  0.90881  0.63723  0.04529  1.0000
  C   C4775     1.0  0.90665  0.64310  0.03341  1.0000
  H   H8134     1.0  0.93164  0.62721  0.01651  1.0000
  H   H8135     1.0  0.93507  0.61648  0.03739  1.0000
  H   H8136     1.0  0.90243  0.63995  0.05334  1.0000
  H   H8137     1.0  0.89875  0.65050  0.03229  1.0000
  C   C4776     1.0  0.87687  0.71380  0.03333  1.0000
  C   C4777     1.0  0.88078  0.71500  0.02053  1.0000
  C   C4778     1.0  0.87730  0.70785  0.01429  1.0000
  C   C4779     1.0  0.87016  0.69912  0.02081  1.0000
  C   C4780     1.0  0.86680  0.69744  0.03369  1.0000
  C   C4781     1.0  0.86999  0.70484  0.03995  1.0000
  H   H8138     1.0  0.88613  0.72186  0.01532  1.0000
  H   H8139     1.0  0.87970  0.70947  0.00434  1.0000
  H   H8140     1.0  0.86137  0.69068  0.03872  1.0000
  H   H8141     1.0  0.86712  0.70367  0.04985  1.0000
  C   C4782     1.0  0.82666  0.71107  0.09498  1.0000
  C   C4783     1.0  0.81562  0.71093  0.10372  1.0000
  C   C4784     1.0  0.81106  0.70010  0.10847  1.0000
  C   C4785     1.0  0.81719  0.68931  0.10423  1.0000
  C   C4786     1.0  0.82824  0.68934  0.09536  1.0000
  C   C4787     1.0  0.83309  0.70020  0.09086  1.0000
  H   H8142     1.0  0.81056  0.71927  0.10690  1.0000
  H   H8143     1.0  0.80259  0.70015  0.11537  1.0000
  H   H8144     1.0  0.83313  0.68095  0.09221  1.0000
  H   H8145     1.0  0.84158  0.70027  0.08404  1.0000
  C   C4788     1.0  0.90028  0.69938  0.09076  1.0000
  C   C4789     1.0  0.90689  0.68874  0.09718  1.0000
  C   C4790     1.0  0.91587  0.68058  0.09070  1.0000
  C   C4791     1.0  0.91849  0.68321  0.07783  1.0000
  C   C4792     1.0  0.91250  0.69428  0.07143  1.0000
  C   C4793     1.0  0.90319  0.70222  0.07789  1.0000
  H   H8146     1.0  0.90478  0.68659  0.10714  1.0000
  H   H8147     1.0  0.92072  0.67224  0.09568  1.0000
  H   H8148     1.0  0.91465  0.69651  0.06149  1.0000
  H   H8149     1.0  0.89817  0.71042  0.07285  1.0000
  C   C4794     1.0  0.87149  0.77311  0.08612  1.0000
  C   C4795     1.0  0.86717  0.76815  0.09852  1.0000
  C   C4796     1.0  0.86861  0.77326  0.10784  1.0000
  C   C4797     1.0  0.87439  0.78337  0.10494  1.0000
  C   C4798     1.0  0.87867  0.78837  0.09254  1.0000
  C   C4799     1.0  0.87715  0.78331  0.08320  1.0000
  H   H8150     1.0  0.86266  0.76042  0.10092  1.0000
  H   H8151     1.0  0.86521  0.76934  0.11739  1.0000
  H   H8152     1.0  0.88320  0.79609  0.09013  1.0000
  H   H8153     1.0  0.88049  0.78725  0.07364  1.0000
  C   C4800     1.0  0.96889  0.63644  0.12668  1.0000
  C   C4801     1.0  0.97570  0.62748  0.11992  1.0000
  C   C4802     1.0  0.96980  0.62265  0.11345  1.0000
  C   C4803     1.0  0.95712  0.62691  0.11344  1.0000
  C   C4804     1.0  0.95035  0.63591  0.12015  1.0000
  C   C4805     1.0  0.95619  0.64055  0.12683  1.0000
  H   H8154     1.0  0.97797  0.87729  0.06928  1.0000
  H   H8155     1.0  0.97510  0.61562  0.10836  1.0000
  H   H8156     1.0  0.94057  0.63912  0.12039  1.0000
  H   H8157     1.0  0.95081  0.64739  0.13213  1.0000
  C   C4806     1.0  0.76030  0.60949  0.10214  1.0000
  H   H8158     1.0  0.98687  0.88747  0.08494  1.0000
  C   C4807     1.0  0.75960  0.62711  0.11052  1.0000
  C   C4808     1.0  0.77229  0.62660  0.10575  1.0000
  C   C4809     1.0  0.77892  0.61764  0.09892  1.0000
  C   C4810     1.0  0.77297  0.60906  0.09725  1.0000
  C   C4811     1.0  0.76164  0.65252  0.15828  1.0000
  H   H8159     1.0  0.99220  0.87795  0.09850  1.0000
  H   H8160     1.0  0.78870  0.61706  0.09528  1.0000
  N   N338      1.0  0.93945  0.91097  0.12957  1.0000
  C   C4812     1.0  0.93983  0.89843  0.12751  1.0000
  C   C4813     1.0  0.95212  0.91386  0.12425  1.0000
  C   C4814     1.0  0.93020  0.92074  0.12323  1.0000
  C   C4815     1.0  0.93571  0.91080  0.14318  1.0000
  C   C4816     1.0  0.92758  0.89388  0.13197  1.0000
  C   C4817     1.0  0.96201  0.90721  0.13201  1.0000
  C   C4818     1.0  0.93177  0.92130  0.10938  1.0000
  C   C4819     1.0  0.93499  0.92297  0.14694  1.0000
  H   H8161     1.0  0.94323  0.89803  0.11762  1.0000
  H   H8162     1.0  0.94666  0.89130  0.13216  1.0000
  H   H8163     1.0  0.95181  0.92392  0.12251  1.0000
  H   H8164     1.0  0.95585  0.91144  0.11503  1.0000
  H   H8165     1.0  0.92061  0.91970  0.12779  1.0000
  H   H8166     1.0  0.93055  0.93006  0.12410  1.0000
  H   H8167     1.0  0.92638  0.90871  0.14697  1.0000
  H   H8168     1.0  0.94162  0.90312  0.14852  1.0000
  H   H8169     1.0  0.92465  0.89214  0.14214  1.0000
  H   H8170     1.0  0.92012  0.90024  0.12758  1.0000
  H   H8171     1.0  0.92891  0.88490  0.12947  1.0000
  H   H8172     1.0  0.97119  0.90881  0.12655  1.0000
  H   H8173     1.0  0.96025  0.91085  0.14048  1.0000
  H   H8174     1.0  0.96262  0.89712  0.13462  1.0000
  H   H8175     1.0  0.92526  0.92950  0.10548  1.0000
  H   H8176     1.0  0.92942  0.91316  0.10780  1.0000
  H   H8177     1.0  0.94117  0.92220  0.10413  1.0000
  H   H8178     1.0  0.92547  0.92868  0.14753  1.0000
  H   H8179     1.0  0.94147  0.92856  0.14056  1.0000
  H   H8180     1.0  0.93749  0.92086  0.15608  1.0000
  H   H8181     1.0  0.78803  0.64261  0.12756  1.0000
  H   H8182     1.0  0.84988  0.86852  0.17956  1.0000
  H   H8183     1.0  0.97342  0.67546  0.07456  1.0000
  C   C4820     1.0  0.99495  0.88385  0.08939  1.0000
  C   C4821     1.0  0.91703  0.68827  0.03613  1.0000
  H   H8184     1.0  0.99215  0.88223  0.06420  1.0000
  H   H8185     1.0  0.82048  0.64875  0.02209  1.0000
  C   C4822     1.0  0.85117  0.87109  0.15588  1.0000
  H   H8186     1.0  0.84293  0.70746  0.12105  1.0000
  H   H8187     1.0  0.96959  0.67590  0.05423  1.0000
  H   H8188     1.0  0.95057  0.66511  0.11010  1.0000
  C   C4823     1.0  0.97889  0.62813  0.17760  1.0000
  H   H8189     1.0  0.96695  0.62871  0.16585  1.0000
  C   C4824     1.0  0.91011  0.68156  0.01594  1.0000
  H   H8190     1.0  0.86763  0.88820  0.17345  1.0000
  C   C4825     1.0  0.91432  0.66690  0.04418  1.0000
  H   H8191     1.0  0.85384  0.64822  0.98806  1.0000
  H   H8192     1.0  0.83957  0.65050  0.00671  1.0000
  H   H8193     1.0  0.94062  0.65944  0.10390  1.0000
  N   N339      1.0  0.83677  0.64167  0.99344  1.0000
  C   C4826     1.0  0.76710  0.66050  0.14610  1.0000
  H   H8194     1.0  0.96046  0.66446  0.06063  1.0000
  N   N340      1.0  0.87531  0.62136  0.05447  1.0000
  C   C4827     1.0  0.86502  0.62916  0.06211  1.0000
  C   C4828     1.0  0.86984  0.61189  0.05198  1.0000
  C   C4829     1.0  0.87979  0.62974  0.04254  1.0000
  C   C4830     1.0  0.88545  0.61568  0.06164  1.0000
  C   C4831     1.0  0.86797  0.64074  0.06422  1.0000
  C   C4832     1.0  0.86461  0.60283  0.06345  1.0000
  C   C4833     1.0  0.89618  0.60577  0.05665  1.0000
  H   H8195     1.0  0.85669  0.63237  0.05791  1.0000
  H   H8196     1.0  0.86200  0.62366  0.07141  1.0000
  H   H8197     1.0  0.87655  0.60621  0.04576  1.0000
  H   H8198     1.0  0.86226  0.61657  0.04689  1.0000
  H   H8199     1.0  0.87181  0.63639  0.03914  1.0000
  H   H8200     1.0  0.88543  0.63547  0.04405  1.0000
  H   H8201     1.0  0.88988  0.62289  0.06243  1.0000
  H   H8202     1.0  0.88169  0.61168  0.07138  1.0000
  H   H8203     1.0  0.85987  0.64516  0.07048  1.0000
  H   H8204     1.0  0.87591  0.63847  0.06879  1.0000
  H   H8205     1.0  0.86955  0.64768  0.05554  1.0000
  H   H8206     1.0  0.85627  0.60749  0.06923  1.0000
  H   H8207     1.0  0.86170  0.59580  0.06041  1.0000
  H   H8208     1.0  0.87159  0.59784  0.06909  1.0000
  H   H8209     1.0  0.90394  0.60998  0.05065  1.0000
  N   N341      1.0  0.90391  0.74489  0.09497  1.0000
  C   C4834     1.0  0.90027  0.75613  0.10065  1.0000
  C   C4835     1.0  0.89221  0.74065  0.09608  1.0000
  C   C4836     1.0  0.90939  0.74895  0.08150  1.0000
  C   C4837     1.0  0.91311  0.73524  0.10153  1.0000
  C   C4838     1.0  0.91070  0.76264  0.09996  1.0000
  C   C4839     1.0  0.88483  0.73711  0.10932  1.0000
  C   C4840     1.0  0.91424  0.73888  0.07383  1.0000
  C   C4841     1.0  0.91427  0.72165  0.10090  1.0000
  H   H8210     1.0  0.89316  0.76319  0.09627  1.0000
  H   H8211     1.0  0.89600  0.75382  0.11061  1.0000
  H   H8212     1.0  0.89393  0.73268  0.09175  1.0000
  H   H8213     1.0  0.88585  0.74790  0.09082  1.0000
  H   H8214     1.0  0.90250  0.75627  0.07692  1.0000
  H   H8215     1.0  0.91744  0.75312  0.08031  1.0000
  H   H8216     1.0  0.92248  0.73741  0.09806  1.0000
  H   H8217     1.0  0.91069  0.73544  0.11153  1.0000
  H   H8218     1.0  0.91869  0.75620  0.10342  1.0000
  H   H8219     1.0  0.91374  0.76785  0.09053  1.0000
  H   H8220     1.0  0.90704  0.76959  0.10588  1.0000
  H   H8221     1.0  0.87979  0.74539  0.11313  1.0000
  H   H8222     1.0  0.87775  0.73218  0.10919  1.0000
  H   H8223     1.0  0.89071  0.73089  0.11563  1.0000
  H   H8224     1.0  0.90719  0.73374  0.07420  1.0000
  H   H8225     1.0  0.92259  0.73241  0.07655  1.0000
  H   H8226     1.0  0.91705  0.74331  0.06400  1.0000
  H   H8227     1.0  0.92404  0.71675  0.10051  1.0000
  H   H8228     1.0  0.91158  0.72028  0.09289  1.0000
  H   H8229     1.0  0.90898  0.71673  0.10946  1.0000
  N   N342      1.0  0.96345  0.66135  0.08548  1.0000
  C   C4842     1.0  0.98515  0.65144  0.09091  1.0000
  C   C4843     1.0  0.85305  0.62161  0.98993  1.0000
  C   C4844     1.0  0.97139  0.65717  0.09503  1.0000
  H   H8230     1.0  0.77841  0.60704  0.05718  1.0000
  H   H8231     1.0  0.76398  0.63218  0.04525  1.0000
  H   H8232     1.0  0.98861  0.62489  0.17873  1.0000
  H   H8233     1.0  0.76048  0.66196  0.14004  1.0000
  H   H8234     1.0  0.95382  0.64633  0.09332  1.0000
  C   C4845     1.0  0.97088  0.59117  0.17885  1.0000
  H   H8235     1.0  0.95832  0.60772  0.15921  1.0000
  C   C4846     1.0  0.82604  0.64140  0.98829  1.0000
  C   C4847     1.0  0.97042  0.66744  0.07335  1.0000
  H   H8236     1.0  0.97138  0.66502  0.09904  1.0000
  H   H8237     1.0  0.96753  0.65032  0.10286  1.0000
  C   C4848     1.0  0.91855  0.81280  0.22702  1.0000
  H   H8238     1.0  0.95524  0.67955  0.06452  1.0000
  H   H8239     1.0  0.75937  0.64435  0.15662  1.0000
  C   C4849     1.0  0.97056  0.60495  0.17755  1.0000
  H   H8240     1.0  0.85420  0.96900  0.14938  1.0000
  H   H8241     1.0  0.82879  0.63376  0.02014  1.0000
  H   H8242     1.0  0.79311  0.62909  0.14645  1.0000
  H   H8243     1.0  0.76755  0.64975  0.16517  1.0000
  H   H8244     1.0  0.76204  0.59834  0.05542  1.0000
  H   H8245     1.0  0.98934  0.64784  0.09919  1.0000
  H   H8246     1.0  0.96165  0.58921  0.18372  1.0000
  H   H8247     1.0  0.75423  0.59074  0.06974  1.0000
  H   H8248     1.0  0.97698  0.63836  0.17595  1.0000
  C   C4850     1.0  0.78071  0.64368  0.13594  1.0000
  N   N343      1.0  0.91321  0.85074  0.15031  1.0000
  C   C4851     1.0  0.92241  0.84495  0.15857  1.0000
  C   C4852     1.0  0.91193  0.86453  0.14803  1.0000
  C   C4853     1.0  0.91846  0.84628  0.13839  1.0000
  C   C4854     1.0  0.90131  0.84659  0.15675  1.0000
  C   C4855     1.0  0.92609  0.83073  0.16124  1.0000
  C   C4856     1.0  0.90571  0.87045  0.15927  1.0000
  C   C4857     1.0  0.91307  0.85377  0.12707  1.0000
  C   C4858     1.0  0.88981  0.85300  0.15118  1.0000
  H   H8249     1.0  0.93114  0.84843  0.15462  1.0000
  H   H8250     1.0  0.91882  0.84747  0.16774  1.0000
  H   H8251     1.0  0.90656  0.86957  0.14086  1.0000
  H   H8252     1.0  0.92117  0.86698  0.14434  1.0000
  H   H8253     1.0  0.92857  0.84605  0.13558  1.0000
  H   H8254     1.0  0.91745  0.83663  0.13959  1.0000
  H   H8255     1.0  0.90249  0.83660  0.15707  1.0000
  H   H8256     1.0  0.89890  0.84721  0.16664  1.0000
  H   H8257     1.0  0.93059  0.82709  0.15278  1.0000
  H   H8258     1.0  0.93296  0.82773  0.16725  1.0000
  H   H8259     1.0  0.91814  0.82637  0.16627  1.0000
  H   H8260     1.0  0.90500  0.88057  0.15629  1.0000
  H   H8261     1.0  0.89622  0.86887  0.16320  1.0000
  H   H8262     1.0  0.91119  0.86725  0.16654  1.0000
  H   H8263     1.0  0.91594  0.86278  0.12361  1.0000
  H   H8264     1.0  0.90296  0.85506  0.12869  1.0000
  H   H8265     1.0  0.91686  0.84862  0.11953  1.0000
  H   H8266     1.0  0.88803  0.84709  0.14585  1.0000
  H   H8267     1.0  0.89027  0.86214  0.14523  1.0000
  H   H8268     1.0  0.88165  0.85444  0.15876  1.0000
  H   H8269     1.0  0.90768  0.67563  0.01105  1.0000
  H   H8270     1.0  0.76453  0.62529  0.07409  1.0000
  H   H8271     1.0  0.97910  0.66126  0.06990  1.0000
  H   H8272     1.0  0.78707  0.66241  0.15187  1.0000
  C   C4859     1.0  0.92562  0.66108  0.03538  1.0000
  H   H8273     1.0  0.82436  0.98973  0.13918  1.0000
  Fe  Fe703     1.0  0.87700  0.85650  0.22751  1.0000
  H   H8274     1.0  0.92015  0.67864  0.01541  1.0000
  H   H8275     1.0  0.77717  0.63122  0.15438  1.0000
  H   H8276     1.0  0.98521  0.86610  0.08672  1.0000
  H   H8277     1.0  0.81746  0.71930  0.05708  1.0000
  H   H8278     1.0  0.85715  0.87970  0.19207  1.0000
  H   H8279     1.0  0.97265  0.58836  0.16997  1.0000
  C   C4860     1.0  0.97669  0.62439  0.16650  1.0000
  H   H8280     1.0  0.79281  0.66142  0.12302  1.0000
  H   H8281     1.0  0.82921  0.96961  0.10722  1.0000
  C   C4861     1.0  0.84299  0.62876  0.99880  1.0000
  H   H8282     1.0  0.91930  0.70712  0.02789  1.0000
  H   H8283     1.0  0.85551  0.61184  0.99470  1.0000
  C   C4862     1.0  0.83621  0.71892  0.05751  1.0000
  C   C4863     1.0  0.83411  0.97986  0.11850  1.0000
  H   H8284     1.0  0.83916  0.72293  0.04761  1.0000
  H   H8285     1.0  0.89764  0.67245  0.03089  1.0000
  H   H8286     1.0  0.92372  0.83008  0.22391  1.0000
  H   H8287     1.0  0.84425  0.71289  0.06121  1.0000
  H   H8288     1.0  0.92942  0.65168  0.04025  1.0000
  H   H8289     1.0  0.81759  0.68415  0.07473  1.0000
  H   H8290     1.0  0.84566  0.86494  0.16301  1.0000
  H   H8291     1.0  0.80492  0.64370  0.13694  1.0000
  H   H8292     1.0  0.78714  0.64648  0.15653  1.0000
  H   H8293     1.0  0.83565  0.87935  0.18065  1.0000
  H   H8294     1.0  0.90782  0.66059  0.04676  1.0000
  H   H8295     1.0  0.92480  0.68586  0.02856  1.0000
  H   H8296     1.0  0.84447  0.87230  0.19964  1.0000
  C   C4864     1.0  0.87273  0.88790  0.15404  1.0000
  C   C4865     1.0  0.78342  0.63141  0.14527  1.0000
  C   C4866     1.0  0.77486  0.66933  0.11934  1.0000
  H   H8297     1.0  0.84310  0.68483  0.12935  1.0000
  C   C4867     1.0  0.94498  0.66726  0.10297  1.0000
  N   N344      1.0  0.84434  0.81598  0.10628  1.0000
  C   C4868     1.0  0.84817  0.81803  0.11709  1.0000
  C   C4869     1.0  0.85481  0.81777  0.09532  1.0000
  C   C4870     1.0  0.84251  0.80287  0.10935  1.0000
  C   C4871     1.0  0.83251  0.82510  0.10453  1.0000
  C   C4872     1.0  0.83968  0.81493  0.12983  1.0000
  C   C4873     1.0  0.85714  0.83101  0.09071  1.0000
  C   C4874     1.0  0.84263  0.79710  0.09860  1.0000
  C   C4875     1.0  0.82779  0.82610  0.09283  1.0000
  H   H8298     1.0  0.85754  0.81243  0.11788  1.0000
  H   H8299     1.0  0.84883  0.82779  0.11583  1.0000
  H   H8300     1.0  0.85356  0.81509  0.08723  1.0000
  H   H8301     1.0  0.86358  0.81157  0.09744  1.0000
  H   H8302     1.0  0.84983  0.79654  0.11408  1.0000
  H   H8303     1.0  0.83363  0.80201  0.11600  1.0000
  H   H8304     1.0  0.82484  0.82291  0.11238  1.0000
  H   H8305     1.0  0.83309  0.83454  0.10489  1.0000
  H   H8306     1.0  0.84332  0.81729  0.13680  1.0000
  H   H8307     1.0  0.83014  0.82040  0.13020  1.0000
  H   H8308     1.0  0.83964  0.80494  0.13277  1.0000
  H   H8309     1.0  0.85976  0.83430  0.09771  1.0000
  H   H8310     1.0  0.86502  0.83113  0.08268  1.0000
  H   H8311     1.0  0.84908  0.83763  0.08757  1.0000
  H   H8312     1.0  0.83572  0.80242  0.09306  1.0000
  H   H8313     1.0  0.84043  0.78780  0.10244  1.0000
  H   H8314     1.0  0.85192  0.79558  0.09256  1.0000
  H   H8315     1.0  0.83510  0.82375  0.08491  1.0000
  H   H8316     1.0  0.82323  0.83582  0.08963  1.0000
  H   H8317     1.0  0.84168  0.70733  0.03815  1.0000
  H   H8318     1.0  0.89972  0.59913  0.06452  1.0000
  H   H8319     1.0  0.83270  0.67597  0.05513  1.0000
  H   H8320     1.0  0.97195  0.63314  0.08648  1.0000
  H   H8321     1.0  0.83568  0.70178  0.02224  1.0000
  H   H8322     1.0  0.88081  0.89102  0.15487  1.0000
  H   H8323     1.0  0.81676  0.68963  0.05193  1.0000
  H   H8324     1.0  0.85664  0.69516  0.09760  1.0000
  H   H8325     1.0  0.90217  0.68385  0.05786  1.0000
  H   H8326     1.0  0.92153  0.68706  0.04399  1.0000
  H   H8327     1.0  0.92308  0.65984  0.02720  1.0000
  C   C4876     1.0  0.98814  0.87391  0.06700  1.0000
  N   N345      1.0  0.78007  0.65545  0.13984  1.0000
  N   N346      1.0  0.82802  0.70127  0.05411  1.0000
  C   C4877     1.0  0.95247  0.67095  0.08980  1.0000
  H   H8328     1.0  0.90637  0.70616  0.04037  1.0000
  H   H8329     1.0  0.81973  0.63596  0.99533  1.0000
  H   H8330     1.0  0.90568  0.70405  0.02552  1.0000
  H   H8331     1.0  0.76255  0.60614  0.07404  1.0000
  H   H8332     1.0  0.85075  0.89029  0.14905  1.0000
  H   H8333     1.0  0.76614  0.67542  0.12291  1.0000
  C   C4878     1.0  0.91692  0.84968  0.23369  1.0000
  H   H8334     1.0  0.77200  0.64399  0.13318  1.0000
  H   H8335     1.0  0.78461  0.67339  0.13101  1.0000
  H   H8336     1.0  0.84771  0.62892  0.00606  1.0000
  H   H8337     1.0  0.84600  0.66925  0.11027  1.0000
  H   H8338     1.0  0.77935  0.67494  0.11073  1.0000
  H   H8339     1.0  0.83536  0.90128  0.17249  1.0000
  C   C4879     1.0  0.84574  0.87834  0.17992  1.0000
  H   H8340     1.0  0.84149  0.88865  0.19479  1.0000
  H   H8341     1.0  0.88061  0.68083  0.06224  1.0000
  C   C4880     1.0  0.75431  0.60958  0.06974  1.0000
  C   C4881     1.0  0.96337  0.67204  0.06272  1.0000
  C   C4882     1.0  0.99237  0.86468  0.07830  1.0000
  H   H8342     1.0  0.74888  0.63878  0.08559  1.0000
  C   C4883     1.0  0.89802  0.68389  0.05010  1.0000
  C   C4884     1.0  0.84563  0.89982  0.17004  1.0000
  H   H8343     1.0  0.98114  0.59967  0.15334  1.0000
  H   H8344     1.0  0.90800  0.69110  0.01047  1.0000
  H   H8345     1.0  0.84227  0.97872  0.12249  1.0000
  H   H8346     1.0  0.76199  0.61780  0.04420  1.0000
  N   N347      1.0  0.89805  0.87660  0.08554  1.0000
  C   C4885     1.0  0.88479  0.88221  0.09049  1.0000
  C   C4886     1.0  0.89814  0.86439  0.08288  1.0000
  C   C4887     1.0  0.90265  0.88527  0.07382  1.0000
  C   C4888     1.0  0.90542  0.87515  0.09513  1.0000
  C   C4889     1.0  0.88230  0.89542  0.09271  1.0000
  C   C4890     1.0  0.89347  0.85473  0.09404  1.0000
  C   C4891     1.0  0.91335  0.87964  0.06428  1.0000
  C   C4892     1.0  0.91911  0.86866  0.09241  1.0000
  H   H8347     1.0  0.87877  0.88241  0.08421  1.0000
  H   H8348     1.0  0.88115  0.87656  0.09947  1.0000
  H   H8349     1.0  0.90749  0.85985  0.07864  1.0000
  H   H8350     1.0  0.89244  0.86583  0.07592  1.0000
  H   H8351     1.0  0.89508  0.88994  0.06872  1.0000
  H   H8352     1.0  0.90562  0.89283  0.07594  1.0000
  H   H8353     1.0  0.90552  0.88433  0.09651  1.0000
  H   H8354     1.0  0.90096  0.87061  0.10442  1.0000
  H   H8355     1.0  0.88520  0.90216  0.08424  1.0000
  H   H8356     1.0  0.87221  0.89857  0.09595  1.0000
  H   H8357     1.0  0.88673  0.89576  0.10005  1.0000
  H   H8358     1.0  0.89868  0.85275  0.10145  1.0000
  H   H8359     1.0  0.88342  0.85734  0.09774  1.0000
  H   H8360     1.0  0.89496  0.84593  0.09102  1.0000
  H   H8361     1.0  0.92136  0.87406  0.06824  1.0000
  H   H8362     1.0  0.91667  0.88723  0.05697  1.0000
  H   H8363     1.0  0.91020  0.87398  0.05970  1.0000
  H   H8364     1.0  0.92491  0.87521  0.08643  1.0000
  H   H8365     1.0  0.92077  0.86048  0.08840  1.0000
  S   S1406     1.0  0.86055  0.66593  0.99877  1.0000
  C   C4893     1.0  0.95865  0.65080  0.08423  1.0000
  H   H8366     1.0  0.97783  0.58529  0.18425  1.0000
  C   C4894     1.0  0.75649  0.63019  0.06973  1.0000
  H   H8367     1.0  0.89419  0.68874  0.02851  1.0000
  H   H8368     1.0  0.89360  0.60011  0.05171  1.0000
  H   H8369     1.0  0.82622  0.71480  0.03721  1.0000
  H   H8370     1.0  0.85662  0.67771  0.09144  1.0000
  H   H8371     1.0  0.89087  0.63089  0.02397  1.0000
  H   H8372     1.0  0.88151  0.61975  0.02797  1.0000
  C   C4895     1.0  0.82545  0.71223  0.06004  1.0000
  H   H8373     1.0  0.76653  0.66973  0.14791  1.0000
  C   C4896     1.0  0.82362  0.64253  0.01542  1.0000
  Fe  Fe704     1.0  0.87769  0.66032  0.98495  1.0000
  C   C4897     1.0  0.78875  0.65387  0.14825  1.0000
  H   H8374     1.0  0.89550  0.61664  0.03379  1.0000
  C   C4898     1.0  0.83727  0.97003  0.11058  1.0000
  H   H8375     1.0  0.78226  0.62387  0.14155  1.0000
  C   C4899     1.0  0.90193  0.68056  0.02906  1.0000
  H   H8376     1.0  0.93319  0.66619  0.03266  1.0000
  H   H8377     1.0  0.96087  0.61015  0.17771  1.0000
  C   C4900     1.0  0.75360  0.61868  0.10864  1.0000
  H   H8378     1.0  0.83700  0.88718  0.15896  1.0000
  H   H8379     1.0  0.80876  0.70461  0.05330  1.0000
  C   C4901     1.0  0.84723  0.88448  0.15785  1.0000
  H   H8380     1.0  0.95541  0.67958  0.08941  1.0000
  H   H8381     1.0  0.86559  0.67162  0.13133  1.0000
  H   H8382     1.0  0.88543  0.67374  0.10706  1.0000
  H   H8383     1.0  0.88714  0.66359  0.12141  1.0000
  N   N348      1.0  0.75412  0.62246  0.06213  1.0000
  H   H8384     1.0  0.84840  0.67739  0.04860  1.0000
  H   H8385     1.0  0.87659  0.87992  0.14953  1.0000
  C   C4902     1.0  0.88212  0.67273  0.11717  1.0000
  H   H8386     1.0  0.86008  0.69287  0.13024  1.0000
  C   C4903     1.0  0.78363  0.66501  0.12848  1.0000
  H   H8387     1.0  0.84693  0.69464  0.05633  1.0000
  C   C4904     1.0  0.76396  0.62256  0.05054  1.0000
  C   C4905     1.0  0.86812  0.67305  0.12110  1.0000
  H   H8388     1.0  0.86682  0.66460  0.11914  1.0000
  C   C4906     1.0  0.84070  0.67855  0.05663  1.0000
  H   H8389     1.0  0.83306  0.72677  0.06231  1.0000
  H   H8390     1.0  0.84343  0.67156  0.06469  1.0000
  C   C4907     1.0  0.86143  0.69511  0.12000  1.0000
  H   H8391     1.0  0.87093  0.69682  0.11656  1.0000
  C   C4908     1.0  0.83803  0.69155  0.05942  1.0000
  H   H8392     1.0  0.83622  0.69038  0.06958  1.0000
  H   H8393     1.0  0.84346  0.91918  0.16124  1.0000
  N   N349      1.0  0.85995  0.68453  0.11536  1.0000
  C   C4909     1.0  0.84655  0.68358  0.11965  1.0000
  H   H8394     1.0  0.85530  0.71477  0.11970  1.0000
  H   H8395     1.0  0.88479  0.67975  0.12039  1.0000
  H   H8396     1.0  0.83305  0.67254  0.12216  1.0000
  H   H8397     1.0  0.84516  0.97131  0.10272  1.0000
  C   C4910     1.0  0.86503  0.88395  0.16708  1.0000
  H   H8398     1.0  0.86846  0.87382  0.16993  1.0000
  H   H8399     1.0  0.77826  0.60193  0.09228  1.0000
  C   C4911     1.0  0.85270  0.70764  0.11651  1.0000
  C   C4912     1.0  0.84323  0.67149  0.11949  1.0000
  H   H8400     1.0  0.93736  0.67516  0.10503  1.0000
  H   H8401     1.0  0.84069  0.69112  0.11411  1.0000
  C   C4913     1.0  0.75396  0.59971  0.06304  1.0000
  H   H8402     1.0  0.83606  0.62291  0.00349  1.0000
  H   H8403     1.0  0.89153  0.66687  0.06064  1.0000
  C   C4914     1.0  0.83200  0.69742  0.03189  1.0000
  H   H8404     1.0  0.80266  0.68820  0.07122  1.0000
  H   H8405     1.0  0.89302  0.69352  0.04734  1.0000
  C   C4915     1.0  0.88792  0.67617  0.05550  1.0000
  C   C4916     1.0  0.84889  0.91021  0.15902  1.0000
  H   H8406     1.0  0.84939  0.87089  0.14689  1.0000
  H   H8407     1.0  0.85362  0.92325  0.21050  1.0000
  C   C4917     1.0  0.86358  0.68744  0.10149  1.0000
  H   H8408     1.0  0.87225  0.69107  0.09833  1.0000
  H   H8409     1.0  0.85346  0.71077  0.10644  1.0000
  H   H8410     1.0  0.84701  0.66368  0.12641  1.0000
  H   H8411     1.0  0.86787  0.66766  0.09991  1.0000
  C   C4918     1.0  0.81605  0.69697  0.05684  1.0000
  C   C4919     1.0  0.81090  0.69190  0.07054  1.0000
  H   H8412     1.0  0.82272  0.70956  0.07021  1.0000
  H   H8413     1.0  0.80782  0.69915  0.07607  1.0000
  H   H8414     1.0  0.82255  0.69655  0.03211  1.0000
  H   H8415     1.0  0.83810  0.68828  0.03372  1.0000
  H   H8416     1.0  0.88340  0.67541  0.04838  1.0000
  H   H8417     1.0  0.91742  0.66630  0.05277  1.0000
  C   C4920     1.0  0.91165  0.70215  0.03226  1.0000
  H   H8418     1.0  0.84854  0.90168  0.17777  1.0000
  H   H8419     1.0  0.84655  0.90958  0.15049  1.0000
  H   H8420     1.0  0.85870  0.91072  0.15744  1.0000
  C   C4921     1.0  0.86515  0.67706  0.09462  1.0000
  H   H8421     1.0  0.87277  0.67797  0.08640  1.0000
  H   H8422     1.0  0.82004  0.65071  0.98635  1.0000
  C   C4922     1.0  0.83212  0.70572  0.04041  1.0000
  N   N350      1.0  0.90795  0.67991  0.03951  1.0000
  N   N351      1.0  0.85117  0.88674  0.16845  1.0000
  C   C4923     1.0  0.84739  0.88001  0.19222  1.0000
  H   H8423     1.0  0.87026  0.90870  0.21816  1.0000
  H   H8424     1.0  0.86111  0.86728  0.15567  1.0000
  H   H8425     1.0  0.96076  0.62320  0.15205  1.0000
  C   C4924     1.0  0.86807  0.98022  0.11495  1.0000
  H   H8426     1.0  0.86160  0.62530  0.98743  1.0000
  C   C4925     1.0  0.96461  0.61325  0.15234  1.0000
  H   H8427     1.0  0.82618  0.65794  0.00056  1.0000
  H   H8428     1.0  0.98665  0.64357  0.08650  1.0000
  H   H8429     1.0  0.99187  0.85549  0.07723  1.0000
  H   H8430     1.0  0.80809  0.64766  0.14971  1.0000
  C   C4926     1.0  0.80263  0.65095  0.14237  1.0000
  H   H8431     1.0  0.96472  0.61165  0.14319  1.0000
  C   C4927     1.0  0.85818  0.97214  0.13979  1.0000
  H   H8432     1.0  0.98379  0.61464  0.14685  1.0000
  C   C4928     1.0  0.85155  0.91899  0.22048  1.0000
  H   H8433     1.0  0.85254  0.89083  0.22604  1.0000
  C   C4929     1.0  0.85808  0.98475  0.13514  1.0000
  Fe  Fe705     1.0  0.99606  0.63978  0.13570  1.0000
  H   H8434     1.0  0.80571  0.65934  0.13635  1.0000
  H   H8435     1.0  0.94572  0.67361  0.08368  1.0000
  H   H8436     1.0  0.98546  0.62417  0.11976  1.0000
  C   C4930     1.0  0.77726  0.61689  0.05246  1.0000
  H   H8437     1.0  0.78025  0.62208  0.05765  1.0000
  H   H8438     1.0  0.99046  0.86943  0.05898  1.0000
  H   H8439     1.0  0.97233  0.60565  0.18638  1.0000
  C   C4931     1.0  0.97790  0.60931  0.15462  1.0000
  H   H8440     1.0  0.97584  0.64329  0.07172  1.0000
  H   H8441     1.0  0.78366  0.61733  0.04333  1.0000
  S   S1407     1.0  0.75343  0.59807  0.10027  1.0000
  H   H8442     1.0  0.96367  0.63574  0.07448  1.0000
  H   H8443     1.0  0.92353  0.81240  0.21740  1.0000
  H   H8444     1.0  0.81523  0.64100  0.01352  1.0000
  C   C4932     1.0  0.86334  0.98869  0.12275  1.0000
  H   H8445     1.0  0.77285  0.66148  0.11682  1.0000
  H   H8446     1.0  0.75919  0.63885  0.06392  1.0000
  H   H8447     1.0  0.87182  0.98341  0.10531  1.0000
  H   H8448     1.0  0.97257  0.62496  0.18629  1.0000
  H   H8449     1.0  0.82672  0.97711  0.12644  1.0000
  S   S1408     1.0  0.88836  0.67124  0.99067  1.0000
  N   N352      1.0  0.97943  0.61072  0.16681  1.0000
  H   H8450     1.0  0.84019  0.96083  0.11637  1.0000
  C   C4933     1.0  0.83182  0.64871  0.00372  1.0000
  H   H8451     1.0  0.98243  0.62914  0.15814  1.0000
  H   H8452     1.0  0.91017  0.80906  0.22847  1.0000
  C   C4934     1.0  0.99259  0.60555  0.16844  1.0000
  H   H8453     1.0  0.88822  0.90862  0.22404  1.0000
  H   H8454     1.0  0.99445  0.58610  0.16736  1.0000
  H   H8455     1.0  0.75273  0.65797  0.16247  1.0000
  H   H8456     1.0  0.99316  0.60379  0.17829  1.0000
  H   H8457     1.0  0.90841  0.83136  0.22251  1.0000
  C   C4935     1.0  0.91522  0.82636  0.22839  1.0000
  H   H8458     1.0  0.99030  0.65845  0.08475  1.0000
  H   H8459     1.0  0.88872  0.89278  0.23233  1.0000
  H   H8460     1.0  0.81902  0.98897  0.10187  1.0000
  C   C4936     1.0  0.86381  0.91396  0.22497  1.0000
  H   H8461     1.0  0.86764  0.92225  0.22391  1.0000
  H   H8462     1.0  0.84648  0.91175  0.22138  1.0000
  H   H8463     1.0  0.92472  0.80682  0.23318  1.0000
  H   H8464     1.0  0.83821  0.66788  0.98471  1.0000
  H   H8465     1.0  0.84552  0.92635  0.22523  1.0000
  H   H8466     1.0  0.87112  0.88939  0.23113  1.0000
  C   C4937     1.0  0.88723  0.90244  0.23328  1.0000
  H   H8467     1.0  0.88430  0.92208  0.37890  1.0000
  S   S1409     1.0  0.89787  0.86570  0.46471  1.0000
  Fe  Fe706     1.0  0.77142  0.90351  0.35055  1.0000
  S   S1410     1.0  0.75934  0.92138  0.34368  1.0000
  S   S1411     1.0  0.78277  0.89104  0.33782  1.0000
  Fe  Fe707     1.0  0.76469  0.90741  0.37651  1.0000
  C   C4938     1.0  0.79273  0.95426  0.31535  1.0000
  S   S1412     1.0  0.76742  0.89916  0.39578  1.0000
  C   C4939     1.0  0.88601  0.94600  0.34410  1.0000
  Fe  Fe708     1.0  0.76717  0.92925  0.35530  1.0000
  S   S1413     1.0  0.77630  0.94567  0.34614  1.0000
  S   S1414     1.0  0.75709  0.89739  0.36680  1.0000
  S   S1415     1.0  0.78027  0.91160  0.36087  1.0000
  Fe  Fe709     1.0  0.84281  0.97439  0.35873  1.0000
  S   S1416     1.0  0.85655  0.95952  0.36780  1.0000
  C   C4940     1.0  0.85239  0.91195  0.24669  1.0000
  S   S1417     1.0  0.83367  0.97500  0.31849  1.0000
  C   C4941     1.0  0.89577  0.90750  0.33688  1.0000
  S   S1418     1.0  0.79695  0.97735  0.37104  1.0000
  C   C4942     1.0  0.85058  0.92200  0.36062  1.0000
  S   S1419     1.0  0.82943  0.96731  0.35281  1.0000
  Fe  Fe710     1.0  0.84792  0.88061  0.42391  1.0000
  S   S1420     1.0  0.82808  0.88856  0.42251  1.0000
  S   S1421     1.0  0.85026  0.87198  0.44352  1.0000
  Fe  Fe711     1.0  0.85670  0.88736  0.39611  1.0000
  S   S1422     1.0  0.83767  0.89565  0.39268  1.0000
  S   S1423     1.0  0.87097  0.88916  0.37858  1.0000
  Fe  Fe712     1.0  0.83533  0.90412  0.40875  1.0000
  S   S1424     1.0  0.82526  0.92382  0.40738  1.0000
  Fe  Fe713     1.0  0.83243  0.87929  0.40658  1.0000
  S   S1425     1.0  0.81991  0.86844  0.40405  1.0000
  S   S1426     1.0  0.85483  0.89709  0.41134  1.0000
  S   S1427     1.0  0.85174  0.87007  0.40885  1.0000
  Fe  Fe714     1.0  0.86749  0.89386  0.29343  1.0000
  S   S1428     1.0  0.85925  0.91406  0.29271  1.0000
  S   S1429     1.0  0.88047  0.88874  0.27612  1.0000
  Fe  Fe715     1.0  0.85600  0.88662  0.32052  1.0000
  S   S1430     1.0  0.84657  0.90596  0.32180  1.0000
  S   S1431     1.0  0.85305  0.87313  0.33857  1.0000
  Fe  Fe716     1.0  0.84218  0.90739  0.30367  1.0000
  S   S1432     1.0  0.82342  0.91824  0.30121  1.0000
  Fe  Fe717     1.0  0.86440  0.91085  0.31098  1.0000
  S   S1433     1.0  0.87078  0.92357  0.31874  1.0000
  S   S1434     1.0  0.84983  0.88741  0.30321  1.0000
  S   S1435     1.0  0.87436  0.89130  0.31077  1.0000
  C   C4943     1.0  0.86625  0.88448  0.36746  1.0000
  C   C4944     1.0  0.86903  0.89027  0.35505  1.0000
  C   C4945     1.0  0.86504  0.88681  0.34615  1.0000
  C   C4946     1.0  0.85845  0.87734  0.34958  1.0000
  C   C4947     1.0  0.85584  0.87142  0.36196  1.0000
  C   C4948     1.0  0.85952  0.87513  0.37093  1.0000
  H   H8468     1.0  0.87403  0.89762  0.35235  1.0000
  H   H8469     1.0  0.86704  0.89152  0.33665  1.0000
  H   H8470     1.0  0.85104  0.86394  0.36462  1.0000
  H   H8471     1.0  0.85738  0.87056  0.38049  1.0000
  C   C4949     1.0  0.84387  0.96063  0.31870  1.0000
  C   C4950     1.0  0.84358  0.95308  0.31104  1.0000
  C   C4951     1.0  0.85165  0.94155  0.31120  1.0000
  C   C4952     1.0  0.86023  0.93768  0.31883  1.0000
  C   C4953     1.0  0.86041  0.94515  0.32661  1.0000
  C   C4954     1.0  0.85220  0.95657  0.32661  1.0000
  H   H8472     1.0  0.83720  0.95616  0.30492  1.0000
  H   H8473     1.0  0.85143  0.93580  0.30521  1.0000
  H   H8474     1.0  0.86688  0.94209  0.33265  1.0000
  H   H8475     1.0  0.85249  0.96233  0.33257  1.0000
  C   C4955     1.0  0.84807  0.94974  0.37927  1.0000
  C   C4956     1.0  0.85374  0.93762  0.38372  1.0000
  C   C4957     1.0  0.84675  0.92957  0.39228  1.0000
  C   C4958     1.0  0.83418  0.93377  0.39678  1.0000
  C   C4959     1.0  0.82858  0.94598  0.39255  1.0000
  C   C4960     1.0  0.83547  0.95389  0.38367  1.0000
  H   H8476     1.0  0.86344  0.93437  0.38033  1.0000
  H   H8477     1.0  0.85113  0.92014  0.39538  1.0000
  H   H8478     1.0  0.81886  0.94928  0.39595  1.0000
  H   H8479     1.0  0.83100  0.96322  0.38032  1.0000
  C   C4961     1.0  0.78234  0.95354  0.35383  1.0000
  C   C4962     1.0  0.77697  0.95514  0.36587  1.0000
  C   C4963     1.0  0.78146  0.96247  0.37114  1.0000
  C   C4964     1.0  0.79141  0.96809  0.36445  1.0000
  C   C4965     1.0  0.79684  0.96631  0.35251  1.0000
  C   C4966     1.0  0.79233  0.95908  0.34727  1.0000
  H   H8480     1.0  0.76914  0.95108  0.37095  1.0000
  C   C4967     1.0  0.75027  0.89772  0.33299  1.0000
  H   H8481     1.0  0.80444  0.97063  0.34722  1.0000
  H   H8482     1.0  0.79665  0.95777  0.33807  1.0000
  C   C4968     1.0  0.79411  0.89851  0.32760  1.0000
  C   C4969     1.0  0.80384  0.89206  0.32000  1.0000
  C   C4970     1.0  0.81307  0.89800  0.31205  1.0000
  C   C4971     1.0  0.81237  0.91047  0.31150  1.0000
  C   C4972     1.0  0.80270  0.91685  0.31917  1.0000
  C   C4973     1.0  0.79362  0.91088  0.32726  1.0000
  H   H8483     1.0  0.80425  0.88248  0.32026  1.0000
  H   H8484     1.0  0.82058  0.89302  0.30615  1.0000
  H   H8485     1.0  0.80237  0.92635  0.31902  1.0000
  H   H8486     1.0  0.78623  0.91590  0.33318  1.0000
  C   C4974     1.0  0.78220  0.89030  0.39705  1.0000
  C   C4975     1.0  0.79288  0.89417  0.38964  1.0000
  C   C4976     1.0  0.80455  0.88774  0.39198  1.0000
  C   C4977     1.0  0.80553  0.87710  0.40130  1.0000
  C   C4978     1.0  0.79489  0.87301  0.40833  1.0000
  C   C4979     1.0  0.78325  0.87976  0.40642  1.0000
  H   H8487     1.0  0.79213  0.90241  0.38249  1.0000
  H   H8488     1.0  0.81279  0.89092  0.38656  1.0000
  H   H8489     1.0  0.79564  0.86476  0.41550  1.0000
  H   H8490     1.0  0.77503  0.87678  0.41221  1.0000
  C   C4980     1.0  0.87438  0.86177  0.25625  1.0000
  C   C4981     1.0  0.86649  0.86368  0.26748  1.0000
  C   C4982     1.0  0.86828  0.87184  0.27380  1.0000
  C   C4983     1.0  0.87820  0.87784  0.26906  1.0000
  C   C4984     1.0  0.88632  0.87558  0.25806  1.0000
  H   H8491     1.0  0.85882  0.85903  0.27119  1.0000
  H   H8492     1.0  0.86201  0.87347  0.28230  1.0000
  C   C4985     1.0  0.88477  0.86728  0.45865  1.0000
  C   C4986     1.0  0.88466  0.87301  0.44628  1.0000
  C   C4987     1.0  0.87420  0.87445  0.44138  1.0000
  C   C4988     1.0  0.86387  0.87000  0.44883  1.0000
  C   C4989     1.0  0.86412  0.86404  0.46109  1.0000
  C   C4990     1.0  0.87449  0.86272  0.46598  1.0000
  H   H8493     1.0  0.89264  0.87646  0.44050  1.0000
  H   H8494     1.0  0.87410  0.87902  0.43188  1.0000
  H   H8495     1.0  0.85620  0.86048  0.46685  1.0000
  H   H8496     1.0  0.92322  0.82013  0.26723  1.0000
  H   H8497     1.0  0.75235  0.91793  0.31475  1.0000
  C   C4991     1.0  0.82631  0.91473  0.36109  1.0000
  H   H8498     1.0  0.81725  0.94626  0.35524  1.0000
  C   C4992     1.0  0.78412  0.94867  0.31101  1.0000
  C   C4993     1.0  0.88431  0.86774  0.25158  1.0000
  H   H8499     1.0  0.80123  0.94138  0.37459  1.0000
  H   H8500     1.0  0.90280  0.84493  0.24936  1.0000
  H   H8501     1.0  0.91386  0.85917  0.23547  1.0000
  H   H8502     1.0  0.90487  0.92814  0.35675  1.0000
  H   H8503     1.0  0.80615  0.98116  0.32079  1.0000
  C   C4994     1.0  0.83281  0.93094  0.34266  1.0000
  N   N353      1.0  0.82843  0.92774  0.35645  1.0000
  H   H8504     1.0  0.92032  0.90988  0.34318  1.0000
  H   H8505     1.0  0.89206  0.82722  0.24098  1.0000
  H   H8506     1.0  0.86470  0.89011  0.46059  1.0000
  H   H8507     1.0  0.80902  0.93490  0.35589  1.0000
  H   H8508     1.0  0.76082  0.87855  0.33287  1.0000
  H   H8509     1.0  0.83450  0.94051  0.33978  1.0000
  H   H8510     1.0  0.79201  0.97686  0.32224  1.0000
  C   C4995     1.0  0.81633  0.93658  0.35961  1.0000
  C   C4996     1.0  0.88251  0.93465  0.35386  1.0000
  C   C4997     1.0  0.89658  0.83216  0.46795  1.0000
  H   H8511     1.0  0.83835  0.93979  0.35979  1.0000
  H   H8512     1.0  0.89583  0.82852  0.45019  1.0000
  H   H8513     1.0  0.84185  0.92516  0.33942  1.0000
  H   H8514     1.0  0.89943  0.91258  0.37490  1.0000
  H   H8515     1.0  0.84172  0.91082  0.45803  1.0000
  H   H8516     1.0  0.78577  0.94421  0.42430  1.0000
  C   C4998     1.0  0.79442  0.94063  0.41816  1.0000
  C   C4999     1.0  0.79696  0.96851  0.29470  1.0000
  C   C5000     1.0  0.84666  0.90105  0.45865  1.0000
  H   H8517     1.0  0.80077  0.93382  0.42368  1.0000
  H   H8518     1.0  0.75482  0.92396  0.42483  1.0000
  H   H8519     1.0  0.89500  0.94759  0.34451  1.0000
  H   H8520     1.0  0.86353  0.90625  0.45686  1.0000
  H   H8521     1.0  0.79905  0.94851  0.41358  1.0000
  H   H8522     1.0  0.89842  0.81838  0.26676  1.0000
  H   H8523     1.0  0.84209  0.90959  0.26567  1.0000
  H   H8524     1.0  0.86833  0.91314  0.47279  1.0000
  H   H8525     1.0  0.81717  0.94414  0.30812  1.0000
  H   H8526     1.0  0.80788  0.94301  0.29862  1.0000
  H   H8527     1.0  0.77716  0.96386  0.38037  1.0000
  H   H8528     1.0  0.80387  0.97385  0.28850  1.0000
  C   C5001     1.0  0.83580  0.90459  0.35504  1.0000
  C   C5002     1.0  0.85180  0.89024  0.23599  1.0000
  H   H8529     1.0  0.92963  0.82348  0.24259  1.0000
  H   H8530     1.0  0.85017  0.89531  0.26141  1.0000
  C   C5003     1.0  0.90667  0.84237  0.24029  1.0000
  H   H8531     1.0  0.88904  0.90044  0.47240  1.0000
  C   C5004     1.0  0.80072  0.97830  0.31570  1.0000
  Fe  Fe718     1.0  0.83277  0.98143  0.33556  1.0000
  C   C5005     1.0  0.92043  0.82262  0.24863  1.0000
  H   H8532     1.0  0.90678  0.82903  0.46604  1.0000
  H   H8533     1.0  0.78911  0.94142  0.30573  1.0000
  H   H8534     1.0  0.83202  0.90194  0.34839  1.0000
  H   H8535     1.0  0.88652  0.90578  0.38293  1.0000
  H   H8536     1.0  0.76591  0.91301  0.43300  1.0000
  H   H8537     1.0  0.84623  0.87868  0.47733  1.0000
  S   S1436     1.0  0.82830  0.98851  0.36778  1.0000
  C   C5006     1.0  0.85883  0.89884  0.46306  1.0000
  C   C5007     1.0  0.86900  0.90320  0.47725  1.0000
  H   H8538     1.0  0.89195  0.90604  0.32955  1.0000
  C   C5008     1.0  0.75369  0.88400  0.33903  1.0000
  H   H8539     1.0  0.88988  0.83381  0.26139  1.0000
  H   H8540     1.0  0.77798  0.95580  0.30553  1.0000
  H   H8541     1.0  0.87534  0.90043  0.25105  1.0000
  H   H8542     1.0  0.88257  0.93664  0.36278  1.0000
  H   H8543     1.0  0.90954  0.90212  0.35469  1.0000
  H   H8544     1.0  0.88927  0.92682  0.33290  1.0000
  H   H8545     1.0  0.91053  0.83232  0.26431  1.0000
  S   S1437     1.0  0.87168  0.85189  0.24825  1.0000
  Fe  Fe719     1.0  0.81517  0.98233  0.36021  1.0000
  C   C5009     1.0  0.82393  0.93015  0.33498  1.0000
  H   H8546     1.0  0.90696  0.92826  0.34092  1.0000
  H   H8547     1.0  0.85621  0.92521  0.36514  1.0000
  H   H8548     1.0  0.86666  0.87950  0.48014  1.0000
  C   C5010     1.0  0.86337  0.89307  0.23820  1.0000
  H   H8549     1.0  0.89471  0.84065  0.47166  1.0000
  H   H8550     1.0  0.89405  0.88013  0.25442  1.0000
  H   H8551     1.0  0.81097  0.92674  0.37892  1.0000
  H   H8552     1.0  0.84644  0.91702  0.47536  1.0000
  C   C5011     1.0  0.88794  0.91933  0.34115  1.0000
  H   H8553     1.0  0.87623  0.91371  0.36525  1.0000
  H   H8554     1.0  0.88292  0.84003  0.45587  1.0000
  C   C5012     1.0  0.88638  0.91288  0.36351  1.0000
  H   H8555     1.0  0.83423  0.92816  0.37284  1.0000
  H   H8556     1.0  0.81745  0.95612  0.28074  1.0000
  N   N354      1.0  0.89054  0.92220  0.35220  1.0000
  H   H8557     1.0  0.85103  0.88067  0.24095  1.0000
  H   H8558     1.0  0.86531  0.88701  0.24701  1.0000
  H   H8559     1.0  0.76508  0.89753  0.31153  1.0000
  C   C5013     1.0  0.75620  0.89519  0.31160  1.0000
  H   H8560     1.0  0.88401  0.82067  0.26249  1.0000
  H   H8561     1.0  0.92070  0.81254  0.25182  1.0000
  H   H8562     1.0  0.90541  0.90845  0.33264  1.0000
  H   H8563     1.0  0.85518  0.92289  0.35078  1.0000
  H   H8564     1.0  0.84355  0.91292  0.24398  1.0000
  H   H8565     1.0  0.87332  0.82538  0.47098  1.0000
  H   H8566     1.0  0.75630  0.90849  0.29395  1.0000
  H   H8567     1.0  0.75770  0.88324  0.34707  1.0000
  H   H8568     1.0  0.75801  0.88497  0.31392  1.0000
  H   H8569     1.0  0.85293  0.92157  0.24645  1.0000
  H   H8570     1.0  0.92567  0.84547  0.23691  1.0000
  C   C5014     1.0  0.90387  0.92286  0.35031  1.0000
  C   C5015     1.0  0.88175  0.89621  0.47145  1.0000
  H   H8571     1.0  0.84035  0.89503  0.46445  1.0000
  H   H8572     1.0  0.82587  0.91186  0.37120  1.0000
  H   H8573     1.0  0.91862  0.91011  0.35897  1.0000
  C   C5016     1.0  0.88943  0.91356  0.37560  1.0000
  H   H8574     1.0  0.77331  0.93111  0.42814  1.0000
  H   H8575     1.0  0.89010  0.90327  0.36230  1.0000
  N   N355      1.0  0.78596  0.92434  0.41267  1.0000
  C   C5017     1.0  0.79198  0.93539  0.40813  1.0000
  C   C5018     1.0  0.78610  0.91973  0.40150  1.0000
  C   C5019     1.0  0.79355  0.91458  0.42098  1.0000
  C   C5020     1.0  0.77304  0.92841  0.41963  1.0000
  C   C5021     1.0  0.89293  0.83614  0.45525  1.0000
  C   C5022     1.0  0.77839  0.92858  0.39235  1.0000
  C   C5023     1.0  0.79269  0.90104  0.42255  1.0000
  C   C5024     1.0  0.76460  0.91895  0.42393  1.0000
  H   H8576     1.0  0.80102  0.93317  0.40175  1.0000
  H   H8577     1.0  0.78630  0.94322  0.40270  1.0000
  H   H8578     1.0  0.78264  0.91112  0.40411  1.0000
  H   H8579     1.0  0.79577  0.91722  0.39636  1.0000
  H   H8580     1.0  0.80355  0.91460  0.41749  1.0000
  H   H8581     1.0  0.81239  0.96023  0.31881  1.0000
  H   H8582     1.0  0.78658  0.96077  0.32103  1.0000
  H   H8583     1.0  0.76809  0.93703  0.41437  1.0000
  C   C5025     1.0  0.81202  0.94968  0.30080  1.0000
  H   H8584     1.0  0.85831  0.90534  0.26459  1.0000
  H   H8585     1.0  0.81589  0.94099  0.37723  1.0000
  H   H8586     1.0  0.78180  0.93720  0.38811  1.0000
  H   H8587     1.0  0.90475  0.80849  0.46926  1.0000
  H   H8588     1.0  0.76845  0.93070  0.39668  1.0000
  H   H8589     1.0  0.79739  0.89522  0.43005  1.0000
  H   H8590     1.0  0.79768  0.89752  0.41410  1.0000
  H   H8591     1.0  0.78314  0.89959  0.42496  1.0000
  H   H8592     1.0  0.88368  0.88647  0.47631  1.0000
  H   H8593     1.0  0.76573  0.91311  0.41729  1.0000
  H   H8594     1.0  0.89897  0.84622  0.23524  1.0000
  N   N356      1.0  0.81514  0.86761  0.36088  1.0000
  C   C5026     1.0  0.82587  0.85748  0.36428  1.0000
  C   C5027     1.0  0.81274  0.86570  0.34927  1.0000
  C   C5028     1.0  0.80410  0.86603  0.37127  1.0000
  C   C5029     1.0  0.81853  0.87986  0.35920  1.0000
  C   C5030     1.0  0.82883  0.85642  0.37692  1.0000
  C   C5031     1.0  0.82348  0.86657  0.33794  1.0000
  C   C5032     1.0  0.79164  0.87463  0.36954  1.0000
  C   C5033     1.0  0.81099  0.89124  0.35178  1.0000
  H   H8595     1.0  0.82437  0.84830  0.36421  1.0000
  H   H8596     1.0  0.83455  0.85865  0.35739  1.0000
  H   H8597     1.0  0.80460  0.87231  0.34636  1.0000
  H   H8598     1.0  0.81038  0.85651  0.35092  1.0000
  H   H8599     1.0  0.80270  0.85640  0.37337  1.0000
  H   H8600     1.0  0.80567  0.86753  0.37987  1.0000
  H   H8601     1.0  0.81796  0.88189  0.36830  1.0000
  H   H8602     1.0  0.82837  0.87945  0.35442  1.0000
  H   H8603     1.0  0.83767  0.84970  0.37770  1.0000
  H   H8604     1.0  0.82999  0.86530  0.37809  1.0000
  H   H8605     1.0  0.82174  0.85281  0.38466  1.0000
  H   H8606     1.0  0.82034  0.86606  0.32977  1.0000
  H   H8607     1.0  0.82657  0.87541  0.33574  1.0000
  H   H8608     1.0  0.83147  0.85880  0.33907  1.0000
  H   H8609     1.0  0.79170  0.88430  0.36929  1.0000
  H   H8610     1.0  0.78444  0.87197  0.37771  1.0000
  H   H8611     1.0  0.78860  0.87388  0.36143  1.0000
  H   H8612     1.0  0.80837  0.89895  0.35670  1.0000
  H   H8613     1.0  0.80236  0.88996  0.35033  1.0000
  H   H8614     1.0  0.81669  0.89448  0.34263  1.0000
  N   N357      1.0  0.80223  0.96010  0.30539  1.0000
  C   C5034     1.0  0.78480  0.97797  0.29773  1.0000
  H   H8615     1.0  0.79130  0.91659  0.43037  1.0000
  H   H8616     1.0  0.87807  0.91874  0.34286  1.0000
  H   H8617     1.0  0.75852  0.90170  0.33165  1.0000
  H   H8618     1.0  0.85069  0.91221  0.36522  1.0000
  H   H8619     1.0  0.88285  0.89661  0.46150  1.0000
  N   N358      1.0  0.91043  0.82860  0.24134  1.0000
  H   H8620     1.0  0.87268  0.93482  0.35419  1.0000
  H   H8621     1.0  0.79528  0.96294  0.28891  1.0000
  H   H8622     1.0  0.89045  0.86637  0.24298  1.0000
  H   H8623     1.0  0.89730  0.79081  0.47875  1.0000
  S   S1438     1.0  0.84762  0.98734  0.34068  1.0000
  H   H8624     1.0  0.83756  0.89612  0.36223  1.0000
  H   H8625     1.0  0.77783  0.97705  0.29306  1.0000
  S   S1439     1.0  0.75191  0.92565  0.37182  1.0000
  H   H8626     1.0  0.84885  0.89917  0.44923  1.0000
  H   H8627     1.0  0.84487  0.90681  0.35036  1.0000
  N   N359      1.0  0.86331  0.90629  0.23788  1.0000
  C   C5035     1.0  0.83748  0.92995  0.36266  1.0000
  H   H8628     1.0  0.78051  0.97708  0.30761  1.0000
  H   H8629     1.0  0.84304  0.89607  0.23970  1.0000
  H   H8630     1.0  0.92619  0.83426  0.25766  1.0000
  H   H8631     1.0  0.88608  0.94555  0.33459  1.0000
  C   C5036     1.0  0.91980  0.82782  0.25998  1.0000
  H   H8632     1.0  0.77805  0.94420  0.31926  1.0000
  H   H8633     1.0  0.87896  0.95432  0.34615  1.0000
  H   H8634     1.0  0.82910  0.94506  0.28771  1.0000
  H   H8635     1.0  0.82601  0.96067  0.28932  1.0000
  H   H8636     1.0  0.81716  0.91433  0.35977  1.0000
  C   C5037     1.0  0.85083  0.90502  0.26029  1.0000
  C   C5038     1.0  0.89913  0.82306  0.24680  1.0000
  H   H8637     1.0  0.81578  0.93789  0.33527  1.0000
  H   H8638     1.0  0.79733  0.94683  0.32212  1.0000
  H   H8639     1.0  0.82879  0.93096  0.32517  1.0000
  H   H8640     1.0  0.77909  0.92402  0.38471  1.0000
  H   H8641     1.0  0.82085  0.92126  0.33790  1.0000
  H   H8642     1.0  0.89555  0.89907  0.34421  1.0000
  C   C5039     1.0  0.81093  0.93623  0.37344  1.0000
  C   C5040     1.0  0.80851  0.96668  0.31098  1.0000
  C   C5041     1.0  0.82162  0.95330  0.28901  1.0000
  C   C5042     1.0  0.91342  0.91050  0.35191  1.0000
  H   H8643     1.0  0.81656  0.96979  0.30430  1.0000
  C   C5043     1.0  0.89454  0.81072  0.47248  1.0000
  H   H8644     1.0  0.89777  0.84359  0.44953  1.0000
  H   H8645     1.0  0.89103  0.81189  0.46400  1.0000
  H   H8646     1.0  0.87457  0.91591  0.24300  1.0000
  C   C5044     1.0  0.87656  0.82706  0.47861  1.0000
  H   H8647     1.0  0.90137  0.81301  0.24701  1.0000
  C   C5045     1.0  0.89267  0.82418  0.26012  1.0000
  H   H8648     1.0  0.78638  0.98752  0.29412  1.0000
  C   C5046     1.0  0.87479  0.90650  0.24188  1.0000
  H   H8649     1.0  0.79892  0.98615  0.30796  1.0000
  C   C5047     1.0  0.75420  0.89922  0.29824  1.0000
  N   N360      1.0  0.85797  0.89878  0.47646  1.0000
  H   H8650     1.0  0.87452  0.85816  0.47543  1.0000
  H   H8651     1.0  0.89483  0.90288  0.23738  1.0000
  H   H8652     1.0  0.76066  0.89271  0.29265  1.0000
  C   C5048     1.0  0.89047  0.79911  0.48115  1.0000
  N   N361      1.0  0.89037  0.82247  0.47727  1.0000
  H   H8653     1.0  0.87408  0.83723  0.47784  1.0000
  H   H8654     1.0  0.83804  0.90506  0.48059  1.0000
  C   C5049     1.0  0.84652  0.90760  0.48122  1.0000
  H   H8655     1.0  0.88128  0.79849  0.48018  1.0000
  C   C5050     1.0  0.85853  0.88592  0.48418  1.0000
  H   H8656     1.0  0.91371  0.82270  0.48327  1.0000
  H   H8657     1.0  0.84942  0.55671  0.58046  1.0000
  Fe  Fe720     1.0  0.88960  0.76386  0.59421  1.0000
  S   S1440     1.0  0.87543  0.77809  0.60328  1.0000
  S   S1441     1.0  0.89041  0.74444  0.60544  1.0000
  Fe  Fe721     1.0  0.89919  0.78290  0.57260  1.0000
  S   S1442     1.0  0.88575  0.79855  0.57990  1.0000
  S   S1443     1.0  0.91245  0.78815  0.55481  1.0000
  Fe  Fe722     1.0  0.89039  0.78882  0.59811  1.0000
  S   S1444     1.0  0.89142  0.80114  0.60996  1.0000
  Fe  Fe723     1.0  0.87195  0.78672  0.58437  1.0000
  S   S1445     1.0  0.85313  0.79605  0.58052  1.0000
  S   S1446     1.0  0.90507  0.77388  0.59061  1.0000
  S   S1447     1.0  0.88494  0.77162  0.57550  1.0000
  Fe  Fe724     1.0  0.88907  0.84449  0.50997  1.0000
  S   S1448     1.0  0.89164  0.85666  0.52109  1.0000
  S   S1449     1.0  0.88163  0.82723  0.51840  1.0000
  C   C5051     1.0  0.89401  0.54616  0.70427  1.0000
  Fe  Fe725     1.0  0.90876  0.85878  0.50666  1.0000
  S   S1450     1.0  0.92726  0.85679  0.51117  1.0000
  Fe  Fe726     1.0  0.88218  0.87209  0.50804  1.0000
  S   S1451     1.0  0.86782  0.88790  0.51417  1.0000
  C   C5052     1.0  0.87965  0.55013  0.73283  1.0000
  S   S1452     1.0  0.87784  0.85974  0.49835  1.0000
  Fe  Fe727     1.0  0.91697  0.86352  0.59907  1.0000
  S   S1453     1.0  0.91983  0.85481  0.58297  1.0000
  S   S1454     1.0  0.89753  0.86866  0.61005  1.0000
  Fe  Fe728     1.0  0.94477  0.86248  0.59631  1.0000
  S   S1455     1.0  0.94932  0.85375  0.57979  1.0000
  S   S1456     1.0  0.96290  0.86385  0.60050  1.0000
  Fe  Fe729     1.0  0.93306  0.86728  0.57370  1.0000
  S   S1457     1.0  0.93435  0.87774  0.55404  1.0000
  Fe  Fe730     1.0  0.93577  0.84206  0.59053  1.0000
  S   S1458     1.0  0.94021  0.82197  0.58993  1.0000
  S   S1459     1.0  0.92926  0.87710  0.58925  1.0000
  S   S1460     1.0  0.93209  0.84963  0.60753  1.0000
  Fe  Fe731     1.0  0.80837  0.88127  0.59370  1.0000
  S   S1461     1.0  0.81041  0.86299  0.58896  1.0000
  S   S1462     1.0  0.78949  0.89312  0.59906  1.0000
  Fe  Fe732     1.0  0.83633  0.88022  0.58695  1.0000
  S   S1463     1.0  0.84023  0.86210  0.58147  1.0000
  S   S1464     1.0  0.85251  0.88953  0.58259  1.0000
  Fe  Fe733     1.0  0.82406  0.86997  0.57243  1.0000
  S   S1465     1.0  0.82435  0.86741  0.55365  1.0000
  Fe  Fe734     1.0  0.82635  0.85700  0.59849  1.0000
  S   S1466     1.0  0.83152  0.83853  0.61058  1.0000
  S   S1467     1.0  0.82107  0.88863  0.57650  1.0000
  S   S1468     1.0  0.82335  0.87470  0.60480  1.0000
  H   H8658     1.0  0.76865  0.85709  0.59996  1.0000
  C   C5053     1.0  0.86202  0.85395  0.55423  1.0000
  S   S1469     1.0  0.98429  0.89155  0.62939  1.0000
  H   H8659     1.0  0.94377  0.80876  0.54588  1.0000
  H   H8660     1.0  0.79592  0.92440  0.53846  1.0000
  S   S1470     1.0  0.83880  0.51124  0.60141  1.0000
  H   H8661     1.0  0.84899  0.87081  0.49214  1.0000
  H   H8662     1.0  0.93936  0.83000  0.56329  1.0000
  C   C5054     1.0  0.86908  0.68054  0.65937  1.0000
  Fe  Fe735     1.0  0.89318  0.61917  0.69538  1.0000
  S   S1471     1.0  0.88391  0.61449  0.68283  1.0000
  S   S1472     1.0  0.90670  0.63144  0.68574  1.0000
  Fe  Fe736     1.0  0.87864  0.60532  0.71855  1.0000
  S   S1473     1.0  0.86821  0.59950  0.70772  1.0000
  H   H8663     1.0  0.88121  0.50282  0.64235  1.0000
  Fe  Fe737     1.0  0.88641  0.59569  0.69480  1.0000
  S   S1474     1.0  0.89437  0.57930  0.68592  1.0000
  Fe  Fe738     1.0  0.86667  0.61888  0.69678  1.0000
  S   S1475     1.0  0.84851  0.62949  0.69214  1.0000
  S   S1476     1.0  0.89713  0.59988  0.70644  1.0000
  S   S1477     1.0  0.87562  0.62510  0.70857  1.0000
  Fe  Fe739     1.0  0.98293  0.61144  0.61443  1.0000
  S   S1478     1.0  0.97189  0.62175  0.60004  1.0000
  Fe  Fe740     1.0  0.96033  0.61113  0.63507  1.0000
  S   S1479     1.0  0.94738  0.62193  0.62269  1.0000
  S   S1480     1.0  0.95438  0.60255  0.65499  1.0000
  Fe  Fe741     1.0  0.95834  0.60948  0.60984  1.0000
  S   S1481     1.0  0.94699  0.60396  0.59957  1.0000
  Fe  Fe742     1.0  0.96179  0.63327  0.61396  1.0000
  S   S1482     1.0  0.95699  0.65370  0.60742  1.0000
  S   S1483     1.0  0.97050  0.59781  0.62280  1.0000
  S   S1484     1.0  0.97363  0.62385  0.62776  1.0000
  Fe  Fe743     1.0  0.87628  0.68386  0.60501  1.0000
  S   S1485     1.0  0.87172  0.68212  0.62551  1.0000
  S   S1486     1.0  0.87407  0.70222  0.59152  1.0000
  Fe  Fe744     1.0  0.88642  0.65611  0.60691  1.0000
  S   S1487     1.0  0.88313  0.65234  0.62743  1.0000
  S   S1488     1.0  0.89618  0.63965  0.59841  1.0000
  Fe  Fe745     1.0  0.86499  0.66527  0.62610  1.0000
  S   S1489     1.0  0.84723  0.66103  0.63835  1.0000
  Fe  Fe746     1.0  0.89019  0.66938  0.62490  1.0000
  S   S1490     1.0  0.90294  0.66948  0.63663  1.0000
  S   S1491     1.0  0.86775  0.66805  0.60556  1.0000
  S   S1492     1.0  0.89533  0.67210  0.60438  1.0000
  Fe  Fe747     1.0  0.88018  0.55115  0.61653  1.0000
  S   S1493     1.0  0.88789  0.54790  0.63353  1.0000
  S   S1494     1.0  0.88063  0.53507  0.60798  1.0000
  Fe  Fe748     1.0  0.87580  0.57906  0.61322  1.0000
  S   S1495     1.0  0.88302  0.57806  0.62973  1.0000
  S   S1496     1.0  0.86750  0.59782  0.60328  1.0000
  Fe  Fe749     1.0  0.89812  0.56302  0.62314  1.0000
  S   S1497     1.0  0.91741  0.56121  0.62586  1.0000
  Fe  Fe750     1.0  0.87233  0.56326  0.63884  1.0000
  S   S1498     1.0  0.86138  0.56477  0.65788  1.0000
  S   S1499     1.0  0.89180  0.56516  0.60561  1.0000
  S   S1500     1.0  0.86368  0.56537  0.62278  1.0000
  C   C5055     1.0  0.88784  0.62809  0.60067  1.0000
  C   C5056     1.0  0.89408  0.61573  0.60204  1.0000
  C   C5057     1.0  0.88777  0.60637  0.60327  1.0000
  C   C5058     1.0  0.87528  0.60937  0.60271  1.0000
  C   C5059     1.0  0.86900  0.62172  0.60147  1.0000
  C   C5060     1.0  0.87521  0.63105  0.60066  1.0000
  H   H8664     1.0  0.90383  0.61340  0.60207  1.0000
  H   H8665     1.0  0.89267  0.59687  0.60421  1.0000
  H   H8666     1.0  0.85932  0.62409  0.60107  1.0000
  H   H8667     1.0  0.87034  0.64057  0.59958  1.0000
  C   C5061     1.0  0.93879  0.59210  0.60716  1.0000
  C   C5062     1.0  0.92761  0.59247  0.60409  1.0000
  C   C5063     1.0  0.92092  0.58312  0.60987  1.0000
  C   C5064     1.0  0.92553  0.57314  0.61854  1.0000
  C   C5065     1.0  0.93680  0.57265  0.62152  1.0000
  C   C5066     1.0  0.94336  0.58218  0.61595  1.0000
  H   H8668     1.0  0.92408  0.59998  0.59722  1.0000
  H   H8669     1.0  0.91233  0.58349  0.60744  1.0000
  H   H8670     1.0  0.94042  0.56492  0.62821  1.0000
  H   H8671     1.0  0.95202  0.58172  0.61830  1.0000
  C   C5067     1.0  0.94239  0.65883  0.61589  1.0000
  C   C5068     1.0  0.93895  0.65336  0.62831  1.0000
  C   C5069     1.0  0.92689  0.65692  0.63481  1.0000
  C   C5070     1.0  0.91816  0.66548  0.62872  1.0000
  C   C5071     1.0  0.92160  0.67078  0.61626  1.0000
  C   C5072     1.0  0.93381  0.66778  0.60995  1.0000
  H   H8672     1.0  0.94560  0.64641  0.63291  1.0000
  H   H8673     1.0  0.92423  0.65275  0.64442  1.0000
  H   H8674     1.0  0.91489  0.67730  0.61149  1.0000
  H   H8675     1.0  0.93645  0.67190  0.60032  1.0000
  C   C5073     1.0  0.92010  0.62353  0.67726  1.0000
  C   C5074     1.0  0.92372  0.61073  0.68064  1.0000
  C   C5075     1.0  0.93436  0.60444  0.67384  1.0000
  C   C5076     1.0  0.94122  0.61085  0.66335  1.0000
  C   C5077     1.0  0.93753  0.62364  0.65980  1.0000
  C   C5078     1.0  0.92708  0.63000  0.66689  1.0000
  H   H8676     1.0  0.91847  0.60568  0.68865  1.0000
  H   H8677     1.0  0.93720  0.59455  0.67663  1.0000
  H   H8678     1.0  0.94283  0.62865  0.65174  1.0000
  H   H8679     1.0  0.92432  0.63990  0.66429  1.0000
  C   C5079     1.0  0.88495  0.57522  0.67844  1.0000
  C   C5080     1.0  0.89045  0.56752  0.67001  1.0000
  C   C5081     1.0  0.88323  0.56429  0.66369  1.0000
  C   C5082     1.0  0.87041  0.56827  0.66621  1.0000
  C   C5083     1.0  0.86484  0.57552  0.67505  1.0000
  C   C5084     1.0  0.87212  0.57926  0.68095  1.0000
  H   H8680     1.0  0.90037  0.56431  0.66808  1.0000
  H   H8681     1.0  0.88761  0.55866  0.65689  1.0000
  H   H8682     1.0  0.85491  0.57842  0.67713  1.0000
  H   H8683     1.0  0.86779  0.58514  0.68752  1.0000
  C   C5085     1.0  0.84857  0.63826  0.67716  1.0000
  C   C5086     1.0  0.83729  0.64412  0.67374  1.0000
  C   C5087     1.0  0.83700  0.65109  0.66181  1.0000
  C   C5088     1.0  0.84799  0.65235  0.65325  1.0000
  C   C5089     1.0  0.85929  0.64645  0.65664  1.0000
  C   C5090     1.0  0.85958  0.63938  0.66857  1.0000
  H   H8684     1.0  0.82874  0.64325  0.68034  1.0000
  H   H8685     1.0  0.82823  0.65558  0.65923  1.0000
  H   H8686     1.0  0.86780  0.64735  0.65013  1.0000
  H   H8687     1.0  0.86830  0.63486  0.67111  1.0000
  H   H8688     1.0  0.85195  0.65545  0.69344  1.0000
  C   C5091     1.0  0.85049  0.51807  0.60282  1.0000
  C   C5092     1.0  0.84716  0.52792  0.60900  1.0000
  C   C5093     1.0  0.85620  0.53336  0.61059  1.0000
  C   C5094     1.0  0.86869  0.52916  0.60577  1.0000
  C   C5095     1.0  0.87197  0.51958  0.59927  1.0000
  C   C5096     1.0  0.86297  0.51396  0.59793  1.0000
  H   H8689     1.0  0.83752  0.53119  0.61280  1.0000
  H   H8690     1.0  0.85353  0.54062  0.61573  1.0000
  H   H8691     1.0  0.88159  0.51634  0.59539  1.0000
  H   H8692     1.0  0.86568  0.50651  0.59301  1.0000
  C   C5097     1.0  0.96846  0.87181  0.60862  1.0000
  C   C5098     1.0  0.96066  0.88018  0.61565  1.0000
  C   C5099     1.0  0.96565  0.88626  0.62181  1.0000
  C   C5100     1.0  0.97847  0.88407  0.62102  1.0000
  C   C5101     1.0  0.98626  0.87575  0.61395  1.0000
  C   C5102     1.0  0.98127  0.86969  0.60779  1.0000
  H   H8693     1.0  0.95078  0.88189  0.61642  1.0000
  H   H8694     1.0  0.95953  0.89266  0.62727  1.0000
  C   C5103     1.0  0.81347  0.90118  0.54524  1.0000
  H   H8695     1.0  0.98741  0.86326  0.60237  1.0000
  C   C5104     1.0  0.88517  0.87446  0.60218  1.0000
  C   C5105     1.0  0.87336  0.87896  0.60869  1.0000
  C   C5106     1.0  0.86325  0.88329  0.60281  1.0000
  C   C5107     1.0  0.86484  0.88306  0.59038  1.0000
  C   C5108     1.0  0.87668  0.87876  0.58381  1.0000
  C   C5109     1.0  0.88680  0.87444  0.58969  1.0000
  H   H8696     1.0  0.87205  0.87921  0.61829  1.0000
  H   H8697     1.0  0.85426  0.88704  0.60783  1.0000
  H   H8698     1.0  0.87807  0.87894  0.57410  1.0000
  H   H8699     1.0  0.89586  0.87124  0.58450  1.0000
  C   C5110     1.0  0.85566  0.88230  0.52504  1.0000
  C   C5111     1.0  0.85010  0.87396  0.52259  1.0000
  C   C5112     1.0  0.84025  0.86966  0.53128  1.0000
  C   C5113     1.0  0.83627  0.87331  0.54261  1.0000
  C   C5114     1.0  0.84200  0.88145  0.54514  1.0000
  C   C5115     1.0  0.85152  0.88614  0.53626  1.0000
  H   H8700     1.0  0.85332  0.87091  0.51396  1.0000
  H   H8701     1.0  0.83590  0.86327  0.52935  1.0000
  H   H8702     1.0  0.83916  0.88415  0.55395  1.0000
  H   H8703     1.0  0.85591  0.89247  0.53824  1.0000
  C   C5116     1.0  0.92865  0.86174  0.52396  1.0000
  C   C5117     1.0  0.91837  0.86667  0.53223  1.0000
  C   C5118     1.0  0.92003  0.87091  0.54203  1.0000
  C   C5119     1.0  0.93196  0.87024  0.54355  1.0000
  C   C5120     1.0  0.94217  0.86499  0.53547  1.0000
  C   C5121     1.0  0.94051  0.86067  0.52580  1.0000
  H   H8704     1.0  0.90917  0.86756  0.53086  1.0000
  H   H8705     1.0  0.91210  0.87520  0.54809  1.0000
  H   H8706     1.0  0.95139  0.86463  0.53644  1.0000
  H   H8707     1.0  0.94849  0.85686  0.51946  1.0000
  C   C5122     1.0  0.90437  0.79809  0.54374  1.0000
  C   C5123     1.0  0.89202  0.79797  0.54459  1.0000
  C   C5124     1.0  0.88529  0.80661  0.53636  1.0000
  C   C5125     1.0  0.89071  0.81573  0.52762  1.0000
  C   C5126     1.0  0.90314  0.81572  0.52658  1.0000
  C   C5127     1.0  0.91005  0.80668  0.53444  1.0000
  H   H8708     1.0  0.88760  0.79131  0.55168  1.0000
  H   H8709     1.0  0.87571  0.80651  0.53713  1.0000
  H   H8710     1.0  0.90742  0.82267  0.51975  1.0000
  H   H8711     1.0  0.91967  0.80661  0.53358  1.0000
  C   C5128     1.0  0.84664  0.80771  0.58903  1.0000
  C   C5129     1.0  0.83803  0.81807  0.58477  1.0000
  C   C5130     1.0  0.83343  0.82770  0.59125  1.0000
  C   C5131     1.0  0.83703  0.82670  0.60227  1.0000
  C   C5132     1.0  0.84526  0.81615  0.60672  1.0000
  C   C5133     1.0  0.85024  0.80682  0.59999  1.0000
  H   H8712     1.0  0.83513  0.81877  0.57635  1.0000
  H   H8713     1.0  0.82699  0.83581  0.58782  1.0000
  H   H8714     1.0  0.84790  0.81522  0.61532  1.0000
  H   H8715     1.0  0.85674  0.79888  0.60344  1.0000
  C   C5134     1.0  0.90526  0.80651  0.60511  1.0000
  C   C5135     1.0  0.90538  0.81825  0.60641  1.0000
  C   C5136     1.0  0.91616  0.82296  0.60194  1.0000
  C   C5137     1.0  0.92700  0.81575  0.59653  1.0000
  C   C5138     1.0  0.92711  0.80373  0.59586  1.0000
  C   C5139     1.0  0.91617  0.79922  0.59986  1.0000
  H   H8716     1.0  0.89714  0.82383  0.61069  1.0000
  H   H8717     1.0  0.91607  0.83215  0.60274  1.0000
  H   H8718     1.0  0.93560  0.79799  0.59208  1.0000
  H   H8719     1.0  0.91623  0.79003  0.59909  1.0000
  C   C5140     1.0  0.88441  0.73381  0.60139  1.0000
  C   C5141     1.0  0.88467  0.73398  0.58912  1.0000
  C   C5142     1.0  0.88120  0.72439  0.58617  1.0000
  C   C5143     1.0  0.87770  0.71450  0.59544  1.0000
  C   C5144     1.0  0.87717  0.71453  0.60771  1.0000
  C   C5145     1.0  0.88042  0.72420  0.61067  1.0000
  H   H8720     1.0  0.88793  0.74127  0.58188  1.0000
  H   H8721     1.0  0.88162  0.72442  0.57666  1.0000
  H   H8722     1.0  0.87428  0.70709  0.61494  1.0000
  H   H8723     1.0  0.88011  0.72408  0.62018  1.0000
  C   C5146     1.0  0.76008  0.89408  0.57825  1.0000
  C   C5147     1.0  0.77146  0.88580  0.57662  1.0000
  C   C5148     1.0  0.78052  0.88552  0.58291  1.0000
  C   C5149     1.0  0.77823  0.89340  0.59104  1.0000
  C   C5150     1.0  0.76678  0.90163  0.59278  1.0000
  H   H8724     1.0  0.80643  0.88391  0.53654  1.0000
  H   H8725     1.0  0.77331  0.87960  0.57040  1.0000
  H   H8726     1.0  0.78927  0.87916  0.58148  1.0000
  H   H8727     1.0  0.76497  0.90780  0.59903  1.0000
  C   C5151     1.0  0.93217  0.62009  0.57382  1.0000
  H   H8728     1.0  0.92274  0.63141  0.59460  1.0000
  H   H8729     1.0  0.92614  0.62359  0.56699  1.0000
  H   H8730     1.0  0.93828  0.61130  0.57177  1.0000
  H   H8731     1.0  0.92644  0.61787  0.58312  1.0000
  N   N362      1.0  0.91663  0.70918  0.61635  1.0000
  C   C5152     1.0  0.91525  0.71323  0.60307  1.0000
  C   C5153     1.0  0.91538  0.72063  0.62105  1.0000
  C   C5154     1.0  0.90642  0.70249  0.62364  1.0000
  C   C5155     1.0  0.92911  0.70077  0.61659  1.0000
  C   C5156     1.0  0.91361  0.70333  0.59709  1.0000
  C   C5157     1.0  0.92446  0.72909  0.61376  1.0000
  C   C5158     1.0  0.90230  0.70237  0.63756  1.0000
  C   C5159     1.0  0.93264  0.69535  0.62923  1.0000
  H   H8732     1.0  0.90721  0.72099  0.60209  1.0000
  H   H8733     1.0  0.92338  0.71687  0.59706  1.0000
  H   H8734     1.0  0.91639  0.71843  0.63075  1.0000
  H   H8735     1.0  0.90589  0.72637  0.62111  1.0000
  H   H8736     1.0  0.89787  0.70655  0.61998  1.0000
  H   H8737     1.0  0.90888  0.69278  0.62262  1.0000
  H   H8738     1.0  0.92979  0.69262  0.61279  1.0000
  H   H8739     1.0  0.93667  0.70508  0.61024  1.0000
  H   H8740     1.0  0.92179  0.69567  0.59650  1.0000
  H   H8741     1.0  0.90517  0.69964  0.60179  1.0000
  H   H8742     1.0  0.91247  0.70766  0.58750  1.0000
  H   H8743     1.0  0.93421  0.72420  0.61321  1.0000
  H   H8744     1.0  0.92265  0.73352  0.60441  1.0000
  H   H8745     1.0  0.92303  0.73673  0.61858  1.0000
  H   H8746     1.0  0.89750  0.71168  0.63927  1.0000
  H   H8747     1.0  0.90994  0.69866  0.64254  1.0000
  H   H8748     1.0  0.89551  0.69629  0.64166  1.0000
  H   H8749     1.0  0.92870  0.68704  0.63396  1.0000
  H   H8750     1.0  0.92996  0.70206  0.63530  1.0000
  H   H8751     1.0  0.94286  0.69262  0.62789  1.0000
  H   H8752     1.0  0.91282  0.81928  0.56341  1.0000
  C   C5160     1.0  0.98389  0.88758  0.67218  1.0000
  C   C5161     1.0  0.86828  0.82189  0.49078  1.0000
  H   H8753     1.0  0.86143  0.68328  0.65431  1.0000
  H   H8754     1.0  0.94367  0.80807  0.56907  1.0000
  C   C5162     1.0  0.92526  0.82955  0.54069  1.0000
  H   H8755     1.0  0.97318  0.88515  0.66052  1.0000
  H   H8756     1.0  0.93608  0.84115  0.54999  1.0000
  H   H8757     1.0  0.97363  0.86278  0.64183  1.0000
  C   C5163     1.0  0.98545  0.86328  0.65356  1.0000
  H   H8758     1.0  0.86218  0.50974  0.62560  1.0000
  H   H8759     1.0  0.94489  0.79415  0.56409  1.0000
  H   H8760     1.0  0.96068  0.87339  0.67132  1.0000
  H   H8761     1.0  0.85895  0.50432  0.64175  1.0000
  H   H8762     1.0  0.75646  0.87380  0.61855  1.0000
  N   N363      1.0  0.98620  0.86767  0.66458  1.0000
  H   H8763     1.0  0.87675  0.57451  0.73067  1.0000
  C   C5164     1.0  0.93536  0.81051  0.55305  1.0000
  H   H8764     1.0  0.92905  0.83081  0.52101  1.0000
  H   H8765     1.0  0.92220  0.82205  0.57202  1.0000
  H   H8766     1.0  0.95813  0.82079  0.55357  1.0000
  H   H8767     1.0  0.98854  0.88554  0.65341  1.0000
  H   H8768     1.0  0.99504  0.61116  0.66691  1.0000
  H   H8769     1.0  0.97211  0.61630  0.65584  1.0000
  H   H8770     1.0  0.89665  0.57709  0.73213  1.0000
  H   H8771     1.0  0.98219  0.86144  0.68436  1.0000
  H   H8772     1.0  0.93035  0.80111  0.57216  1.0000
  C   C5165     1.0  0.93878  0.80317  0.56536  1.0000
  H   H8773     1.0  0.93853  0.81775  0.52837  1.0000
  H   H8774     1.0  0.99166  0.86737  0.64514  1.0000
  H   H8775     1.0  0.88095  0.68259  0.67730  1.0000
  H   H8776     1.0  0.87149  0.55661  0.70983  1.0000
  H   H8777     1.0  0.85699  0.67379  0.67605  1.0000
  H   H8778     1.0  0.96983  0.88810  0.58475  1.0000
  H   H8779     1.0  0.98102  0.60117  0.64566  1.0000
  H   H8780     1.0  0.88976  0.55215  0.69653  1.0000
  C   C5166     1.0  0.96460  0.86749  0.67922  1.0000
  H   H8781     1.0  0.88413  0.50908  0.62587  1.0000
  H   H8782     1.0  0.98872  0.85313  0.65473  1.0000
  H   H8783     1.0  0.89201  0.66917  0.66487  1.0000
  H   H8784     1.0  0.87762  0.67747  0.65280  1.0000
  H   H8785     1.0  0.92197  0.83970  0.53958  1.0000
  H   H8786     1.0  0.89915  0.64957  0.65860  1.0000
  H   H8787     1.0  0.87749  0.66639  0.70346  1.0000
  C   C5167     1.0  0.86618  0.50326  0.63329  1.0000
  H   H8788     1.0  0.95411  0.82337  0.53872  1.0000
  C   C5168     1.0  0.87272  0.56380  0.71395  1.0000
  C   C5169     1.0  0.95849  0.88335  0.56895  1.0000
  H   H8789     1.0  0.86470  0.66259  0.66724  1.0000
  H   H8790     1.0  0.90616  0.84184  0.55576  1.0000
  Fe  Fe751     1.0  0.84141  0.49198  0.59766  1.0000
  S   S1501     1.0  0.74918  0.89421  0.56990  1.0000
  N   N364      1.0  0.88296  0.55923  0.72107  1.0000
  H   H8791     1.0  0.89502  0.65697  0.67739  1.0000
  H   H8792     1.0  0.80649  0.90474  0.52290  1.0000
  H   H8793     1.0  0.88372  0.65535  0.65639  1.0000
  H   H8794     1.0  0.86901  0.82564  0.49849  1.0000
  H   H8795     1.0  0.85994  0.88558  0.49347  1.0000
  N   N365      1.0  0.84685  0.75667  0.59623  1.0000
  C   C5170     1.0  0.85809  0.75954  0.58667  1.0000
  C   C5171     1.0  0.84546  0.76308  0.60658  1.0000
  C   C5172     1.0  0.83538  0.76126  0.59094  1.0000
  C   C5173     1.0  0.84859  0.74290  0.60064  1.0000
  C   C5174     1.0  0.86040  0.75500  0.57460  1.0000
  C   C5175     1.0  0.85447  0.75703  0.61538  1.0000
  C   C5176     1.0  0.83280  0.77510  0.58489  1.0000
  H   H8796     1.0  0.85778  0.76962  0.58409  1.0000
  H   H8797     1.0  0.86655  0.75553  0.59051  1.0000
  H   H8798     1.0  0.83594  0.76405  0.61230  1.0000
  H   H8799     1.0  0.84673  0.77277  0.60287  1.0000
  H   H8800     1.0  0.83555  0.75594  0.58405  1.0000
  H   H8801     1.0  0.82708  0.75966  0.59824  1.0000
  H   H8802     1.0  0.84943  0.73834  0.59295  1.0000
  H   H8803     1.0  0.85753  0.73883  0.60364  1.0000
  H   H8804     1.0  0.86220  0.74482  0.57612  1.0000
  H   H8805     1.0  0.85278  0.75917  0.56958  1.0000
  H   H8806     1.0  0.86882  0.75785  0.56838  1.0000
  H   H8807     1.0  0.86419  0.75552  0.61037  1.0000
  H   H8808     1.0  0.85353  0.76323  0.62169  1.0000
  H   H8809     1.0  0.85242  0.74815  0.62120  1.0000
  H   H8810     1.0  0.84002  0.77746  0.57666  1.0000
  H   H8811     1.0  0.83184  0.78103  0.59144  1.0000
  H   H8812     1.0  0.82395  0.77751  0.58173  1.0000
  N   N366      1.0  0.91199  0.60531  0.64268  1.0000
  C   C5177     1.0  0.90225  0.59798  0.64966  1.0000
  C   C5178     1.0  0.91345  0.61284  0.65095  1.0000
  C   C5179     1.0  0.92418  0.59697  0.63897  1.0000
  C   C5180     1.0  0.90801  0.61336  0.63116  1.0000
  C   C5181     1.0  0.90093  0.58811  0.64349  1.0000
  C   C5182     1.0  0.90295  0.62410  0.65290  1.0000
  C   C5183     1.0  0.92943  0.58756  0.64960  1.0000
  C   C5184     1.0  0.91643  0.62221  0.62320  1.0000
  H   H8813     1.0  0.90385  0.59322  0.65906  1.0000
  H   H8814     1.0  0.89303  0.60417  0.65125  1.0000
  H   H8815     1.0  0.92228  0.61614  0.64758  1.0000
  H   H8816     1.0  0.91416  0.60707  0.66027  1.0000
  H   H8817     1.0  0.92350  0.59181  0.63236  1.0000
  H   H8818     1.0  0.93137  0.60242  0.63393  1.0000
  H   H8819     1.0  0.90757  0.60768  0.62487  1.0000
  H   H8820     1.0  0.89844  0.61877  0.63317  1.0000
  H   H8821     1.0  0.89241  0.58474  0.64848  1.0000
  H   H8822     1.0  0.90003  0.59165  0.63379  1.0000
  H   H8823     1.0  0.90873  0.58002  0.64399  1.0000
  H   H8824     1.0  0.89372  0.62176  0.65560  1.0000
  H   H8825     1.0  0.90415  0.62768  0.66048  1.0000
  H   H8826     1.0  0.90328  0.63167  0.64461  1.0000
  H   H8827     1.0  0.92324  0.58116  0.65487  1.0000
  H   H8828     1.0  0.93149  0.59217  0.65594  1.0000
  H   H8829     1.0  0.93830  0.58187  0.64567  1.0000
  H   H8830     1.0  0.92383  0.61760  0.61648  1.0000
  H   H8831     1.0  0.92067  0.62597  0.62862  1.0000
  H   H8832     1.0  0.91076  0.63035  0.61816  1.0000
  C   C5185     1.0  0.86180  0.83357  0.56868  1.0000
  C   C5186     1.0  0.86740  0.86158  0.56000  1.0000
  C   C5187     1.0  0.86680  0.83436  0.57961  1.0000
  H   H8833     1.0  0.85190  0.85581  0.55783  1.0000
  H   H8834     1.0  0.85164  0.83699  0.57095  1.0000
  H   H8835     1.0  0.86764  0.85771  0.56980  1.0000
  H   H8836     1.0  0.85975  0.55543  0.56580  1.0000
  H   H8837     1.0  0.87669  0.86295  0.55467  1.0000
  H   H8838     1.0  0.85992  0.84059  0.58518  1.0000
  H   H8839     1.0  0.87562  0.83745  0.57695  1.0000
  H   H8840     1.0  0.86845  0.82509  0.58572  1.0000
  N   N367      1.0  0.86550  0.84196  0.62046  1.0000
  C   C5188     1.0  0.86678  0.84878  0.60721  1.0000
  C   C5189     1.0  0.85265  0.84681  0.62712  1.0000
  C   C5190     1.0  0.86719  0.82842  0.62060  1.0000
  C   C5191     1.0  0.87536  0.84418  0.62562  1.0000
  C   C5192     1.0  0.87913  0.84479  0.59849  1.0000
  C   C5193     1.0  0.84936  0.86068  0.62723  1.0000
  C   C5194     1.0  0.86116  0.82034  0.63245  1.0000
  C   C5195     1.0  0.87511  0.83908  0.63945  1.0000
  H   H8841     1.0  0.85917  0.84803  0.60324  1.0000
  H   H8842     1.0  0.86585  0.85874  0.60649  1.0000
  H   H8843     1.0  0.85070  0.84191  0.63685  1.0000
  H   H8844     1.0  0.84572  0.84502  0.62299  1.0000
  H   H8845     1.0  0.86341  0.82717  0.61310  1.0000
  H   H8846     1.0  0.87712  0.82401  0.61868  1.0000
  H   H8847     1.0  0.88468  0.83995  0.62094  1.0000
  H   H8848     1.0  0.87572  0.85413  0.62348  1.0000
  H   H8849     1.0  0.87871  0.85029  0.58905  1.0000
  H   H8850     1.0  0.88702  0.84684  0.60093  1.0000
  H   H8851     1.0  0.88101  0.83491  0.59810  1.0000
  H   H8852     1.0  0.85622  0.86358  0.63050  1.0000
  H   H8853     1.0  0.84813  0.86636  0.61805  1.0000
  H   H8854     1.0  0.84033  0.86276  0.63361  1.0000
  H   H8855     1.0  0.86432  0.81053  0.63161  1.0000
  H   H8856     1.0  0.85095  0.82253  0.63362  1.0000
  H   H8857     1.0  0.86373  0.82111  0.64078  1.0000
  H   H8858     1.0  0.88008  0.82930  0.64112  1.0000
  H   H8859     1.0  0.86576  0.84001  0.64529  1.0000
  H   H8860     1.0  0.87980  0.84459  0.64270  1.0000
  N   N368      1.0  0.85709  0.61074  0.64775  1.0000
  C   C5196     1.0  0.86122  0.60978  0.65950  1.0000
  C   C5197     1.0  0.86790  0.61288  0.63726  1.0000
  C   C5198     1.0  0.85427  0.59845  0.64840  1.0000
  C   C5199     1.0  0.84584  0.62100  0.64689  1.0000
  C   C5200     1.0  0.85132  0.60854  0.67154  1.0000
  C   C5201     1.0  0.87180  0.62529  0.63506  1.0000
  C   C5202     1.0  0.84946  0.59718  0.63758  1.0000
  C   C5203     1.0  0.84258  0.62646  0.63402  1.0000
  H   H8861     1.0  0.86916  0.60186  0.66073  1.0000
  H   H8862     1.0  0.86459  0.61808  0.65917  1.0000
  H   H8863     1.0  0.86629  0.61227  0.62839  1.0000
  H   H8864     1.0  0.87614  0.60540  0.63868  1.0000
  H   H8865     1.0  0.86265  0.59102  0.64929  1.0000
  H   H8866     1.0  0.84715  0.59596  0.65667  1.0000
  H   H8867     1.0  0.83755  0.61793  0.65326  1.0000
  H   H8868     1.0  0.84688  0.62889  0.65020  1.0000
  H   H8869     1.0  0.84361  0.61672  0.67153  1.0000
  H   H8870     1.0  0.84758  0.60011  0.67367  1.0000
  H   H8871     1.0  0.85562  0.60796  0.67934  1.0000
  H   H8872     1.0  0.86402  0.63332  0.63421  1.0000
  H   H8873     1.0  0.87638  0.62560  0.64230  1.0000
  H   H8874     1.0  0.87864  0.62647  0.62625  1.0000
  H   H8875     1.0  0.85593  0.59896  0.62864  1.0000
  H   H8876     1.0  0.84019  0.60307  0.63714  1.0000
  H   H8877     1.0  0.84845  0.58751  0.63909  1.0000
  H   H8878     1.0  0.83266  0.62680  0.63471  1.0000
  H   H8879     1.0  0.84782  0.62138  0.62672  1.0000
  H   H8880     1.0  0.84373  0.63619  0.63084  1.0000
  H   H8881     1.0  0.85635  0.56152  0.72890  1.0000
  C   C5204     1.0  0.98723  0.59394  0.65103  1.0000
  H   H8882     1.0  0.91715  0.84510  0.56256  1.0000
  C   C5205     1.0  0.85982  0.56875  0.72126  1.0000
  N   N369      1.0  0.93006  0.82410  0.55241  1.0000
  C   C5206     1.0  0.87695  0.50832  0.63448  1.0000
  H   H8883     1.0  0.90349  0.54185  0.70003  1.0000
  H   H8884     1.0  0.87510  0.57125  0.70593  1.0000
  H   H8885     1.0  0.88920  0.81493  0.49697  1.0000
  C   C5207     1.0  0.89487  0.55380  0.71313  1.0000
  C   C5208     1.0  0.89595  0.56810  0.73074  1.0000
  H   H8886     1.0  0.98105  0.58989  0.65952  1.0000
  C   C5209     1.0  0.76605  0.85903  0.60937  1.0000
  H   H8887     1.0  0.84446  0.89974  0.50127  1.0000
  H   H8888     1.0  0.95817  0.91035  0.53857  1.0000
  H   H8889     1.0  0.99371  0.88729  0.67188  1.0000
  C   C5210     1.0  0.98267  0.88156  0.66214  1.0000
  C   C5211     1.0  0.93913  0.83107  0.55342  1.0000
  H   H8890     1.0  0.94140  0.83319  0.52611  1.0000
  C   C5212     1.0  0.97978  0.61892  0.65806  1.0000
  H   H8891     1.0  0.98432  0.62499  0.64991  1.0000
  H   H8892     1.0  0.75963  0.87824  0.60229  1.0000
  C   C5213     1.0  0.93429  0.82754  0.52853  1.0000
  C   C5214     1.0  0.97853  0.86157  0.67624  1.0000
  N   N370      1.0  0.86306  0.57325  0.58131  1.0000
  C   C5215     1.0  0.87200  0.58186  0.57709  1.0000
  C   C5216     1.0  0.87011  0.56069  0.58642  1.0000
  C   C5217     1.0  0.85306  0.57790  0.59147  1.0000
  C   C5218     1.0  0.85780  0.57331  0.57054  1.0000
  C   C5219     1.0  0.86657  0.59555  0.57221  1.0000
  C   C5220     1.0  0.88161  0.55529  0.57748  1.0000
  C   C5221     1.0  0.84320  0.57014  0.59785  1.0000
  C   C5222     1.0  0.85276  0.56185  0.57113  1.0000
  H   H8893     1.0  0.87655  0.58152  0.58470  1.0000
  H   H8894     1.0  0.87962  0.57900  0.56950  1.0000
  H   H8895     1.0  0.86429  0.55371  0.58980  1.0000
  H   H8896     1.0  0.87320  0.56095  0.59474  1.0000
  H   H8897     1.0  0.85722  0.57893  0.59879  1.0000
  H   H8898     1.0  0.84782  0.58724  0.58802  1.0000
  H   H8899     1.0  0.85026  0.58158  0.56906  1.0000
  H   H8900     1.0  0.86503  0.57413  0.56192  1.0000
  H   H8901     1.0  0.86162  0.59679  0.56474  1.0000
  H   H8902     1.0  0.86046  0.60009  0.57967  1.0000
  H   H8903     1.0  0.87425  0.60058  0.56834  1.0000
  H   H8904     1.0  0.87987  0.55640  0.56818  1.0000
  H   H8905     1.0  0.88953  0.55947  0.57680  1.0000
  H   H8906     1.0  0.88448  0.54525  0.58113  1.0000
  H   H8907     1.0  0.84715  0.56052  0.60191  1.0000
  H   H8908     1.0  0.83722  0.57043  0.59156  1.0000
  H   H8909     1.0  0.83706  0.57422  0.60563  1.0000
  H   H8910     1.0  0.84480  0.56483  0.56646  1.0000
  H   H8911     1.0  0.91530  0.64042  0.57644  1.0000
  H   H8912     1.0  0.86285  0.82359  0.56890  1.0000
  H   H8913     1.0  0.86147  0.87096  0.55956  1.0000
  H   H8914     1.0  0.93797  0.63006  0.59562  1.0000
  H   H8915     1.0  0.84794  0.83386  0.54016  1.0000
  C   C5223     1.0  0.93017  0.63674  0.59194  1.0000
  H   H8916     1.0  0.91575  0.64835  0.60321  1.0000
  C   C5224     1.0  0.94020  0.62931  0.57296  1.0000
  H   H8917     1.0  0.94788  0.62399  0.57769  1.0000
  H   H8918     1.0  0.99146  0.88637  0.57500  1.0000
  H   H8919     1.0  0.81702  0.89687  0.53712  1.0000
  H   H8920     1.0  0.87916  0.65005  0.69392  1.0000
  H   H8921     1.0  0.92869  0.80603  0.55122  1.0000
  N   N371      1.0  0.86718  0.84023  0.55604  1.0000
  H   H8922     1.0  0.91134  0.80698  0.48697  1.0000
  H   H8923     1.0  0.95790  0.87752  0.57832  1.0000
  N   N372      1.0  0.93360  0.64070  0.57811  1.0000
  C   C5225     1.0  0.92229  0.64631  0.57260  1.0000
  H   H8924     1.0  0.94461  0.63184  0.56305  1.0000
  H   H8925     1.0  0.84588  0.83007  0.55652  1.0000
  C   C5226     1.0  0.92585  0.64689  0.59959  1.0000
  H   H8926     1.0  0.92471  0.64672  0.56249  1.0000
  H   H8927     1.0  0.92104  0.66645  0.56930  1.0000
  H   H8928     1.0  0.97932  0.85172  0.67616  1.0000
  C   C5227     1.0  0.84949  0.83654  0.54815  1.0000
  H   H8929     1.0  0.88478  0.84310  0.55752  1.0000
  H   H8930     1.0  0.86330  0.85832  0.54423  1.0000
  H   H8931     1.0  0.96632  0.91188  0.55601  1.0000
  C   C5228     1.0  0.83811  0.73823  0.61086  1.0000
  C   C5229     1.0  0.91546  0.65942  0.57426  1.0000
  H   H8932     1.0  0.91206  0.66000  0.58403  1.0000
  H   H8933     1.0  0.93034  0.64395  0.60765  1.0000
  H   H8934     1.0  0.83314  0.74480  0.61691  1.0000
  H   H8935     1.0  0.97332  0.89849  0.55030  1.0000
  C   C5230     1.0  0.88109  0.83769  0.55320  1.0000
  H   H8936     1.0  0.87147  0.64721  0.68407  1.0000
  H   H8937     1.0  0.95956  0.65235  0.57633  1.0000
  H   H8938     1.0  0.92804  0.65589  0.59469  1.0000
  C   C5231     1.0  0.86344  0.83568  0.54661  1.0000
  H   H8939     1.0  0.84405  0.84599  0.54835  1.0000
  H   H8940     1.0  0.88246  0.81747  0.55671  1.0000
  H   H8941     1.0  0.85955  0.65127  0.70630  1.0000
  H   H8942     1.0  0.95130  0.91283  0.57369  1.0000
  H   H8943     1.0  0.96190  0.87345  0.55407  1.0000
  H   H8944     1.0  0.84207  0.72968  0.61696  1.0000
  C   C5232     1.0  0.94236  0.64945  0.57401  1.0000
  H   H8945     1.0  0.95226  0.64254  0.58933  1.0000
  H   H8946     1.0  0.86783  0.82587  0.54657  1.0000
  C   C5233     1.0  0.91916  0.82530  0.56306  1.0000
  C   C5234     1.0  0.87196  0.65463  0.68835  1.0000
  H   H8947     1.0  0.94605  0.91152  0.55181  1.0000
  C   C5235     1.0  0.95469  0.90546  0.54805  1.0000
  H   H8948     1.0  0.84261  0.49894  0.63921  1.0000
  C   C5236     1.0  0.97202  0.89345  0.57517  1.0000
  C   C5237     1.0  0.95428  0.64488  0.57914  1.0000
  H   H8949     1.0  0.94509  0.65164  0.56377  1.0000
  H   H8950     1.0  0.90709  0.66193  0.57024  1.0000
  C   C5238     1.0  0.88755  0.82421  0.55717  1.0000
  H   H8951     1.0  0.88461  0.84063  0.54317  1.0000
  H   H8952     1.0  0.86975  0.68886  0.66211  1.0000
  H   H8953     1.0  0.98834  0.89059  0.55994  1.0000
  H   H8954     1.0  0.88357  0.68007  0.69790  1.0000
  H   H8955     1.0  0.90457  0.83840  0.57211  1.0000
  H   H8956     1.0  0.85185  0.91287  0.49604  1.0000
  H   H8957     1.0  0.93804  0.65853  0.57645  1.0000
  H   H8958     1.0  0.86673  0.84080  0.53713  1.0000
  H   H8959     1.0  0.88901  0.82244  0.56668  1.0000
  C   C5239     1.0  0.85924  0.65731  0.69705  1.0000
  H   H8960     1.0  0.98467  0.87651  0.57054  1.0000
  C   C5240     1.0  0.79388  0.89427  0.55037  1.0000
  H   H8961     1.0  0.95926  0.86005  0.68311  1.0000
  H   H8962     1.0  0.80097  0.91746  0.55894  1.0000
  H   H8963     1.0  0.96817  0.87570  0.64894  1.0000
  H   H8964     1.0  0.97548  0.62449  0.66524  1.0000
  H   H8965     1.0  0.83129  0.73613  0.60680  1.0000
  H   H8966     1.0  0.96038  0.63686  0.57548  1.0000
  C   C5241     1.0  0.94707  0.89879  0.58959  1.0000
  C   C5242     1.0  0.91140  0.83847  0.56324  1.0000
  H   H8967     1.0  0.82142  0.91273  0.55234  1.0000
  H   H8968     1.0  0.94191  0.90350  0.57209  1.0000
  H   H8969     1.0  0.79226  0.87912  0.54341  1.0000
  H   H8970     1.0  0.89679  0.82242  0.55115  1.0000
  H   H8971     1.0  0.98514  0.58067  0.64171  1.0000
  H   H8972     1.0  0.87059  0.54037  0.72441  1.0000
  H   H8973     1.0  0.76308  0.85101  0.61622  1.0000
  H   H8974     1.0  0.96261  0.87280  0.68655  1.0000
  C   C5243     1.0  0.98903  0.60756  0.66318  1.0000
  C   C5244     1.0  0.96462  0.90284  0.55577  1.0000
  H   H8975     1.0  0.94741  0.88876  0.59250  1.0000
  H   H8976     1.0  0.85642  0.66685  0.69856  1.0000
  H   H8977     1.0  0.95256  0.89686  0.54720  1.0000
  H   H8978     1.0  0.83058  0.90798  0.53869  1.0000
  C   C5245     1.0  0.95271  0.82726  0.54691  1.0000
  S   S1502     1.0  0.89954  0.87532  0.49442  1.0000
  H   H8979     1.0  0.97930  0.89748  0.67035  1.0000
  C   C5246     1.0  0.97260  0.86579  0.65055  1.0000
  H   H8980     1.0  0.89135  0.83018  0.49212  1.0000
  H   H8981     1.0  0.97118  0.86621  0.56527  1.0000
  N   N373      1.0  0.96158  0.89541  0.56868  1.0000
  C   C5247     1.0  0.79646  0.88739  0.53985  1.0000
  H   H8982     1.0  0.79693  0.88732  0.55837  1.0000
  H   H8983     1.0  0.78367  0.89684  0.55297  1.0000
  H   H8984     1.0  0.78048  0.91899  0.57215  1.0000
  H   H8985     1.0  0.79200  0.89309  0.53217  1.0000
  C   C5248     1.0  0.95031  0.90309  0.57545  1.0000
  S   S1503     1.0  0.90689  0.84543  0.49630  1.0000
  H   H8986     1.0  0.97329  0.90248  0.57595  1.0000
  H   H8987     1.0  0.77461  0.86019  0.61138  1.0000
  C   C5249     1.0  0.82091  0.91119  0.54336  1.0000
  H   H8988     1.0  0.80826  0.92042  0.52038  1.0000
  C   C5250     1.0  0.79503  0.91527  0.53752  1.0000
  C   C5251     1.0  0.78211  0.91651  0.56305  1.0000
  H   H8989     1.0  0.81718  0.92005  0.53761  1.0000
  H   H8990     1.0  0.85321  0.57181  0.71497  1.0000
  C   C5252     1.0  0.80167  0.91412  0.52417  1.0000
  C   C5253     1.0  0.75774  0.90203  0.58635  1.0000
  H   H8991     1.0  0.95332  0.90124  0.59408  1.0000
  H   H8992     1.0  0.89966  0.56121  0.70712  1.0000
  H   H8993     1.0  0.79816  0.90286  0.56750  1.0000
  H   H8994     1.0  0.78498  0.91596  0.53834  1.0000
  H   H8995     1.0  0.77573  0.91043  0.56407  1.0000
  H   H8996     1.0  0.77957  0.92519  0.55641  1.0000
  H   H8997     1.0  0.79474  0.91730  0.51822  1.0000
  H   H8998     1.0  0.89033  0.79846  0.49094  1.0000
  H   H8999     1.0  0.96646  0.86030  0.65770  1.0000
  H   H9000     1.0  0.86939  0.90243  0.48700  1.0000
  H   H9001     1.0  0.89227  0.66626  0.69288  1.0000
  N   N374      1.0  0.79962  0.90535  0.54779  1.0000
  C   C5254     1.0  0.79584  0.91030  0.55950  1.0000
  H   H9002     1.0  0.81629  0.89368  0.55291  1.0000
  Fe  Fe752     1.0  0.89586  0.86182  0.48544  1.0000
  H   H9003     1.0  0.83569  0.91494  0.49728  1.0000
  H   H9004     1.0  0.93755  0.90354  0.59319  1.0000
  C   C5255     1.0  0.99281  0.58385  0.64336  1.0000
  H   H9005     1.0  0.91708  0.82587  0.54108  1.0000
  C   C5256     1.0  0.98473  0.88634  0.56959  1.0000
  C   C5257     1.0  0.88279  0.67172  0.69523  1.0000
  C   C5258     1.0  0.87615  0.67570  0.68430  1.0000
  H   H9006     1.0  0.94907  0.88491  0.56715  1.0000
  N   N375      1.0  0.87563  0.66544  0.67863  1.0000
  H   H9007     1.0  0.95688  0.83556  0.54375  1.0000
  C   C5259     1.0  0.96723  0.87531  0.55996  1.0000
  C   C5260     1.0  0.88939  0.65175  0.66352  1.0000
  C   C5261     1.0  0.88831  0.66124  0.67125  1.0000
  H   H9008     1.0  0.87333  0.51785  0.63612  1.0000
  C   C5262     1.0  0.86619  0.67017  0.67062  1.0000
  H   H9009     1.0  0.86677  0.68107  0.68745  1.0000
  H   H9010     1.0  0.88719  0.64295  0.66932  1.0000
  H   H9011     1.0  0.88898  0.53866  0.70888  1.0000
  H   H9012     1.0  0.85628  0.49466  0.61939  1.0000
  H   H9013     1.0  0.97949  0.88330  0.68154  1.0000
  H   H9014     1.0  0.97503  0.87916  0.55379  1.0000
  C   C5263     1.0  0.84470  0.90871  0.49471  1.0000
  H   H9015     1.0  0.87971  0.49763  0.61355  1.0000
  H   H9016     1.0  0.88409  0.53109  0.73011  1.0000
  H   H9017     1.0  0.74903  0.90855  0.58758  1.0000
  C   C5264     1.0  0.90796  0.81619  0.48936  1.0000
  H   H9018     1.0  0.85953  0.57690  0.72484  1.0000
  C   C5265     1.0  0.89411  0.82113  0.48927  1.0000
  H   H9019     1.0  0.74964  0.85649  0.59875  1.0000
  H   H9020     1.0  0.83871  0.88546  0.49074  1.0000
  N   N376      1.0  0.86929  0.49019  0.63134  1.0000
  H   H9021     1.0  0.90932  0.81512  0.49883  1.0000
  N   N377      1.0  0.99634  0.59940  0.65425  1.0000
  H   H9022     1.0  0.85848  0.82495  0.48985  1.0000
  H   H9023     1.0  0.99483  0.63235  0.60913  1.0000
  H   H9024     1.0  0.99641  0.61234  0.63663  1.0000
  H   H9025     1.0  0.74848  0.87189  0.59010  1.0000
  H   H9026     1.0  0.99613  0.87394  0.61326  1.0000
  H   H9027     1.0  0.90147  0.54786  0.71892  1.0000
  C   C5266     1.0  0.88501  0.57033  0.72439  1.0000
  H   H9028     1.0  0.98376  0.60212  0.67143  1.0000
  H   H9029     1.0  0.88657  0.57766  0.71598  1.0000
  H   H9030     1.0  0.87025  0.81173  0.49329  1.0000
  C   C5267     1.0  0.84736  0.88010  0.48607  1.0000
  C   C5268     1.0  0.87587  0.53860  0.73169  1.0000
  H   H9031     1.0  0.90490  0.56448  0.72501  1.0000
  C   C5269     1.0  0.75622  0.87104  0.61004  1.0000
  Fe  Fe753     1.0  0.83925  0.53543  0.86051  1.0000
  S   S1504     1.0  0.84610  0.54969  0.86536  1.0000
  S   S1505     1.0  0.82441  0.53847  0.84998  1.0000
  Fe  Fe754     1.0  0.85783  0.51399  0.87152  1.0000
  S   S1506     1.0  0.86633  0.52635  0.87775  1.0000
  Fe  Fe755     1.0  0.84691  0.53652  0.88344  1.0000
  S   S1507     1.0  0.83866  0.54466  0.90033  1.0000
  Fe  Fe756     1.0  0.86491  0.53856  0.85925  1.0000
  S   S1508     1.0  0.87933  0.54897  0.84765  1.0000
  S   S1509     1.0  0.83839  0.52300  0.87914  1.0000
  S   S1510     1.0  0.85803  0.52553  0.85254  1.0000
  Fe  Fe757     1.0  0.77307  0.59584  0.86555  1.0000
  S   S1511     1.0  0.78737  0.60538  0.86653  1.0000
  S   S1512     1.0  0.77626  0.58015  0.85611  1.0000
  H   H9032     1.0  0.84447  0.50568  0.83002  1.0000
  S   S1513     1.0  0.76401  0.62470  0.87997  1.0000
  Fe  Fe758     1.0  0.77398  0.62278  0.86079  1.0000
  S   S1514     1.0  0.77710  0.63950  0.84609  1.0000
  Fe  Fe759     1.0  0.77621  0.60639  0.88560  1.0000
  S   S1515     1.0  0.78562  0.60030  0.90169  1.0000
  S   S1516     1.0  0.76059  0.61317  0.85808  1.0000
  S   S1517     1.0  0.76279  0.59544  0.88506  1.0000
  Fe  Fe760     1.0  0.86586  0.62898  0.79342  1.0000
  S   S1518     1.0  0.84640  0.62621  0.79989  1.0000
  S   S1519     1.0  0.87477  0.63388  0.77326  1.0000
  Fe  Fe761     1.0  0.87086  0.62080  0.81982  1.0000
  S   S1520     1.0  0.85193  0.61700  0.82824  1.0000
  S   S1521     1.0  0.88602  0.61678  0.83034  1.0000
  Fe  Fe762     1.0  0.85463  0.60883  0.81175  1.0000
  S   S1522     1.0  0.84961  0.59101  0.81273  1.0000
  Fe  Fe763     1.0  0.84576  0.63480  0.81555  1.0000
  S   S1523     1.0  0.83034  0.64995  0.82164  1.0000
  S   S1524     1.0  0.87410  0.61106  0.80437  1.0000
  S   S1525     1.0  0.86461  0.63923  0.80809  1.0000
  Fe  Fe764     1.0  0.85761  0.59910  0.91466  1.0000
  S   S1526     1.0  0.87197  0.60897  0.91493  1.0000
  S   S1527     1.0  0.86470  0.57862  0.91608  1.0000
  Fe  Fe765     1.0  0.83874  0.62295  0.91083  1.0000
  S   S1528     1.0  0.85169  0.63464  0.91096  1.0000
  S   S1529     1.0  0.82074  0.63299  0.90520  1.0000
  Fe  Fe766     1.0  0.86532  0.62252  0.89893  1.0000
  S   S1530     1.0  0.87896  0.62982  0.88239  1.0000
  Fe  Fe767     1.0  0.85708  0.62008  0.92713  1.0000
  S   S1531     1.0  0.86133  0.62156  0.94513  1.0000
  S   S1532     1.0  0.85212  0.61187  0.89773  1.0000
  S   S1533     1.0  0.84295  0.60916  0.92795  1.0000
  H   H9033     1.0  0.80463  0.65253  0.85598  1.0000
  H   H9034     1.0  0.89052  0.54976  0.87354  1.0000
  H   H9035     1.0  0.90285  0.58707  0.78100  1.0000
  S   S1534     1.0  0.87560  0.66191  0.96523  1.0000
  C   C5270     1.0  0.86547  0.63301  0.95024  1.0000
  C   C5271     1.0  0.87119  0.62935  0.96043  1.0000
  C   C5272     1.0  0.87451  0.63803  0.96500  1.0000
  C   C5273     1.0  0.87208  0.65055  0.95947  1.0000
  C   C5274     1.0  0.86660  0.65420  0.94910  1.0000
  C   C5275     1.0  0.86324  0.64551  0.94455  1.0000
  H   H9036     1.0  0.87310  0.61969  0.96482  1.0000
  H   H9037     1.0  0.89170  0.57117  0.80636  1.0000
  H   H9038     1.0  0.86470  0.66385  0.94472  1.0000
  H   H9039     1.0  0.85871  0.64851  0.93681  1.0000
  C   C5276     1.0  0.88317  0.62102  0.84465  1.0000
  C   C5277     1.0  0.87252  0.61932  0.85366  1.0000
  C   C5278     1.0  0.87119  0.62165  0.86545  1.0000
  C   C5279     1.0  0.88031  0.62612  0.86806  1.0000
  C   C5280     1.0  0.89083  0.62792  0.85895  1.0000
  C   C5281     1.0  0.89235  0.62517  0.84741  1.0000
  H   H9040     1.0  0.86559  0.61580  0.85163  1.0000
  H   H9041     1.0  0.86309  0.62015  0.87242  1.0000
  H   H9042     1.0  0.89793  0.63132  0.86087  1.0000
  H   H9043     1.0  0.90067  0.62634  0.84055  1.0000
  C   C5282     1.0  0.79578  0.60928  0.90202  1.0000
  C   C5283     1.0  0.80499  0.60411  0.90895  1.0000
  C   C5284     1.0  0.81297  0.61121  0.90966  1.0000
  C   C5285     1.0  0.81146  0.62365  0.90379  1.0000
  C   C5286     1.0  0.80228  0.62881  0.89682  1.0000
  C   C5287     1.0  0.79460  0.62159  0.89575  1.0000
  H   H9044     1.0  0.80591  0.59461  0.91388  1.0000
  H   H9045     1.0  0.82001  0.60718  0.91507  1.0000
  H   H9046     1.0  0.80104  0.63845  0.89233  1.0000
  H   H9047     1.0  0.78746  0.62566  0.89046  1.0000
  C   C5288     1.0  0.79213  0.64188  0.83967  1.0000
  C   C5289     1.0  0.79356  0.65301  0.83145  1.0000
  C   C5290     1.0  0.80535  0.65533  0.82595  1.0000
  C   C5291     1.0  0.81580  0.64639  0.82834  1.0000
  C   C5292     1.0  0.81445  0.63522  0.83658  1.0000
  C   C5293     1.0  0.80257  0.63302  0.84242  1.0000
  H   H9048     1.0  0.78553  0.65992  0.82936  1.0000
  H   H9049     1.0  0.80637  0.66404  0.81971  1.0000
  H   H9050     1.0  0.82257  0.62847  0.83865  1.0000
  H   H9051     1.0  0.80148  0.62454  0.84900  1.0000
  C   C5294     1.0  0.81133  0.55028  0.85213  1.0000
  C   C5295     1.0  0.81080  0.55964  0.85811  1.0000
  C   C5296     1.0  0.80004  0.56896  0.85951  1.0000
  C   C5297     1.0  0.78990  0.56881  0.85494  1.0000
  C   C5298     1.0  0.79056  0.55948  0.84892  1.0000
  C   C5299     1.0  0.80123  0.55029  0.84748  1.0000
  H   H9052     1.0  0.81875  0.55977  0.86142  1.0000
  H   H9053     1.0  0.79962  0.57628  0.86399  1.0000
  H   H9054     1.0  0.78278  0.55938  0.84531  1.0000
  H   H9055     1.0  0.80163  0.54314  0.84277  1.0000
  C   C5300     1.0  0.84675  0.55444  0.90308  1.0000
  C   C5301     1.0  0.85702  0.54935  0.90850  1.0000
  C   C5302     1.0  0.86249  0.55693  0.91229  1.0000
  C   C5303     1.0  0.85768  0.56964  0.91080  1.0000
  C   C5304     1.0  0.84764  0.57485  0.90501  1.0000
  C   C5305     1.0  0.84221  0.56725  0.90113  1.0000
  H   H9056     1.0  0.86050  0.53948  0.91016  1.0000
  H   H9057     1.0  0.87028  0.55287  0.91671  1.0000
  H   H9058     1.0  0.84394  0.58467  0.90375  1.0000
  H   H9059     1.0  0.83439  0.57132  0.89680  1.0000
  C   C5306     1.0  0.87182  0.56022  0.83701  1.0000
  C   C5307     1.0  0.86129  0.55847  0.83428  1.0000
  C   C5308     1.0  0.85460  0.56787  0.82660  1.0000
  C   C5309     1.0  0.85823  0.57917  0.82197  1.0000
  C   C5310     1.0  0.86881  0.58089  0.82462  1.0000
  C   C5311     1.0  0.87580  0.57131  0.83186  1.0000
  H   H9060     1.0  0.85824  0.54988  0.83809  1.0000
  H   H9061     1.0  0.84649  0.56643  0.82451  1.0000
  H   H9062     1.0  0.87165  0.58958  0.82117  1.0000
  H   H9063     1.0  0.88405  0.57266  0.83374  1.0000
  C   C5312     1.0  0.87365  0.60918  0.74815  1.0000
  C   C5313     1.0  0.86621  0.60828  0.76002  1.0000
  C   C5314     1.0  0.86633  0.61596  0.76770  1.0000
  C   C5315     1.0  0.87392  0.62459  0.76356  1.0000
  C   C5316     1.0  0.88110  0.62573  0.75156  1.0000
  H   H9064     1.0  0.83477  0.61419  0.87034  1.0000
  H   H9065     1.0  0.86029  0.60166  0.76328  1.0000
  H   H9066     1.0  0.86058  0.61518  0.77685  1.0000
  H   H9067     1.0  0.88692  0.63245  0.74827  1.0000
  H   H9068     1.0  0.82139  0.63971  0.97171  1.0000
  H   H9069     1.0  0.89393  0.55698  0.78607  1.0000
  H   H9070     1.0  0.87580  0.65781  0.90112  1.0000
  H   H9071     1.0  0.80643  0.65604  0.86952  1.0000
  H   H9072     1.0  0.89572  0.56753  0.86268  1.0000
  H   H9073     1.0  0.84722  0.63755  0.84284  1.0000
  H   H9074     1.0  0.86990  0.56129  0.86946  1.0000
  H   H9075     1.0  0.82125  0.51122  0.83355  1.0000
  H   H9076     1.0  0.85315  0.64195  0.86215  1.0000
  H   H9077     1.0  0.88553  0.56835  0.76799  1.0000
  H   H9078     1.0  0.86512  0.56441  0.88447  1.0000
  H   H9079     1.0  0.89252  0.57186  0.88185  1.0000
  H   H9080     1.0  0.84451  0.65401  0.83783  1.0000
  C   C5317     1.0  0.83879  0.65266  0.88221  1.0000
  H   H9081     1.0  0.87756  0.57417  0.89129  1.0000
  H   H9082     1.0  0.88614  0.55303  0.88895  1.0000
  H   H9083     1.0  0.84684  0.65751  0.85634  1.0000
  H   H9084     1.0  0.83325  0.66253  0.97356  1.0000
  C   C5318     1.0  0.89284  0.56283  0.80274  1.0000
  C   C5319     1.0  0.82932  0.65414  0.87423  1.0000
  C   C5320     1.0  0.89208  0.58621  0.85309  1.0000
  H   H9085     1.0  0.89507  0.58569  0.84320  1.0000
  H   H9086     1.0  0.82759  0.62526  0.85892  1.0000
  C   C5321     1.0  0.88359  0.59079  0.88187  1.0000
  C   C5322     1.0  0.86050  0.58526  0.85951  1.0000
  H   H9087     1.0  0.88494  0.59472  0.85322  1.0000
  H   H9088     1.0  0.87811  0.54410  0.88457  1.0000
  H   H9089     1.0  0.80046  0.51468  0.85067  1.0000
  H   H9090     1.0  0.80945  0.64015  0.86791  1.0000
  N   N378      1.0  0.80007  0.56190  0.89939  1.0000
  C   C5323     1.0  0.79838  0.56520  0.91167  1.0000
  C   C5324     1.0  0.78835  0.56765  0.89462  1.0000
  C   C5325     1.0  0.81065  0.56665  0.89017  1.0000
  C   C5326     1.0  0.80291  0.54806  0.90113  1.0000
  C   C5327     1.0  0.80992  0.56173  0.91735  1.0000
  C   C5328     1.0  0.77716  0.56172  0.90134  1.0000
  C   C5329     1.0  0.80994  0.58060  0.88768  1.0000
  C   C5330     1.0  0.80436  0.54293  0.88955  1.0000
  H   H9091     1.0  0.79476  0.57525  0.91114  1.0000
  H   H9092     1.0  0.79127  0.56072  0.91865  1.0000
  H   H9093     1.0  0.78977  0.56777  0.88467  1.0000
  H   H9094     1.0  0.78539  0.57755  0.89517  1.0000
  H   H9095     1.0  0.81953  0.56195  0.89292  1.0000
  H   H9096     1.0  0.81155  0.56439  0.88114  1.0000
  H   H9097     1.0  0.81180  0.54405  0.90422  1.0000
  H   H9098     1.0  0.79612  0.54377  0.90878  1.0000
  H   H9099     1.0  0.81393  0.55172  0.91890  1.0000
  H   H9100     1.0  0.81706  0.56691  0.91174  1.0000
  H   H9101     1.0  0.80729  0.56432  0.92648  1.0000
  H   H9102     1.0  0.77867  0.55217  0.90003  1.0000
  H   H9103     1.0  0.77470  0.56187  0.91128  1.0000
  H   H9104     1.0  0.76904  0.56711  0.89735  1.0000
  H   H9105     1.0  0.80181  0.58593  0.88375  1.0000
  H   H9106     1.0  0.81825  0.58288  0.88081  1.0000
  H   H9107     1.0  0.80987  0.58365  0.89607  1.0000
  H   H9108     1.0  0.81398  0.54217  0.88412  1.0000
  H   H9109     1.0  0.79804  0.54853  0.88343  1.0000
  H   H9110     1.0  0.80203  0.53366  0.89239  1.0000
  C   C5331     1.0  0.88096  0.61806  0.74385  1.0000
  H   H9111     1.0  0.85929  0.58565  0.87852  1.0000
  C   C5332     1.0  0.88519  0.57726  0.77035  1.0000
  H   H9112     1.0  0.88814  0.59561  0.87287  1.0000
  H   H9113     1.0  0.83456  0.65831  0.88934  1.0000
  H   H9114     1.0  0.86955  0.53528  0.74036  1.0000
  C   C5333     1.0  0.82567  0.50899  0.84164  1.0000
  H   H9115     1.0  0.87891  0.63505  0.97284  1.0000
  H   H9116     1.0  0.82630  0.64506  0.84926  1.0000
  H   H9117     1.0  0.82067  0.65227  0.88083  1.0000
  H   H9118     1.0  0.87425  0.59629  0.88477  1.0000
  C   C5334     1.0  0.84928  0.64601  0.84391  1.0000
  H   H9119     1.0  0.89570  0.59201  0.76267  1.0000
  H   H9120     1.0  0.85936  0.64548  0.84039  1.0000
  H   H9121     1.0  0.84418  0.62225  0.85763  1.0000
  C   C5335     1.0  0.81039  0.64967  0.86307  1.0000
  H   H9122     1.0  0.84727  0.65594  0.87678  1.0000
  H   H9123     1.0  0.84099  0.62968  0.87687  1.0000
  H   H9124     1.0  0.85664  0.57689  0.86149  1.0000
  C   C5336     1.0  0.88737  0.57448  0.86052  1.0000
  H   H9125     1.0  0.82723  0.66408  0.86971  1.0000
  C   C5337     1.0  0.88300  0.57749  0.88200  1.0000
  H   H9126     1.0  0.86704  0.58601  0.85049  1.0000
  C   C5338     1.0  0.83347  0.63295  0.87164  1.0000
  C   C5339     1.0  0.86652  0.58570  0.86989  1.0000
  H   H9127     1.0  0.90005  0.58717  0.85629  1.0000
  N   N379      1.0  0.83316  0.64613  0.86477  1.0000
  H   H9128     1.0  0.86867  0.59498  0.86759  1.0000
  C   C5340     1.0  0.87319  0.56361  0.87669  1.0000
  H   H9129     1.0  0.85863  0.58925  0.78594  1.0000
  C   C5341     1.0  0.83511  0.62329  0.86398  1.0000
  H   H9130     1.0  0.88893  0.59055  0.88875  1.0000
  H   H9131     1.0  0.85268  0.59329  0.85860  1.0000
  H   H9132     1.0  0.82389  0.66014  0.85161  1.0000
  H   H9133     1.0  0.86944  0.57039  0.80013  1.0000
  H   H9134     1.0  0.86703  0.50163  0.84822  1.0000
  C   C5342     1.0  0.87148  0.57126  0.78998  1.0000
  H   H9135     1.0  0.85152  0.57628  0.79207  1.0000
  H   H9136     1.0  0.87742  0.64178  0.90305  1.0000
  H   H9137     1.0  0.83849  0.52107  0.83215  1.0000
  C   C5343     1.0  0.88233  0.58779  0.78760  1.0000
  C   C5344     1.0  0.86586  0.49223  0.85054  1.0000
  H   H9138     1.0  0.89347  0.60187  0.78199  1.0000
  H   H9139     1.0  0.82063  0.51624  0.84690  1.0000
  S   S1535     1.0  0.87431  0.59852  0.73923  1.0000
  H   H9140     1.0  0.87656  0.59538  0.78208  1.0000
  H   H9141     1.0  0.82035  0.49892  0.87628  1.0000
  H   H9142     1.0  0.79303  0.50430  0.86299  1.0000
  H   H9143     1.0  0.90153  0.55655  0.80487  1.0000
  C   C5345     1.0  0.89655  0.58225  0.76231  1.0000
  C   C5346     1.0  0.80212  0.50675  0.85842  1.0000
  H   H9144     1.0  0.82994  0.62559  0.97941  1.0000
  H   H9145     1.0  0.87728  0.58384  0.76686  1.0000
  H   H9146     1.0  0.85943  0.57861  0.77639  1.0000
  C   C5347     1.0  0.89363  0.56576  0.78868  1.0000
  N   N380      1.0  0.88338  0.57573  0.78411  1.0000
  H   H9147     1.0  0.75125  0.64327  0.85568  1.0000
  C   C5348     1.0  0.85973  0.57944  0.78570  1.0000
  H   H9148     1.0  0.89452  0.56199  0.73997  1.0000
  H   H9149     1.0  0.87729  0.58751  0.79732  1.0000
  H   H9150     1.0  0.80534  0.50971  0.86523  1.0000
  C   C5349     1.0  0.82819  0.50101  0.86862  1.0000
  C   C5350     1.0  0.81103  0.49553  0.85373  1.0000
  C   C5351     1.0  0.89450  0.59191  0.78646  1.0000
  H   H9151     1.0  0.84138  0.64304  0.88720  1.0000
  C   C5352     1.0  0.84580  0.64790  0.85730  1.0000
  H   H9152     1.0  0.82484  0.63226  0.87871  1.0000
  H   H9153     1.0  0.89619  0.59119  0.79573  1.0000
  N   N381      1.0  0.81262  0.59776  0.82863  1.0000
  C   C5353     1.0  0.82077  0.60071  0.83542  1.0000
  C   C5354     1.0  0.81469  0.60527  0.81566  1.0000
  C   C5355     1.0  0.81681  0.58426  0.82823  1.0000
  C   C5356     1.0  0.79938  0.60065  0.83546  1.0000
  C   C5357     1.0  0.82145  0.59276  0.84842  1.0000
  C   C5358     1.0  0.81299  0.61928  0.81453  1.0000
  C   C5359     1.0  0.80976  0.57904  0.82178  1.0000
  C   C5360     1.0  0.78918  0.60407  0.82791  1.0000
  H   H9154     1.0  0.83038  0.60007  0.83001  1.0000
  H   H9155     1.0  0.81764  0.61037  0.83662  1.0000
  H   H9156     1.0  0.80857  0.60401  0.81025  1.0000
  H   H9157     1.0  0.82422  0.60205  0.81057  1.0000
  H   H9158     1.0  0.82676  0.58220  0.82375  1.0000
  H   H9159     1.0  0.81607  0.57843  0.83764  1.0000
  H   H9160     1.0  0.79729  0.59279  0.84311  1.0000
  H   H9161     1.0  0.79775  0.60856  0.83996  1.0000
  H   H9162     1.0  0.81220  0.59189  0.85412  1.0000
  H   H9163     1.0  0.82737  0.58348  0.84796  1.0000
  H   H9164     1.0  0.82581  0.59720  0.85320  1.0000
  H   H9165     1.0  0.81237  0.62415  0.80493  1.0000
  H   H9166     1.0  0.80453  0.62311  0.82074  1.0000
  H   H9167     1.0  0.82109  0.62145  0.81647  1.0000
  H   H9168     1.0  0.81464  0.56943  0.82114  1.0000
  H   H9169     1.0  0.80936  0.58423  0.81227  1.0000
  H   H9170     1.0  0.80039  0.57838  0.82737  1.0000
  H   H9171     1.0  0.78895  0.61333  0.82183  1.0000
  H   H9172     1.0  0.78007  0.60446  0.83439  1.0000
  H   H9173     1.0  0.78989  0.59731  0.82236  1.0000
  Fe  Fe768     1.0  0.75147  0.61373  0.87766  1.0000
  H   H9174     1.0  0.88527  0.55794  0.80786  1.0000
  H   H9175     1.0  0.88434  0.57059  0.85419  1.0000
  S   S1536     1.0  0.86368  0.49312  0.87477  1.0000
  H   H9176     1.0  0.90285  0.56784  0.78426  1.0000
  H   H9177     1.0  0.89693  0.58231  0.75255  1.0000
  H   H9178     1.0  0.83642  0.49965  0.87260  1.0000
  H   H9179     1.0  0.87226  0.56185  0.78850  1.0000
  C   C5361     1.0  0.88270  0.55211  0.88114  1.0000
  N   N382      1.0  0.87765  0.57560  0.87208  1.0000
  C   C5362     1.0  0.82385  0.65041  0.85660  1.0000
  H   H9180     1.0  0.75620  0.66134  0.84873  1.0000
  N   N383      1.0  0.89717  0.63426  0.91444  1.0000
  C   C5363     1.0  0.90928  0.63453  0.91710  1.0000
  C   C5364     1.0  0.89988  0.62787  0.90382  1.0000
  C   C5365     1.0  0.88952  0.62733  0.92542  1.0000
  C   C5366     1.0  0.89005  0.64732  0.91147  1.0000
  C   C5367     1.0  0.90850  0.63897  0.92893  1.0000
  C   C5368     1.0  0.90483  0.63532  0.89103  1.0000
  C   C5369     1.0  0.89556  0.61384  0.93022  1.0000
  C   C5370     1.0  0.87762  0.64893  0.90777  1.0000
  H   H9181     1.0  0.91553  0.62527  0.91773  1.0000
  H   H9182     1.0  0.91433  0.64066  0.90937  1.0000
  H   H9183     1.0  0.89162  0.62490  0.90319  1.0000
  H   H9184     1.0  0.90682  0.61910  0.90529  1.0000
  H   H9185     1.0  0.88676  0.63217  0.93320  1.0000
  H   H9186     1.0  0.88066  0.62712  0.92330  1.0000
  H   H9187     1.0  0.88770  0.65168  0.91959  1.0000
  H   H9188     1.0  0.89573  0.65331  0.90426  1.0000
  H   H9189     1.0  0.90472  0.63270  0.93739  1.0000
  H   H9190     1.0  0.91796  0.63903  0.92962  1.0000
  H   H9191     1.0  0.90307  0.64850  0.92884  1.0000
  H   H9192     1.0  0.91329  0.63839  0.89078  1.0000
  H   H9193     1.0  0.90719  0.62938  0.88418  1.0000
  H   H9194     1.0  0.89772  0.64337  0.88794  1.0000
  H   H9195     1.0  0.89728  0.60810  0.92331  1.0000
  H   H9196     1.0  0.88908  0.60986  0.93841  1.0000
  H   H9197     1.0  0.90420  0.61307  0.93322  1.0000
  H   H9198     1.0  0.86993  0.64886  0.91596  1.0000
  H   H9199     1.0  0.83730  0.63801  0.96996  1.0000
  H   H9200     1.0  0.90536  0.57650  0.76457  1.0000
  H   H9201     1.0  0.84374  0.50968  0.84452  1.0000
  H   H9202     1.0  0.82635  0.51090  0.86426  1.0000
  C   C5371     1.0  0.83893  0.51125  0.83688  1.0000
  H   H9203     1.0  0.80715  0.49421  0.84634  1.0000
  N   N384      1.0  0.82447  0.49626  0.84908  1.0000
  H   H9204     1.0  0.75646  0.66845  0.83279  1.0000
  H   H9205     1.0  0.87229  0.55465  0.73969  1.0000
  H   H9206     1.0  0.82608  0.49039  0.83215  1.0000
  C   C5372     1.0  0.75097  0.66835  0.84231  1.0000
  C   C5373     1.0  0.82901  0.63575  0.97679  1.0000
  C   C5374     1.0  0.84602  0.64827  0.98396  1.0000
  H   H9207     1.0  0.84840  0.66528  0.97069  1.0000
  H   H9208     1.0  0.75466  0.64681  0.83458  1.0000
  H   H9209     1.0  0.75026  0.67725  0.84482  1.0000
  H   H9210     1.0  0.85039  0.64346  0.97628  1.0000
  C   C5375     1.0  0.84097  0.66173  0.97803  1.0000
  H   H9211     1.0  0.85018  0.62162  0.98148  1.0000
  H   H9212     1.0  0.75016  0.63170  0.82645  1.0000
  H   H9213     1.0  0.88758  0.54654  0.73754  1.0000
  H   H9214     1.0  0.86614  0.49175  0.83186  1.0000
  C   C5376     1.0  0.83119  0.49232  0.85958  1.0000
  H   H9215     1.0  0.84133  0.49034  0.85618  1.0000
  H   H9216     1.0  0.88672  0.61885  0.73471  1.0000
