data_image0
_chemical_formula_structural       FeSCFeS2FeSFeS3FeS2FeS2FeHFeS3C3H2C3HC4H5C9H6CHNHCH6CH5CH3C2H3CHCH8CH2CH2C2H2CSH4CH2CH4CH4C2H5C2FeS2FeS2FeHFeS3FeS2FeS2FeSFeS3FeS2FeS2FeSFeS3FeS2FeS2FeSFeS3C2H3C2H3C6H4CHCHNH2CHC6H4C8H5C6H4C2H2CHCH4C2H2CH2NC7H19CHNC2HC3H12NH2CH6C3HC3HNH3CHCH8C3HCHC3H12C2H3C3H5C2H2C3HNH4CH6CHCHCH5NHCH3CH4C2H3C3NH4CHSH2CH2CH2C2H4C2H2NC2HCH4C2H5CHCH4CH3CH9C3HFeS2FeS2FeSFeS3FeS2FeS2FeSFeS3CH4NHCHCH2C3HCHC2HC6H4C6H4C6H4CHCH2NCH4CNH2CH7CHCH3CHCHCH6CH5CH3C2HC2H2CH3N2H11CHCH4CH5C2HC2HCNC8H17C2H2CH5CHCH2CH3SHC2HCH2CH8S2FeS2FeS2FeSFeS3FeS2FeS2FeSFeS3C2H3CHC2HC6H4C2H3CH3C6H4C6H9CH2CH4CH4CHCHCH4CH4CHCHC2H3CH2CHCHC2HCHCH2CH2CH4CHNC2HN2H2CH3CH4CH2CH4C2H3NC2HCH6NH10CHCH2CH2C4H2C2NC2H3CH2CHCH3CH3FeS2FeS2FeSFeS3FeS2FeS2FeSFeS3FeS2FeS2FeCFeS3FeS2FeS2FeSFeS3C6H4C3HCHC2H2NHC7H4C6H4C6H5CH2CHC2H2C2H4CH3CH6NC2HCHNCHCNC8H20NC8H16CH3NC8H20C2HC3H3C2HC2H3CHC2H2NH3CH2SCHCH2C2HCH4CH3CHCHCH2CHCHCHCH2CH10CNH2C3HCH2CH5CH11CH3FeS2FeS2FeSHS2FeS2FeS2FeSFeS2H4CH3CH2C2HFeCHC6H4C3HCHC2H2CH2C3H3NC2HCH2CH3CH6CH3CH2CH6C5H3NC6HCH5CH3CH3CNH3CH10CHCH2CH2FeSHFeS2FeSFeS3FeS2FeS2FeHFeS3C2H3CHC7H4C2H3C2H5C2H3CHCH2CH2CH2CHCHCH2C2NSH3CH6CHCNHCH2CH5NC8H8C2H15CH3CH5CHCH5NH2CH3CH2CH2C3H4CHFeS2FeS2FeHFeS3FeS2FeS2FeSFeS3FeS2FeS2FeSFeS3FeS2FeS2FeSFeS3C6H9C2H2CH2C3H3CH3C6H5CHCHCH2C6H4C2H2CHC6H4NC8H24CHC2H5SHNH2C2HNC8H20NH6CH5CH2C3HCH2CH3NCHC3HC2H3C2H4C2HC2HCHCHC2H2C2H3CH3CH3NH4CH2C3HC2H3C2H2CHC3H3CHCH2CHNH4FeS2FeS2FeSFeS3FeS2FeS2FeHFeS3CNHC3HNHC7H4C3HC3H2C7H4C6H7NCH2C2H2CH3CH2NCHC3HCH3NH4CH10CHCH8C2SHCH7CH3CH2C4H2SCH7C2HCH3CH3C3HCH2CH6CH12CH5C2H3C2H2C2H2C2HS2FeS2FeS2FeSFeS3FeS2FeS2FeSFeS3C6H4CHC2HC3HNHCH2C4HC7H4C6H7CHCH13C3H2CH2CH8NC4H10CHCH3CH5CHCHC2H6CH6NC8H13CH2CH4CHCHCH2CH6CNHCH2C3HFeS2FeS2FeSFeS3FeS2FeS2FeSFeS3FeS2FeS2FeSFeS3FeS2FeS2FeSFeS3CHCH2C2H2C7H7CH2C2H4C6H4C2H2C7H4C6H4C3HCH4CNC4HCH9CH4NC8H21CH3CHCH7NH5CH8CNC8H23CHC2HNHC2HCHCH3CHCH3CH4C3HC2H3NH8CH5CHCHCH2CHC3H2C2HCH4CH2C2H4CH5C3HC5HCNCH5CH2CH2NCH3C2H4C2H5FeSFeS2FeSFeS3FeS2FeS2FeSFeS2H3C3H7C2HCH2C2HCHC6H4C2HCHC3NHCHCH4CHC2HC2H2C2H5CNH6CH5CH3CHC2H6CH2C2H2C2H4NHCH2CH4CHC2
_chemical_formula_sum              "Fe128 S256 C896 H1536 N64"
_cell_length_a       41.706
_cell_length_b       85.6174
_cell_length_c       41.626
_cell_angle_alpha    90.2408
_cell_angle_beta     90.1863
_cell_angle_gamma    90.5504

_space_group_name_H-M_alt    "P 1"
_space_group_IT_number       1

loop_
  _space_group_symop_operation_xyz
  'x, y, z'

loop_
  _atom_site_type_symbol
  _atom_site_label
  _atom_site_symmetry_multiplicity
  _atom_site_fract_x
  _atom_site_fract_y
  _atom_site_fract_z
  _atom_site_occupancy
  Fe  Fe1       1.0  0.35563  0.30342  0.08374  1.0000
  S   S1        1.0  0.37646  0.29065  0.12552  1.0000
  C   C1        1.0  0.27690  0.23428  0.00990  1.0000
  Fe  Fe2       1.0  0.32083  0.27359  0.05933  1.0000
  S   S2        1.0  0.33960  0.25921  0.10086  1.0000
  S   S3        1.0  0.28732  0.26663  0.01688  1.0000
  Fe  Fe3       1.0  0.32743  0.28006  0.13223  1.0000
  S   S4        1.0  0.31475  0.28339  0.18547  1.0000
  Fe  Fe4       1.0  0.38723  0.27135  0.09128  1.0000
  S   S5        1.0  0.43570  0.25889  0.09373  1.0000
  S   S6        1.0  0.30600  0.29381  0.09158  1.0000
  S   S7        1.0  0.36930  0.28461  0.04842  1.0000
  Fe  Fe5       1.0  0.18144  0.28170  0.32818  1.0000
  S   S8        1.0  0.20905  0.29783  0.36143  1.0000
  S   S9        1.0  0.19309  0.27354  0.27697  1.0000
  Fe  Fe6       1.0  0.12269  0.27999  0.37385  1.0000
  S   S10       1.0  0.14659  0.29592  0.40989  1.0000
  S   S11       1.0  0.07390  0.26817  0.38359  1.0000
  Fe  Fe7       1.0  0.16215  0.31042  0.36762  1.0000
  H   H1        1.0  0.11994  0.22443  0.04092  1.0000
  Fe  Fe8       1.0  0.19156  0.28184  0.40151  1.0000
  S   S12       1.0  0.22205  0.27578  0.44637  1.0000
  S   S13       1.0  0.13551  0.29515  0.33211  1.0000
  S   S14       1.0  0.16672  0.26500  0.36771  1.0000
  C   C2        1.0  0.03475  0.27627  0.38024  1.0000
  C   C3        1.0  0.24006  0.23007  0.47047  1.0000
  C   C4        1.0  0.02979  0.29174  0.37093  1.0000
  H   H2        1.0  0.00705  0.28691  0.29811  1.0000
  H   H3        1.0  0.05019  0.29919  0.36559  1.0000
  C   C5        1.0  0.23449  0.25838  0.46650  1.0000
  C   C6        1.0  0.22976  0.24342  0.45350  1.0000
  C   C7        1.0  0.27182  0.24930  0.99781  1.0000
  H   H4        1.0  0.21857  0.24215  0.43015  1.0000
  C   C8        1.0  0.47374  0.26816  0.08905  1.0000
  C   C9        1.0  0.20908  0.17430  0.47987  1.0000
  C   C10       1.0  0.47663  0.28404  0.08174  1.0000
  C   C11       1.0  0.34605  0.00258  0.48677  1.0000
  H   H5        1.0  0.45524  0.29095  0.07870  1.0000
  H   H6        1.0  0.21979  0.32036  0.21701  1.0000
  H   H7        1.0  0.07298  0.25638  0.44632  1.0000
  H   H8        1.0  0.30731  0.18531  0.48851  1.0000
  H   H9        1.0  0.15253  0.20509  0.01743  1.0000
  C   C12       1.0  0.10015  0.24553  0.02054  1.0000
  C   C13       1.0  0.10985  0.27580  0.48360  1.0000
  C   C14       1.0  0.50186  0.25935  0.09283  1.0000
  C   C15       1.0  0.28039  0.28063  0.21016  1.0000
  C   C16       1.0  0.28232  0.28498  0.24280  1.0000
  C   C17       1.0  0.25574  0.28322  0.26345  1.0000
  C   C18       1.0  0.22695  0.27683  0.25179  1.0000
  C   C19       1.0  0.22502  0.27251  0.21913  1.0000
  C   C20       1.0  0.25146  0.27448  0.19836  1.0000
  H   H10       1.0  0.30459  0.28971  0.25222  1.0000
  H   H11       1.0  0.25769  0.28651  0.28850  1.0000
  H   H12       1.0  0.20293  0.26749  0.20988  1.0000
  H   H13       1.0  0.24959  0.27104  0.17339  1.0000
  H   H14       1.0  0.35013  0.01276  0.47196  1.0000
  H   H15       1.0  0.30697  0.31573  0.19952  1.0000
  C   C21       1.0  0.25189  0.32586  0.12064  1.0000
  H   H16       1.0  0.15992  0.26097  0.45327  1.0000
  N   N1        1.0  0.11417  0.25850  0.47815  1.0000
  H   H17       1.0  0.07880  0.24796  0.00540  1.0000
  C   C22       1.0  0.28101  0.32333  0.14291  1.0000
  H   H18       1.0  0.09606  0.19616  0.00981  1.0000
  H   H19       1.0  0.36110  0.24788  0.43490  1.0000
  H   H20       1.0  0.48712  0.28452  0.17924  1.0000
  H   H21       1.0  0.09405  0.24802  0.04602  1.0000
  H   H22       1.0  0.28535  0.00183  0.45097  1.0000
  H   H23       1.0  0.24492  0.99664  0.45923  1.0000
  C   C23       1.0  0.18294  0.23289  0.02127  1.0000
  H   H24       1.0  0.29124  0.23286  0.03139  1.0000
  H   H25       1.0  0.11792  0.23481  0.42521  1.0000
  H   H26       1.0  0.49983  0.24705  0.09846  1.0000
  H   H27       1.0  0.32728  0.26046  0.43285  1.0000
  H   H28       1.0  0.01477  0.26672  0.30305  1.0000
  C   C24       1.0  0.26307  0.22106  0.99444  1.0000
  H   H29       1.0  0.36302  0.32305  0.19362  1.0000
  H   H30       1.0  0.39427  0.23487  0.46939  1.0000
  H   H31       1.0  0.19410  0.22127  0.02428  1.0000
  C   C25       1.0  0.14135  0.20725  0.99358  1.0000
  C   C26       1.0  0.49959  0.27657  0.19610  1.0000
  H   H32       1.0  0.22496  0.18476  0.47871  1.0000
  H   H33       1.0  0.15972  0.23847  0.42090  1.0000
  H   H34       1.0  0.36423  0.26805  0.44813  1.0000
  C   C27       1.0  0.13959  0.23905  0.43827  1.0000
  H   H35       1.0  0.24149  0.15851  0.45580  1.0000
  C   C28       1.0  0.08167  0.25165  0.46962  1.0000
  H   H36       1.0  0.11949  0.25397  0.01489  1.0000
  H   H37       1.0  0.03384  0.24659  0.48772  1.0000
  H   H38       1.0  0.23645  0.21862  0.45991  1.0000
  H   H39       1.0  0.00817  0.27397  0.26346  1.0000
  H   H40       1.0  0.27834  0.17773  0.46115  1.0000
  H   H41       1.0  0.12621  0.26273  0.42846  1.0000
  H   H42       1.0  0.24477  0.12423  0.47055  1.0000
  H   H43       1.0  0.31698  0.24452  0.47866  1.0000
  C   C29       1.0  0.13556  0.25613  0.44942  1.0000
  H   H44       1.0  0.19300  0.17474  0.45857  1.0000
  H   H45       1.0  0.16909  0.23606  0.04295  1.0000
  C   C30       1.0  0.35378  0.21942  0.47644  1.0000
  H   H46       1.0  0.24453  0.31444  0.11002  1.0000
  H   H47       1.0  0.34229  0.22317  0.45372  1.0000
  C   C31       1.0  0.24344  0.31879  0.20528  1.0000
  C   C32       1.0  0.33742  0.25287  0.48151  1.0000
  H   H48       1.0  0.09943  0.28129  0.46167  1.0000
  H   H49       1.0  0.14518  0.23109  0.45837  1.0000
  C   C33       1.0  0.34867  0.25747  0.44753  1.0000
  S   S15       1.0  0.37472  0.32843  0.08480  1.0000
  H   H50       1.0  0.20307  0.24145  0.01954  1.0000
  H   H51       1.0  0.28364  0.14316  0.47812  1.0000
  H   H52       1.0  0.50182  0.28209  0.22013  1.0000
  H   H53       1.0  0.08311  0.23878  0.46611  1.0000
  C   C34       1.0  0.29319  0.17466  0.48224  1.0000
  H   H54       1.0  0.36692  0.20848  0.47120  1.0000
  H   H55       1.0  0.31077  0.16555  0.47574  1.0000
  C   C35       1.0  0.22813  0.15893  0.47890  1.0000
  H   H56       1.0  0.24000  0.30992  0.18606  1.0000
  H   H57       1.0  0.08718  0.22163  0.01532  1.0000
  H   H58       1.0  0.28103  0.31083  0.15036  1.0000
  H   H59       1.0  0.15981  0.28409  0.47581  1.0000
  C   C36       1.0  0.37762  0.23187  0.48933  1.0000
  H   H60       1.0  0.25972  0.31423  0.22403  1.0000
  H   H61       1.0  0.48373  0.26613  0.19858  1.0000
  H   H62       1.0  0.26700  0.20957  0.00437  1.0000
  H   H63       1.0  0.21013  0.14927  0.47694  1.0000
  C   C37       1.0  0.11011  0.22830  0.01738  1.0000
  C   C38       1.0  0.00779  0.26682  0.38715  1.0000
  H   H64       1.0  0.30229  0.32425  0.12694  1.0000
  H   H65       1.0  0.34600  0.31954  0.15513  1.0000
  H   H66       1.0  0.01127  0.25483  0.39434  1.0000
  H   H67       1.0  0.32664  0.26354  0.49205  1.0000
  H   H68       1.0  0.40076  0.26110  0.48510  1.0000
  C   C39       1.0  0.34540  0.32761  0.17601  1.0000
  C   C40       1.0  0.31196  0.32793  0.19190  1.0000
  Fe  Fe9       1.0  0.11544  0.04097  0.88353  1.0000
  S   S16       1.0  0.14738  0.04273  0.92703  1.0000
  S   S17       1.0  0.06469  0.05008  0.88738  1.0000
  Fe  Fe10      1.0  0.17222  0.03428  0.83801  1.0000
  S   S18       1.0  0.20779  0.03555  0.87854  1.0000
  S   S19       1.0  0.18089  0.03369  0.78381  1.0000
  Fe  Fe11      1.0  0.17131  0.02140  0.90686  1.0000
  H   H69       1.0  0.32213  0.26433  0.54458  1.0000
  Fe  Fe12      1.0  0.18044  0.05663  0.89520  1.0000
  S   S20       1.0  0.20362  0.07955  0.91116  1.0000
  S   S21       1.0  0.13717  0.01879  0.86471  1.0000
  S   S22       1.0  0.14720  0.05615  0.85329  1.0000
  Fe  Fe13      1.0  0.38853  0.04987  0.63005  1.0000
  S   S23       1.0  0.36178  0.05827  0.58672  1.0000
  S   S24       1.0  0.43901  0.05926  0.63883  1.0000
  Fe  Fe14      1.0  0.32749  0.03533  0.65962  1.0000
  S   S25       1.0  0.29667  0.04228  0.61751  1.0000
  S   S26       1.0  0.31381  0.02565  0.70904  1.0000
  Fe  Fe15      1.0  0.33831  0.03430  0.58653  1.0000
  S   S27       1.0  0.33631  0.02394  0.53552  1.0000
  Fe  Fe16      1.0  0.32289  0.06541  0.62049  1.0000
  S   S28       1.0  0.29850  0.08884  0.62699  1.0000
  S   S29       1.0  0.36750  0.02560  0.62852  1.0000
  S   S30       1.0  0.35127  0.05876  0.66390  1.0000
  Fe  Fe17      1.0  0.33373  0.17505  0.57832  1.0000
  S   S31       1.0  0.35986  0.18476  0.62111  1.0000
  S   S32       1.0  0.34279  0.15109  0.55674  1.0000
  Fe  Fe18      1.0  0.30090  0.20640  0.56271  1.0000
  S   S33       1.0  0.32457  0.21834  0.60550  1.0000
  S   S34       1.0  0.26818  0.21402  0.52058  1.0000
  Fe  Fe19      1.0  0.36990  0.20575  0.59065  1.0000
  S   S35       1.0  0.41804  0.21857  0.58564  1.0000
  Fe  Fe20      1.0  0.31273  0.19629  0.63333  1.0000
  S   S36       1.0  0.29881  0.19160  0.68577  1.0000
  S   S37       1.0  0.34694  0.19528  0.54680  1.0000
  S   S38       1.0  0.28612  0.18519  0.59172  1.0000
  Fe  Fe21      1.0  0.16535  0.17023  0.86888  1.0000
  S   S39       1.0  0.13469  0.18550  0.83742  1.0000
  S   S40       1.0  0.15829  0.14467  0.85475  1.0000
  Fe  Fe22      1.0  0.19247  0.19870  0.90666  1.0000
  S   S41       1.0  0.16320  0.21543  0.87762  1.0000
  S   S42       1.0  0.22576  0.20541  0.94920  1.0000
  Fe  Fe23      1.0  0.12194  0.19818  0.88277  1.0000
  S   S43       1.0  0.07238  0.20616  0.90032  1.0000
  Fe  Fe24      1.0  0.17838  0.20104  0.83456  1.0000
  S   S44       1.0  0.19361  0.21322  0.78811  1.0000
  S   S45       1.0  0.15040  0.18219  0.91463  1.0000
  S   S46       1.0  0.20988  0.18513  0.86323  1.0000
  C   C41       1.0  0.02752  0.18823  0.86567  1.0000
  C   C42       1.0  0.03293  0.20005  0.88844  1.0000
  H   H70       1.0  0.02476  0.00511  0.75502  1.0000
  H   H71       1.0  0.04772  0.18257  0.85447  1.0000
  H   H72       1.0  0.22449  0.23906  0.93320  1.0000
  C   C43       1.0  0.45671  0.20978  0.58570  1.0000
  C   C44       1.0  0.46054  0.19355  0.58550  1.0000
  H   H73       1.0  0.17802  0.22999  0.96992  1.0000
  H   H74       1.0  0.43959  0.18601  0.58576  1.0000
  H   H75       1.0  0.48177  0.23193  0.58552  1.0000
  C   C45       1.0  0.26792  0.19734  0.71276  1.0000
  C   C46       1.0  0.26477  0.18935  0.74212  1.0000
  C   C47       1.0  0.24144  0.19368  0.76489  1.0000
  C   C48       1.0  0.22122  0.20628  0.75884  1.0000
  C   C49       1.0  0.22437  0.21430  0.72952  1.0000
  C   C50       1.0  0.24738  0.20980  0.70649  1.0000
  H   H76       1.0  0.28053  0.17971  0.74727  1.0000
  H   H77       1.0  0.23942  0.18740  0.78729  1.0000
  H   H78       1.0  0.20900  0.22412  0.72464  1.0000
  H   H79       1.0  0.24957  0.21613  0.68416  1.0000
  C   C51       1.0  0.16263  0.23371  0.99027  1.0000
  H   H80       1.0  0.43443  0.24665  0.51889  1.0000
  C   C52       1.0  0.27963  0.23025  0.79221  1.0000
  H   H81       1.0  0.05962  0.04583  0.73624  1.0000
  N   N2        1.0  0.25019  0.15629  0.50703  1.0000
  H   H82       1.0  0.27029  0.24762  0.53744  1.0000
  H   H83       1.0  0.04574  0.26637  0.49361  1.0000
  C   C53       1.0  0.24397  0.22256  0.96664  1.0000
  H   H84       1.0  0.10151  0.19575  0.96658  1.0000
  C   C54       1.0  0.31052  0.10601  0.60679  1.0000
  C   C55       1.0  0.32624  0.10545  0.57718  1.0000
  C   C56       1.0  0.33574  0.11939  0.56198  1.0000
  C   C57       1.0  0.32994  0.13394  0.57640  1.0000
  C   C58       1.0  0.31427  0.13450  0.60601  1.0000
  C   C59       1.0  0.30432  0.12058  0.62096  1.0000
  H   H85       1.0  0.33091  0.09427  0.56597  1.0000
  H   H86       1.0  0.34777  0.11887  0.53901  1.0000
  H   H87       1.0  0.30980  0.14566  0.61742  1.0000
  H   H88       1.0  0.29211  0.12110  0.64384  1.0000
  C   C60       1.0  0.39576  0.04203  0.74536  1.0000
  C   C61       1.0  0.24968  0.11382  0.81629  1.0000
  C   C62       1.0  0.19096  0.09771  0.89574  1.0000
  C   C63       1.0  0.17209  0.09847  0.86802  1.0000
  C   C64       1.0  0.16314  0.11301  0.85554  1.0000
  C   C65       1.0  0.17233  0.12697  0.87095  1.0000
  C   C66       1.0  0.19126  0.12629  0.89870  1.0000
  C   C67       1.0  0.20074  0.11168  0.91089  1.0000
  H   H89       1.0  0.16472  0.08790  0.85587  1.0000
  H   H90       1.0  0.14863  0.11348  0.83397  1.0000
  H   H91       1.0  0.19857  0.13698  0.91071  1.0000
  H   H92       1.0  0.21560  0.11121  0.93223  1.0000
  H   H93       1.0  0.40779  0.24747  0.55270  1.0000
  C   C68       1.0  0.21839  0.03186  0.76379  1.0000
  C   C69       1.0  0.22014  0.03513  0.73072  1.0000
  C   C70       1.0  0.24928  0.03370  0.71380  1.0000
  C   C71       1.0  0.27695  0.02867  0.72964  1.0000
  C   C72       1.0  0.27524  0.02550  0.76277  1.0000
  C   C73       1.0  0.24625  0.02722  0.77983  1.0000
  H   H94       1.0  0.19882  0.03874  0.71801  1.0000
  H   H95       1.0  0.25014  0.03613  0.68832  1.0000
  H   H96       1.0  0.29637  0.02150  0.77528  1.0000
  H   H97       1.0  0.24529  0.02457  0.80521  1.0000
  C   C74       1.0  0.47435  0.03199  0.64077  1.0000
  C   C75       1.0  0.47466  0.04832  0.63982  1.0000
  H   H98       1.0  0.11204  0.04487  0.70903  1.0000
  H   H99       1.0  0.45185  0.02569  0.63917  1.0000
  C   C76       1.0  0.06673  0.09703  0.95932  1.0000
  H   H100      1.0  0.12772  0.11006  0.91202  1.0000
  C   C77       1.0  0.50411  0.05637  0.64103  1.0000
  H   H101      1.0  0.41221  0.05535  0.70285  1.0000
  H   H102      1.0  0.04980  0.01714  0.87375  1.0000
  H   H103      1.0  0.37894  0.26992  0.51589  1.0000
  H   H104      1.0  0.05053  0.99911  0.80396  1.0000
  C   C78       1.0  0.02784  0.02373  0.87300  1.0000
  C   C79       1.0  0.24946  0.25970  0.49684  1.0000
  H   H105      1.0  0.22716  0.12634  0.50966  1.0000
  H   H106      1.0  0.50459  0.06900  0.64027  1.0000
  C   C80       1.0  0.38878  0.25844  0.50831  1.0000
  H   H107      1.0  0.26003  0.18046  0.52002  1.0000
  H   H108      1.0  0.24714  0.21446  0.87686  1.0000
  N   N3        1.0  0.24231  0.08453  0.80117  1.0000
  C   C81       1.0  0.25119  0.09651  0.82656  1.0000
  C   C82       1.0  0.23879  0.06901  0.81796  1.0000
  C   C83       1.0  0.21071  0.08920  0.78629  1.0000
  C   C84       1.0  0.26861  0.08456  0.77635  1.0000
  C   C85       1.0  0.26942  0.06276  0.83404  1.0000
  C   C86       1.0  0.19036  0.07622  0.77009  1.0000
  C   C87       1.0  0.26699  0.07189  0.74996  1.0000
  H   H109      1.0  0.23548  0.09528  0.84794  1.0000
  H   H110      1.0  0.27596  0.09464  0.83571  1.0000
  H   H111      1.0  0.23019  0.05964  0.80160  1.0000
  H   H112      1.0  0.21991  0.06972  0.83684  1.0000
  H   H113      1.0  0.19470  0.09432  0.80481  1.0000
  H   H114      1.0  0.21440  0.09858  0.76815  1.0000
  H   H115      1.0  0.26916  0.09587  0.76331  1.0000
  H   H116      1.0  0.29282  0.08408  0.78766  1.0000
  H   H117      1.0  0.22487  0.11750  0.81054  1.0000
  H   H118      1.0  0.26425  0.05094  0.84378  1.0000
  H   H119      1.0  0.28929  0.06142  0.81666  1.0000
  H   H120      1.0  0.27708  0.07012  0.85471  1.0000
  H   H121      1.0  0.20393  0.06910  0.75276  1.0000
  H   H122      1.0  0.17028  0.08164  0.75670  1.0000
  H   H123      1.0  0.17935  0.06845  0.78837  1.0000
  H   H124      1.0  0.25215  0.07573  0.72928  1.0000
  H   H125      1.0  0.25819  0.06050  0.75863  1.0000
  H   H126      1.0  0.29158  0.06949  0.74110  1.0000
  H   H127      1.0  0.40260  0.00242  0.75360  1.0000
  C   C88       1.0  0.48435  0.21937  0.58534  1.0000
  H   H128      1.0  0.28822  0.14005  0.51925  1.0000
  N   N4        1.0  0.41723  0.10993  0.62302  1.0000
  C   C89       1.0  0.42108  0.10603  0.58786  1.0000
  C   C90       1.0  0.40387  0.12620  0.62690  1.0000
  H   H129      1.0  0.40752  0.13055  0.65192  1.0000
  C   C91       1.0  0.43448  0.08971  0.58030  1.0000
  C   C92       1.0  0.41653  0.13902  0.60415  1.0000
  C   C93       1.0  0.47754  0.11747  0.62990  1.0000
  H   H130      1.0  0.43687  0.11448  0.57534  1.0000
  H   H131      1.0  0.39757  0.10696  0.57527  1.0000
  H   H132      1.0  0.37743  0.12602  0.62304  1.0000
  H   H133      1.0  0.41977  0.03134  0.68794  1.0000
  H   H134      1.0  0.43786  0.08856  0.55394  1.0000
  H   H135      1.0  0.45813  0.08775  0.59176  1.0000
  H   H136      1.0  0.41750  0.08032  0.58729  1.0000
  H   H137      1.0  0.40788  0.13707  0.57917  1.0000
  H   H138      1.0  0.44290  0.14022  0.60443  1.0000
  H   H139      1.0  0.40659  0.15045  0.61181  1.0000
  H   H140      1.0  0.11527  0.25573  0.52986  1.0000
  H   H141      1.0  0.47910  0.11845  0.60352  1.0000
  N   N5        1.0  0.36276  0.24633  0.50349  1.0000
  H   H142      1.0  0.12644  0.08308  0.91121  1.0000
  H   H143      1.0  0.46270  0.04115  0.70921  1.0000
  C   C94       1.0  0.27087  0.24259  0.85792  1.0000
  H   H144      1.0  0.26574  0.11646  0.79584  1.0000
  H   H145      1.0  0.05196  0.08239  0.90476  1.0000
  H   H146      1.0  0.37171  0.09747  0.62085  1.0000
  H   H147      1.0  0.06528  0.09119  0.84861  1.0000
  H   H148      1.0  0.38185  0.02340  0.69601  1.0000
  H   H149      1.0  0.27696  0.24778  0.88184  1.0000
  C   C95       1.0  0.33958  0.00460  0.51974  1.0000
  C   C96       1.0  0.11505  0.22585  0.95808  1.0000
  C   C97       1.0  0.23028  0.15466  0.53712  1.0000
  H   H150      1.0  0.43530  0.05897  0.73934  1.0000
  C   C98       1.0  0.07541  0.03573  0.74120  1.0000
  C   C99       1.0  0.49155  0.18706  0.58480  1.0000
  C   C100      1.0  0.33776  0.25583  0.55685  1.0000
  H   H151      1.0  0.14665  0.09551  0.96344  1.0000
  N   N6        1.0  0.06940  0.02904  0.77415  1.0000
  H   H152      1.0  0.09658  0.13700  0.92137  1.0000
  H   H153      1.0  0.25298  0.27116  0.50738  1.0000
  H   H154      1.0  0.40300  0.08651  0.63759  1.0000
  C   C101      1.0  0.44802  0.10817  0.64169  1.0000
  H   H155      1.0  0.45494  0.09566  0.64395  1.0000
  C   C102      1.0  0.39310  0.09848  0.63667  1.0000
  H   H156      1.0  0.25771  0.12127  0.83679  1.0000
  H   H157      1.0  0.36629  0.24019  0.84603  1.0000
  H   H158      1.0  0.50376  0.02724  0.53525  1.0000
  H   H159      1.0  0.27987  0.25121  0.84032  1.0000
  H   H160      1.0  0.33194  0.25142  0.83677  1.0000
  H   H161      1.0  0.32668  0.23287  0.88511  1.0000
  H   H162      1.0  0.06532  0.06118  0.77767  1.0000
  H   H163      1.0  0.15126  0.07497  0.95937  1.0000
  C   C103      1.0  0.44523  0.02606  0.75017  1.0000
  C   C104      1.0  0.34111  0.23933  0.83732  1.0000
  C   C105      1.0  0.27987  0.21937  0.82188  1.0000
  H   H164      1.0  0.11927  0.23801  0.50776  1.0000
  C   C106      1.0  0.34704  0.24202  0.53489  1.0000
  H   H165      1.0  0.44457  0.11184  0.66709  1.0000
  C   C107      1.0  0.41115  0.05640  0.72929  1.0000
  C   C108      1.0  0.41935  0.00641  0.69285  1.0000
  C   C109      1.0  0.11029  0.04081  0.73428  1.0000
  H   H166      1.0  0.35922  0.26192  0.56677  1.0000
  H   H167      1.0  0.08025  0.00622  0.75384  1.0000
  H   H168      1.0  0.09980  0.10150  0.86348  1.0000
  H   H169      1.0  0.23189  0.14842  0.58782  1.0000
  H   H170      1.0  0.22150  0.16627  0.54528  1.0000
  H   H171      1.0  0.34231  0.23428  0.81277  1.0000
  H   H172      1.0  0.09683  0.12710  0.88427  1.0000
  H   H173      1.0  0.31278  0.20058  0.89307  1.0000
  H   H174      1.0  0.36238  0.23411  0.54935  1.0000
  H   H175      1.0  0.29380  0.24114  0.79448  1.0000
  H   H176      1.0  0.39618  0.06677  0.73446  1.0000
  H   H177      1.0  0.26416  0.11660  0.50604  1.0000
  C   C110      1.0  0.11041  0.08368  0.93246  1.0000
  C   C111      1.0  0.38071  0.10206  0.67085  1.0000
  H   H178      1.0  0.36736  0.11319  0.67201  1.0000
  H   H179      1.0  0.28933  0.22378  0.77122  1.0000
  H   H180      1.0  0.12570  0.21789  0.93983  1.0000
  C   C112      1.0  0.23396  0.24255  0.85484  1.0000
  C   C113      1.0  0.01529  0.01714  0.75574  1.0000
  C   C114      1.0  0.27331  0.21646  0.88021  1.0000
  H   H181      1.0  0.33421  0.21709  0.85820  1.0000
  H   H182      1.0  0.25467  0.23319  0.78532  1.0000
  H   H183      1.0  0.13990  0.24503  0.93301  1.0000
  H   H184      1.0  0.06888  0.02704  0.72222  1.0000
  H   H185      1.0  0.36991  0.04175  0.73830  1.0000
  C   C115      1.0  0.06585  0.09340  0.90070  1.0000
  C   C116      1.0  0.32218  0.22859  0.86012  1.0000
  H   H186      1.0  0.24874  0.26231  0.96019  1.0000
  H   H187      1.0  0.08078  0.00886  0.82805  1.0000
  C   C117      1.0  0.13313  0.08432  0.96185  1.0000
  C   C118      1.0  0.25952  0.24634  0.51392  1.0000
  C   C119      1.0  0.03374  0.02782  0.77949  1.0000
  H   H188      1.0  0.44766  0.03235  0.77354  1.0000
  N   N7        1.0  0.28661  0.22689  0.85413  1.0000
  H   H189      1.0  0.22529  0.23615  0.83329  1.0000
  H   H190      1.0  0.28796  0.19368  0.85972  1.0000
  H   H191      1.0  0.09660  0.08049  0.86706  1.0000
  H   H192      1.0  0.22240  0.23754  0.87643  1.0000
  C   C120      1.0  0.25525  0.23140  0.50069  1.0000
  H   H193      1.0  0.22548  0.25477  0.85285  1.0000
  H   H194      1.0  0.49408  0.17451  0.58458  1.0000
  H   H195      1.0  0.48982  0.03896  0.74168  1.0000
  H   H196      1.0  0.04732  0.10236  0.89699  1.0000
  H   H197      1.0  0.27599  0.22216  0.90422  1.0000
  H   H198      1.0  0.20805  0.14768  0.53267  1.0000
  C   C121      1.0  0.12649  0.25057  0.50806  1.0000
  H   H199      1.0  0.17404  0.23960  0.50503  1.0000
  C   C122      1.0  0.41624  0.25388  0.53132  1.0000
  H   H200      1.0  0.41988  0.00579  0.66620  1.0000
  C   C123      1.0  0.08353  0.03933  0.80011  1.0000
  H   H201      1.0  0.29728  0.20988  0.81697  1.0000
  H   H202      1.0  0.47835  0.12931  0.64091  1.0000
  H   H203      1.0  0.25585  0.21356  0.82224  1.0000
  H   H204      1.0  0.42792  0.26462  0.54105  1.0000
  H   H205      1.0  0.09940  0.24177  0.92086  1.0000
  N   N8        1.0  0.08698  0.09697  0.92936  1.0000
  H   H206      1.0  0.36333  0.09277  0.67779  1.0000
  C   C124      1.0  0.23928  0.23757  0.95427  1.0000
  H   H207      1.0  0.27372  0.19303  0.90010  1.0000
  H   H208      1.0  0.08177  0.09925  0.98100  1.0000
  H   H209      1.0  0.27023  0.15346  0.57182  1.0000
  C   C125      1.0  0.40748  0.02267  0.70331  1.0000
  H   H210      1.0  0.13202  0.00559  0.97578  1.0000
  H   H211      1.0  0.11022  0.03957  0.79935  1.0000
  H   H212      1.0  0.05002  0.12128  0.96249  1.0000
  H   H213      1.0  0.12720  0.03098  0.73689  1.0000
  C   C126      1.0  0.28817  0.20006  0.88294  1.0000
  C   C127      1.0  0.08330  0.09161  0.86831  1.0000
  H   H214      1.0  0.17633  0.26067  0.50283  1.0000
  H   H215      1.0  0.10712  0.25149  0.95815  1.0000
  H   H216      1.0  0.14815  0.28233  0.51771  1.0000
  C   C128      1.0  0.00616  0.20726  0.90260  1.0000
  C   C129      1.0  0.07113  0.05628  0.80146  1.0000
  C   C130      1.0  0.07597  0.00297  0.80485  1.0000
  N   N9        1.0  0.41087  0.02641  0.73860  1.0000
  H   H217      1.0  0.40022  0.10204  0.68896  1.0000
  H   H218      1.0  0.07842  0.03436  0.82419  1.0000
  H   H219      1.0  0.11181  0.01463  0.77669  1.0000
  H   H220      1.0  0.04952  0.05705  0.81693  1.0000
  C   C131      1.0  0.08520  0.01327  0.77588  1.0000
  H   H221      1.0  0.29033  0.16742  0.53117  1.0000
  S   S47       1.0  0.18886  0.00032  0.93555  1.0000
  H   H222      1.0  0.39301  0.22599  0.50755  1.0000
  H   H223      1.0  0.16828  0.25117  0.53968  1.0000
  C   C132      1.0  0.27297  0.16990  0.51168  1.0000
  H   H224      1.0  0.45242  0.01379  0.75504  1.0000
  H   H225      1.0  0.44388  0.00397  0.70164  1.0000
  C   C133      1.0  0.08870  0.12593  0.90956  1.0000
  H   H226      1.0  0.02236  0.10814  0.94124  1.0000
  H   H227      1.0  0.11427  0.11625  0.95012  1.0000
  C   C134      1.0  0.24738  0.14738  0.56626  1.0000
  C   C135      1.0  0.02863  0.03979  0.87935  1.0000
  H   H228      1.0  0.48407  0.02315  0.71489  1.0000
  H   H229      1.0  0.09014  0.06406  0.81153  1.0000
  H   H230      1.0  0.06227  0.12571  0.91034  1.0000
  H   H231      1.0  0.32409  0.25126  0.57771  1.0000
  C   C136      1.0  0.39173  0.01416  0.75653  1.0000
  C   C137      1.0  0.03996  0.10926  0.96111  1.0000
  H   H232      1.0  0.11818  0.05070  0.74978  1.0000
  H   H233      1.0  0.25203  0.13476  0.56260  1.0000
  N   N10       1.0  0.13205  0.22418  0.99000  1.0000
  C   C138      1.0  0.25299  0.25078  0.96978  1.0000
  C   C139      1.0  0.10566  0.11210  0.92618  1.0000
  H   H234      1.0  0.09751  0.07221  0.93316  1.0000
  C   C140      1.0  0.11560  0.24209  0.94214  1.0000
  H   H235      1.0  0.39636  0.04477  0.77146  1.0000
  H   H236      1.0  0.05532  0.08531  0.96284  1.0000
  H   H237      1.0  0.08941  0.22222  0.96005  1.0000
  H   H238      1.0  0.32474  0.23510  0.53059  1.0000
  C   C141      1.0  0.47118  0.03273  0.72727  1.0000
  C   C142      1.0  0.16327  0.25070  0.51346  1.0000
  H   H239      1.0  0.06193  0.25109  0.51906  1.0000
  H   H240      1.0  0.49962  0.11116  0.63700  1.0000
  H   H241      1.0  0.48808  0.01619  0.56866  1.0000
  H   H242      1.0  0.12035  0.08192  0.98463  1.0000
  H   H243      1.0  0.02244  0.03952  0.77784  1.0000
  C   C143      1.0  0.26949  0.14183  0.50056  1.0000
  H   H244      1.0  0.49057  0.00087  0.52230  1.0000
  C   C144      1.0  0.25005  0.12649  0.49634  1.0000
  H   H245      1.0  0.37089  0.02603  0.79858  1.0000
  H   H246      1.0  0.40262  0.99703  0.70070  1.0000
  H   H247      1.0  0.36696  0.01306  0.74646  1.0000
  H   H248      1.0  0.02833  0.02384  0.80431  1.0000
  C   C145      1.0  0.38826  0.01665  0.79310  1.0000
  H   H249      1.0  0.41155  0.01912  0.80506  1.0000
  H   H250      1.0  0.00994  0.21641  0.92024  1.0000
  H   H251      1.0  0.15989  0.20408  0.97549  1.0000
  C   C146      1.0  0.50333  0.02384  0.64417  1.0000
  H   H252      1.0  0.50298  0.01122  0.64549  1.0000
  H   H253      1.0  0.19371  0.17507  0.50149  1.0000
  H   H254      1.0  0.37827  0.00580  0.80393  1.0000
  H   H255      1.0  0.02634  0.10742  0.98370  1.0000
  H   H256      1.0  0.15839  0.24627  0.98586  1.0000
  H   H257      1.0  0.01521  0.02209  0.73115  1.0000
  H   H258      1.0  0.09256  0.27802  0.50329  1.0000
  H   H259      1.0  0.13378  0.29790  0.49356  1.0000
  H   H260      1.0  0.12410  0.18323  0.99185  1.0000
  C   C147      1.0  0.11382  0.19513  0.99021  1.0000
  C   C148      1.0  0.05463  0.25419  0.49429  1.0000
  C   C149      1.0  0.13994  0.28530  0.49314  1.0000
  H   H261      1.0  0.33482  0.21656  0.49403  1.0000
  Fe  Fe25      1.0  0.18017  0.42390  0.38782  1.0000
  S   S48       1.0  0.14548  0.42445  0.34681  1.0000
  S   S49       1.0  0.20432  0.40191  0.40602  1.0000
  Fe  Fe26      1.0  0.17933  0.45968  0.39638  1.0000
  S   S50       1.0  0.14481  0.46273  0.35495  1.0000
  S   S51       1.0  0.20242  0.47958  0.42569  1.0000
  Fe  Fe27      1.0  0.11842  0.44206  0.37603  1.0000
  S   S52       1.0  0.06678  0.43802  0.39144  1.0000
  Fe  Fe28      1.0  0.17518  0.44479  0.32897  1.0000
  S   S53       1.0  0.18712  0.44389  0.27524  1.0000
  S   S54       1.0  0.15141  0.44010  0.41870  1.0000
  S   S55       1.0  0.21142  0.44326  0.36872  1.0000
  Fe  Fe29      1.0  0.33083  0.41449  0.09929  1.0000
  S   S56       1.0  0.35639  0.41362  0.14664  1.0000
  S   S57       1.0  0.30224  0.39327  0.08244  1.0000
  Fe  Fe30      1.0  0.35537  0.44788  0.08403  1.0000
  S   S58       1.0  0.38206  0.44901  0.13122  1.0000
  S   S59       1.0  0.37042  0.46783  0.05031  1.0000
  Fe  Fe31      1.0  0.39774  0.42461  0.12027  1.0000
  S   S60       1.0  0.44756  0.41417  0.12031  1.0000
  Fe  Fe32      1.0  0.33790  0.43799  0.15344  1.0000
  S   S61       1.0  0.32266  0.44624  0.20353  1.0000
  S   S62       1.0  0.37328  0.42380  0.07231  1.0000
  S   S63       1.0  0.30986  0.43852  0.10698  1.0000
  C   C150      1.0  0.35191  0.48077  0.02237  1.0000
  H   H262      1.0  0.48916  0.35240  0.03686  1.0000
  H   H263      1.0  0.48779  0.49383  0.07292  1.0000
  H   H264      1.0  0.23718  0.45790  0.48316  1.0000
  H   H265      1.0  0.27037  0.38207  0.27228  1.0000
  N   N11       1.0  0.20194  0.56257  0.48778  1.0000
  H   H266      1.0  0.37499  0.66219  0.01135  1.0000
  C   C151      1.0  0.48213  0.42592  0.12623  1.0000
  H   H267      1.0  0.46636  0.48795  0.10785  1.0000
  C   C152      1.0  0.48040  0.44116  0.13838  1.0000
  H   H268      1.0  0.40544  0.39536  0.03911  1.0000
  H   H269      1.0  0.45741  0.44596  0.14487  1.0000
  C   C153      1.0  0.18724  0.48757  0.46209  1.0000
  C   C154      1.0  0.43140  0.37758  0.06515  1.0000
  C   C155      1.0  0.27108  0.40764  0.33047  1.0000
  H   H270      1.0  0.23477  0.33988  0.17962  1.0000
  C   C156      1.0  0.03117  0.44442  0.37297  1.0000
  H   H271      1.0  0.44916  0.34508  0.99773  1.0000
  C   C157      1.0  0.03115  0.45346  0.34507  1.0000
  C   C158      1.0  0.26715  0.36134  0.15012  1.0000
  H   H272      1.0  0.05365  0.45698  0.33429  1.0000
  C   C159      1.0  0.22522  0.44417  0.25606  1.0000
  C   C160      1.0  0.22699  0.44065  0.22302  1.0000
  C   C161      1.0  0.25665  0.44077  0.20672  1.0000
  C   C162      1.0  0.28490  0.44470  0.22321  1.0000
  C   C163      1.0  0.28312  0.44825  0.25622  1.0000
  C   C164      1.0  0.25355  0.44787  0.27263  1.0000
  H   H273      1.0  0.20523  0.43778  0.20996  1.0000
  H   H274      1.0  0.25754  0.43804  0.18135  1.0000
  H   H275      1.0  0.30478  0.45139  0.26919  1.0000
  H   H276      1.0  0.25260  0.45068  0.29798  1.0000
  C   C165      1.0  0.18786  0.38344  0.39538  1.0000
  C   C166      1.0  0.20516  0.36977  0.40188  1.0000
  C   C167      1.0  0.19333  0.35500  0.39201  1.0000
  C   C168      1.0  0.16409  0.35384  0.37553  1.0000
  C   C169      1.0  0.14669  0.36750  0.36948  1.0000
  C   C170      1.0  0.15842  0.38221  0.37942  1.0000
  H   H277      1.0  0.22794  0.37061  0.41428  1.0000
  H   H278      1.0  0.20695  0.34457  0.39673  1.0000
  H   H279      1.0  0.12403  0.36670  0.35681  1.0000
  H   H280      1.0  0.14467  0.39257  0.37456  1.0000
  C   C171      1.0  0.35184  0.34565  0.08680  1.0000
  C   C172      1.0  0.32190  0.34698  0.07186  1.0000
  C   C173      1.0  0.30651  0.36159  0.07105  1.0000
  C   C174      1.0  0.32109  0.37490  0.08490  1.0000
  C   C175      1.0  0.35044  0.37335  0.10077  1.0000
  C   C176      1.0  0.36547  0.35877  0.10200  1.0000
  H   H281      1.0  0.31119  0.33694  0.05996  1.0000
  H   H282      1.0  0.28369  0.36268  0.05885  1.0000
  H   H283      1.0  0.36176  0.38343  0.11184  1.0000
  H   H284      1.0  0.38806  0.35770  0.11441  1.0000
  C   C177      1.0  0.48931  0.37925  0.07473  1.0000
  H   H285      1.0  0.42690  0.38361  0.08838  1.0000
  C   C178      1.0  0.39374  0.65531  0.02335  1.0000
  H   H286      1.0  0.24223  0.57722  0.47375  1.0000
  H   H287      1.0  0.38687  0.65461  0.04908  1.0000
  N   N12       1.0  0.28495  0.33411  0.17141  1.0000
  C   C179      1.0  0.01561  0.41246  0.31838  1.0000
  H   H288      1.0  0.29346  0.47853  0.21395  1.0000
  H   H289      1.0  0.25231  0.35637  0.13051  1.0000
  H   H290      1.0  0.38667  0.63030  0.02697  1.0000
  H   H291      1.0  0.25337  0.35818  0.29224  1.0000
  C   C180      1.0  0.25366  0.44038  0.45055  1.0000
  N   N13       1.0  0.46195  0.36831  0.06653  1.0000
  H   H292      1.0  0.25196  0.49576  0.19197  1.0000
  H   H293      1.0  0.26162  0.56318  0.42782  1.0000
  C   C181      1.0  0.24734  0.38844  0.26984  1.0000
  H   H294      1.0  0.43047  0.43112  0.02744  1.0000
  H   H295      1.0  0.02238  0.48604  0.40527  1.0000
  H   H296      1.0  0.30299  0.47457  0.03307  1.0000
  H   H297      1.0  0.20728  0.45056  0.45664  1.0000
  H   H298      1.0  0.19728  0.37050  0.28703  1.0000
  H   H299      1.0  0.18525  0.39691  0.25420  1.0000
  H   H300      1.0  0.24558  0.42988  0.43694  1.0000
  C   C182      1.0  0.25360  0.39172  0.32903  1.0000
  H   H301      1.0  0.27803  0.40341  0.24047  1.0000
  C   C183      1.0  0.18417  0.54842  0.47492  1.0000
  H   H302      1.0  0.41030  0.36976  0.06140  1.0000
  H   H303      1.0  0.01059  0.48840  0.44635  1.0000
  H   H304      1.0  0.24942  0.51553  0.17981  1.0000
  C   C184      1.0  0.22483  0.56879  0.46271  1.0000
  H   H305      1.0  0.23270  0.38159  0.25220  1.0000
  C   C185      1.0  0.39867  0.63856  0.01014  1.0000
  H   H306      1.0  0.21443  0.41335  0.29899  1.0000
  C   C186      1.0  0.45828  0.45265  0.02428  1.0000
  H   H307      1.0  0.15988  0.57590  0.47415  1.0000
  H   H308      1.0  0.47640  0.36929  0.01647  1.0000
  H   H309      1.0  0.19408  0.40195  0.32749  1.0000
  H   H310      1.0  0.25452  0.41767  0.33133  1.0000
  H   H311      1.0  0.43775  0.37006  0.13116  1.0000
  H   H312      1.0  0.46723  0.44955  0.99996  1.0000
  C   C187      1.0  0.21367  0.37356  0.30731  1.0000
  H   H313      1.0  0.16007  0.38989  0.28673  1.0000
  H   H314      1.0  0.45649  0.49333  0.02337  1.0000
  H   H315      1.0  0.24787  0.35966  0.33554  1.0000
  H   H316      1.0  0.28850  0.40892  0.31058  1.0000
  H   H317      1.0  0.33208  0.48579  0.22411  1.0000
  C   C188      1.0  0.37167  0.49058  0.00374  1.0000
  H   H318      1.0  0.39934  0.60612  0.00607  1.0000
  H   H319      1.0  0.30712  0.35677  0.18053  1.0000
  H   H320      1.0  0.27799  0.37231  0.14068  1.0000
  C   C189      1.0  0.46378  0.47068  0.06960  1.0000
  C   C190      1.0  0.30543  0.49298  0.99746  1.0000
  H   H321      1.0  0.24121  0.39018  0.35248  1.0000
  C   C191      1.0  0.44937  0.43731  0.04154  1.0000
  C   C192      1.0  0.20468  0.40146  0.30296  1.0000
  H   H322      1.0  0.19813  0.37414  0.32887  1.0000
  H   H323      1.0  0.22052  0.34853  0.31178  1.0000
  C   C193      1.0  0.29431  0.35040  0.16083  1.0000
  H   H324      1.0  0.28529  0.40823  0.35308  1.0000
  H   H325      1.0  0.25979  0.34246  0.21332  1.0000
  H   H326      1.0  0.20051  0.53883  0.46820  1.0000
  N   N14       1.0  0.23022  0.38910  0.30174  1.0000
  N   N15       1.0  0.48149  0.46327  0.04198  1.0000
  H   H327      1.0  0.27294  0.38287  0.32855  1.0000
  H   H328      1.0  0.20053  0.59701  0.47817  1.0000
  H   H329      1.0  0.39737  0.48987  0.00621  1.0000
  H   H330      1.0  0.44060  0.47570  0.06144  1.0000
  H   H331      1.0  0.22803  0.50122  0.15756  1.0000
  H   H332      1.0  0.43949  0.43947  0.06582  1.0000
  H   H333      1.0  0.25672  0.41439  0.26938  1.0000
  H   H334      1.0  0.27967  0.49388  0.99516  1.0000
  H   H335      1.0  0.16261  0.41022  0.27805  1.0000
  H   H336      1.0  0.43586  0.34886  0.08745  1.0000
  H   H337      1.0  0.42008  0.35817  0.01330  1.0000
  C   C194      1.0  0.31860  0.48200  0.01903  1.0000
  H   H338      1.0  0.44660  0.40024  0.04508  1.0000
  C   C195      1.0  0.17677  0.39930  0.27890  1.0000
  H   H339      1.0  0.31437  0.33484  0.21455  1.0000
  H   H340      1.0  0.31160  0.34989  0.14064  1.0000
  H   H341      1.0  0.21144  0.57548  0.44414  1.0000
  H   H342      1.0  0.42482  0.63626  0.01260  1.0000
  C   C196      1.0  0.25473  0.40420  0.25323  1.0000
  H   H343      1.0  0.14352  0.47403  0.46241  1.0000
  H   H344      1.0  0.47005  0.42932  0.04335  1.0000
  H   H345      1.0  0.45687  0.46172  0.08764  1.0000
  H   H346      1.0  0.43461  0.38595  0.01481  1.0000
  H   H347      1.0  0.43522  0.45874  0.01959  1.0000
  C   C197      1.0  0.48201  0.48364  0.08823  1.0000
  C   C198      1.0  0.23561  0.35932  0.31183  1.0000
  H   H348      1.0  0.23666  0.40661  0.23427  1.0000
  C   C199      1.0  0.46866  0.36056  0.03468  1.0000
  C   C200      1.0  0.15790  0.48270  0.47499  1.0000
  H   H349      1.0  0.00794  0.38757  0.31891  1.0000
  C   C201      1.0  0.20552  0.49889  0.47885  1.0000
  N   N16       1.0  0.29778  0.48699  0.14685  1.0000
  C   C202      1.0  0.31479  0.48551  0.11494  1.0000
  C   C203      1.0  0.27603  0.47290  0.15019  1.0000
  C   C204      1.0  0.32307  0.48659  0.17285  1.0000
  C   C205      1.0  0.27980  0.50222  0.14742  1.0000
  C   C206      1.0  0.34109  0.49786  0.10805  1.0000
  C   C207      1.0  0.25096  0.47060  0.12319  1.0000
  C   C208      1.0  0.31133  0.48767  0.20781  1.0000
  C   C209      1.0  0.25093  0.50335  0.17063  1.0000
  H   H350      1.0  0.32616  0.47382  0.11254  1.0000
  H   H351      1.0  0.29753  0.48629  0.09456  1.0000
  H   H352      1.0  0.26273  0.47286  0.17314  1.0000
  H   H353      1.0  0.29047  0.46208  0.15130  1.0000
  H   H354      1.0  0.33751  0.47574  0.17066  1.0000
  H   H355      1.0  0.34037  0.49646  0.17028  1.0000
  H   H356      1.0  0.29644  0.51211  0.15313  1.0000
  H   H357      1.0  0.26993  0.50469  0.12304  1.0000
  H   H358      1.0  0.36344  0.49533  0.12153  1.0000
  H   H359      1.0  0.34745  0.49738  0.08218  1.0000
  H   H360      1.0  0.33316  0.50994  0.11306  1.0000
  H   H361      1.0  0.26224  0.46627  0.10077  1.0000
  H   H362      1.0  0.23334  0.46150  0.13066  1.0000
  H   H363      1.0  0.23755  0.48140  0.11802  1.0000
  H   H364      1.0  0.30197  0.49945  0.21338  1.0000
  H   H365      1.0  0.50186  0.44608  0.07420  1.0000
  H   H366      1.0  0.17153  0.55139  0.45214  1.0000
  C   C210      1.0  0.25543  0.33464  0.19223  1.0000
  C   C211      1.0  0.24456  0.55678  0.44356  1.0000
  H   H367      1.0  0.02755  0.41178  0.34222  1.0000
  H   H368      1.0  0.25911  0.54913  0.45897  1.0000
  C   C212      1.0  0.46890  0.48641  0.00469  1.0000
  H   H369      1.0  0.25177  0.36481  0.17059  1.0000
  H   H370      1.0  0.23026  0.33014  0.13288  1.0000
  H   H371      1.0  0.22839  0.50263  0.46925  1.0000
  H   H372      1.0  0.01262  0.46913  0.42790  1.0000
  H   H373      1.0  0.14856  0.53056  0.48602  1.0000
  C   C213      1.0  0.42999  0.39042  0.03933  1.0000
  H   H374      1.0  0.03504  0.41285  0.30020  1.0000
  C   C214      1.0  0.20405  0.42103  0.48207  1.0000
  H   H375      1.0  0.35396  0.33936  0.16867  1.0000
  H   H376      1.0  0.22910  0.54959  0.42740  1.0000
  C   C215      1.0  0.45823  0.35577  0.09166  1.0000
  H   H377      1.0  0.22488  0.41332  0.47721  1.0000
  H   H378      1.0  0.50412  0.47929  0.09986  1.0000
  H   H379      1.0  0.19364  0.42348  0.45805  1.0000
  S   S64       1.0  0.14887  0.33596  0.36006  1.0000
  H   H380      1.0  0.25975  0.44941  0.43238  1.0000
  C   C216      1.0  0.45696  0.36146  0.12693  1.0000
  C   C217      1.0  0.44077  0.35083  0.02011  1.0000
  H   H381      1.0  0.48375  0.38599  0.09688  1.0000
  C   C218      1.0  0.49419  0.47538  0.01904  1.0000
  H   H382      1.0  0.27602  0.43786  0.46389  1.0000
  H   H383      1.0  0.32976  0.64885  0.00658  1.0000
  C   C219      1.0  0.22723  0.44691  0.47265  1.0000
  H   H384      1.0  0.41668  0.66202  0.02292  1.0000
  H   H385      1.0  0.25824  0.33387  0.10065  1.0000
  H   H386      1.0  0.43253  0.34139  0.03639  1.0000
  H   H387      1.0  0.48014  0.36653  0.13512  1.0000
  H   H388      1.0  0.47788  0.34709  0.08998  1.0000
  H   H389      1.0  0.17577  0.39971  0.48582  1.0000
  H   H390      1.0  0.45173  0.35128  0.14260  1.0000
  H   H391      1.0  0.49269  0.38813  0.05559  1.0000
  S   S65       1.0  0.15070  0.64838  0.55911  1.0000
  S   S66       1.0  0.28790  0.65040  0.90237  1.0000
  Fe  Fe33      1.0  0.35852  0.56330  0.89231  1.0000
  S   S67       1.0  0.38052  0.55311  0.84795  1.0000
  S   S68       1.0  0.37174  0.58912  0.89685  1.0000
  Fe  Fe34      1.0  0.33415  0.53106  0.91409  1.0000
  S   S69       1.0  0.35374  0.51911  0.87016  1.0000
  S   S70       1.0  0.30757  0.51667  0.95229  1.0000
  Fe  Fe35      1.0  0.39773  0.53389  0.87946  1.0000
  S   S71       1.0  0.44625  0.52217  0.87764  1.0000
  Fe  Fe36      1.0  0.33450  0.53945  0.84195  1.0000
  S   S72       1.0  0.31983  0.53927  0.78871  1.0000
  S   S73       1.0  0.37923  0.54482  0.92469  1.0000
  S   S74       1.0  0.31136  0.55066  0.88506  1.0000
  Fe  Fe37      1.0  0.18326  0.56223  0.60441  1.0000
  S   S75       1.0  0.15677  0.56407  0.65078  1.0000
  S   S76       1.0  0.21391  0.58279  0.58897  1.0000
  Fe  Fe38      1.0  0.15969  0.52899  0.59058  1.0000
  S   S77       1.0  0.13155  0.52854  0.63690  1.0000
  S   S78       1.0  0.15096  0.50737  0.55872  1.0000
  Fe  Fe39      1.0  0.11597  0.55266  0.62397  1.0000
  S   S79       1.0  0.06669  0.56340  0.62835  1.0000
  Fe  Fe40      1.0  0.17479  0.53990  0.66047  1.0000
  S   S80       1.0  0.18617  0.53371  0.71288  1.0000
  S   S81       1.0  0.14120  0.55269  0.57654  1.0000
  S   S82       1.0  0.20432  0.53852  0.61518  1.0000
  C   C220      1.0  0.03269  0.53545  0.62620  1.0000
  C   C221      1.0  0.03149  0.55177  0.62704  1.0000
  H   H392      1.0  0.49139  0.51766  0.74761  1.0000
  H   H393      1.0  0.05559  0.52967  0.62486  1.0000
  H   H394      1.0  0.44143  0.52492  0.72535  1.0000
  C   C222      1.0  0.48205  0.53229  0.86792  1.0000
  H   H395      1.0  0.08138  0.49616  0.72652  1.0000
  C   C223      1.0  0.48182  0.54777  0.85733  1.0000
  C   C224      1.0  0.31321  0.58385  0.81788  1.0000
  H   H396      1.0  0.45951  0.55410  0.85656  1.0000
  C   C225      1.0  0.28224  0.53762  0.76841  1.0000
  C   C226      1.0  0.28153  0.53920  0.73475  1.0000
  C   C227      1.0  0.25237  0.53836  0.71748  1.0000
  C   C228      1.0  0.22350  0.53561  0.73362  1.0000
  C   C229      1.0  0.22423  0.53395  0.76728  1.0000
  C   C230      1.0  0.25336  0.53504  0.78463  1.0000
  H   H397      1.0  0.30368  0.54120  0.72189  1.0000
  H   H398      1.0  0.25226  0.53961  0.69162  1.0000
  H   H399      1.0  0.20210  0.53172  0.78003  1.0000
  H   H400      1.0  0.25347  0.53371  0.81046  1.0000
  C   C231      1.0  0.23340  0.42345  0.55179  1.0000
  C   C232      1.0  0.24172  0.43302  0.52160  1.0000
  H   H401      1.0  0.26710  0.57145  0.74598  1.0000
  H   H402      1.0  0.44369  0.64414  0.93441  1.0000
  H   H403      1.0  0.28914  0.63022  0.82736  1.0000
  C   C233      1.0  0.16530  0.50038  0.52110  1.0000
  H   H404      1.0  0.41437  0.59655  0.97091  1.0000
  H   H405      1.0  0.45583  0.49949  0.78377  1.0000
  H   H406      1.0  0.05078  0.55223  0.70398  1.0000
  C   C234      1.0  0.31002  0.63312  0.89686  1.0000
  C   C235      1.0  0.34157  0.63360  0.88571  1.0000
  C   C236      1.0  0.35969  0.61984  0.88452  1.0000
  C   C237      1.0  0.34636  0.60546  0.89408  1.0000
  C   C238      1.0  0.31432  0.60484  0.90385  1.0000
  C   C239      1.0  0.29626  0.61866  0.90531  1.0000
  H   H407      1.0  0.35228  0.64464  0.87884  1.0000
  H   H408      1.0  0.38444  0.62040  0.87682  1.0000
  H   H409      1.0  0.30391  0.59386  0.91159  1.0000
  H   H410      1.0  0.27183  0.61822  0.91400  1.0000
  C   C240      1.0  0.16772  0.63055  0.57176  1.0000
  C   C241      1.0  0.20016  0.62955  0.58003  1.0000
  C   C242      1.0  0.21395  0.61488  0.58600  1.0000
  C   C243      1.0  0.19522  0.60116  0.58486  1.0000
  C   C244      1.0  0.16245  0.60224  0.57794  1.0000
  C   C245      1.0  0.14893  0.61684  0.57082  1.0000
  H   H411      1.0  0.21493  0.64001  0.58053  1.0000
  H   H412      1.0  0.23932  0.61415  0.59121  1.0000
  H   H413      1.0  0.14780  0.59175  0.57685  1.0000
  H   H414      1.0  0.12391  0.61747  0.56417  1.0000
  H   H415      1.0  0.36355  0.59018  0.82387  1.0000
  H   H416      1.0  0.08319  0.54868  0.79695  1.0000
  H   H417      1.0  0.23301  0.56983  0.52693  1.0000
  H   H418      1.0  0.43365  0.50519  0.73501  1.0000
  H   H419      1.0  0.09410  0.65522  0.59017  1.0000
  C   C246      1.0  0.42581  0.51732  0.74044  1.0000
  H   H420      1.0  0.44159  0.54089  0.80641  1.0000
  H   H421      1.0  0.07762  0.54174  0.67907  1.0000
  C   C247      1.0  0.05198  0.64599  0.63387  1.0000
  H   H422      1.0  0.41828  0.56175  0.77714  1.0000
  H   H423      1.0  0.10215  0.51776  0.69550  1.0000
  H   H424      1.0  0.12134  0.49994  0.73985  1.0000
  H   H425      1.0  0.43200  0.62285  0.96604  1.0000
  C   C248      1.0  0.24332  0.54581  0.51944  1.0000
  H   H426      1.0  0.09365  0.52871  0.79836  1.0000
  H   H427      1.0  0.04926  0.61075  0.59961  1.0000
  H   H428      1.0  0.23754  0.53616  0.50275  1.0000
  H   H429      1.0  0.11990  0.52671  0.72898  1.0000
  C   C249      1.0  0.09675  0.50485  0.73927  1.0000
  H   H430      1.0  0.01476  0.62096  0.61453  1.0000
  C   C250      1.0  0.21918  0.55934  0.51894  1.0000
  H   H431      1.0  0.39718  0.49291  0.77532  1.0000
  C   C251      1.0  0.28518  0.59324  0.76782  1.0000
  H   H432      1.0  0.15456  0.41664  0.49806  1.0000
  H   H433      1.0  0.26300  0.59898  0.75885  1.0000
  H   H434      1.0  0.20933  0.51354  0.52137  1.0000
  H   H435      1.0  0.46096  0.51349  0.81475  1.0000
  C   C252      1.0  0.19470  0.50521  0.50825  1.0000
  H   H436      1.0  0.18465  0.40817  0.52413  1.0000
  H   H437      1.0  0.41194  0.55041  0.74170  1.0000
  H   H438      1.0  0.45992  0.54198  0.76804  1.0000
  H   H439      1.0  0.37007  0.49729  0.80752  1.0000
  C   C253      1.0  0.29870  0.61975  0.81488  1.0000
  H   H440      1.0  0.26104  0.56776  0.79988  1.0000
  C   C254      1.0  0.40558  0.62128  0.96347  1.0000
  H   H441      1.0  0.08809  0.62743  0.62536  1.0000
  C   C255      1.0  0.34575  0.58938  0.80397  1.0000
  C   C256      1.0  0.07285  0.54508  0.70445  1.0000
  H   H442      1.0  0.21106  0.45634  0.55437  1.0000
  H   H443      1.0  0.37978  0.52976  0.73160  1.0000
  H   H444      1.0  0.29617  0.58160  0.72257  1.0000
  C   C257      1.0  0.49195  0.51672  0.77415  1.0000
  H   H445      1.0  0.03659  0.51035  0.72352  1.0000
  H   H446      1.0  0.00763  0.66061  0.57123  1.0000
  C   C258      1.0  0.18674  0.44407  0.51406  1.0000
  H   H447      1.0  0.26124  0.42648  0.50953  1.0000
  C   C259      1.0  0.35855  0.50137  0.98188  1.0000
  H   H448      1.0  0.30477  0.60138  0.76114  1.0000
  C   C260      1.0  0.08413  0.63778  0.64081  1.0000
  C   C261      1.0  0.41204  0.54983  0.76831  1.0000
  H   H449      1.0  0.25102  0.61011  0.81176  1.0000
  C   C262      1.0  0.39132  0.51842  0.72684  1.0000
  H   H450      1.0  0.16273  0.57209  0.51599  1.0000
  C   C263      1.0  0.27507  0.60606  0.81979  1.0000
  H   H451      1.0  0.12364  0.55119  0.71477  1.0000
  H   H452      1.0  0.17358  0.43629  0.53072  1.0000
  C   C264      1.0  0.45893  0.51224  0.78823  1.0000
  H   H453      1.0  0.17256  0.46367  0.54408  1.0000
  H   H454      1.0  0.39207  0.51688  0.70034  1.0000
  C   C265      1.0  0.28974  0.57833  0.74755  1.0000
  H   H455      1.0  0.23252  0.58731  0.85438  1.0000
  H   H456      1.0  0.23359  0.58339  0.79634  1.0000
  H   H457      1.0  0.31406  0.58582  0.84432  1.0000
  H   H458      1.0  0.30913  0.57088  0.75704  1.0000
  C   C266      1.0  0.04500  0.63422  0.57864  1.0000
  H   H459      1.0  0.30153  0.62301  0.78934  1.0000
  N   N17       1.0  0.43049  0.52120  0.77563  1.0000
  C   C267      1.0  0.24589  0.57714  0.84489  1.0000
  C   C268      1.0  0.25551  0.57959  0.80947  1.0000
  H   H460      1.0  0.34617  0.62663  0.95089  1.0000
  N   N18       1.0  0.06840  0.53061  0.72454  1.0000
  N   N19       1.0  0.21476  0.43604  0.49835  1.0000
  H   H461      1.0  0.07026  0.63129  0.57238  1.0000
  H   H462      1.0  0.44406  0.65375  0.97334  1.0000
  C   C269      1.0  0.06071  0.53472  0.75894  1.0000
  H   H463      1.0  0.20885  0.59224  0.51961  1.0000
  H   H464      1.0  0.37418  0.50879  0.96776  1.0000
  H   H465      1.0  0.03275  0.63629  0.55523  1.0000
  C   C270      1.0  0.06984  0.66008  0.58667  1.0000
  H   H466      1.0  0.33221  0.65493  0.96456  1.0000
  H   H467      1.0  0.11218  0.54159  0.76960  1.0000
  H   H468      1.0  0.04575  0.51800  0.68500  1.0000
  H   H469      1.0  0.20203  0.55744  0.53902  1.0000
  C   C271      1.0  0.39494  0.49909  0.79863  1.0000
  H   H470      1.0  0.05238  0.65728  0.64742  1.0000
  H   H471      1.0  0.03306  0.63902  0.64579  1.0000
  C   C272      1.0  0.19053  0.59176  0.50033  1.0000
  H   H472      1.0  0.38591  0.64626  0.92917  1.0000
  H   H473      1.0  0.10056  0.56622  0.69704  1.0000
  H   H474      1.0  0.04739  0.52487  0.77040  1.0000
  H   H475      1.0  0.20564  0.46829  0.51897  1.0000
  C   C273      1.0  0.03017  0.61920  0.59335  1.0000
  C   C274      1.0  0.08939  0.53852  0.78156  1.0000
  H   H476      1.0  0.25379  0.44408  0.52934  1.0000
  H   H477      1.0  0.40121  0.61967  0.93723  1.0000
  H   H478      1.0  0.41123  0.49369  0.81650  1.0000
  N   N20       1.0  0.04449  0.64888  0.59890  1.0000
  C   C275      1.0  0.43148  0.65280  0.94994  1.0000
  C   C276      1.0  0.09960  0.55655  0.71476  1.0000
  H   H479      1.0  0.27343  0.60460  0.84627  1.0000
  C   C277      1.0  0.40191  0.51677  0.79589  1.0000
  H   H480      1.0  0.10481  0.64591  0.63826  1.0000
  H   H481      1.0  0.34579  0.60091  0.79229  1.0000
  H   H482      1.0  0.12437  0.48516  0.51409  1.0000
  H   H483      1.0  0.23565  0.41073  0.54696  1.0000
  H   H484      1.0  0.35537  0.58047  0.78718  1.0000
  H   H485      1.0  0.22956  0.56684  0.84650  1.0000
  N   N21       1.0  0.28314  0.59078  0.80365  1.0000
  H   H486      1.0  0.26797  0.55019  0.51453  1.0000
  H   H487      1.0  0.31283  0.57091  0.81480  1.0000
  H   H488      1.0  0.09439  0.56206  0.73827  1.0000
  H   H489      1.0  0.37964  0.52234  0.78728  1.0000
  H   H490      1.0  0.38771  0.54716  0.77733  1.0000
  H   H491      1.0  0.37553  0.50901  0.73624  1.0000
  H   H492      1.0  0.08438  0.63374  0.66613  1.0000
  H   H493      1.0  0.32220  0.61739  0.82617  1.0000
  H   H494      1.0  0.26680  0.57483  0.86055  1.0000
  H   H495      1.0  0.08866  0.50607  0.76444  1.0000
  C   C278      1.0  0.43752  0.53837  0.78045  1.0000
  H   H496      1.0  0.04415  0.54486  0.75972  1.0000
  C   C279      1.0  0.04054  0.52145  0.71031  1.0000
  H   H497      1.0  0.37306  0.60130  0.97237  1.0000
  H   H498      1.0  0.24322  0.54042  0.54370  1.0000
  C   C280      1.0  0.39732  0.60554  0.97954  1.0000
  H   H499      1.0  0.20933  0.42586  0.56151  1.0000
  H   H500      1.0  0.40511  0.52125  0.82084  1.0000
  C   C281      1.0  0.14706  0.48906  0.50430  1.0000
  C   C282      1.0  0.09775  0.52055  0.72124  1.0000
  C   C283      1.0  0.19502  0.45889  0.53381  1.0000
  C   C284      1.0  0.15917  0.54113  0.49763  1.0000
  H   H501      1.0  0.25023  0.42675  0.57148  1.0000
  H   H502      1.0  0.01505  0.61320  0.57495  1.0000
  C   C285      1.0  0.17731  0.57505  0.49442  1.0000
  C   C286      1.0  0.17839  0.41097  0.49903  1.0000
  N   N22       1.0  0.38795  0.63541  0.97601  1.0000
  C   C287      1.0  0.32528  0.50272  0.97864  1.0000
  C   C288      1.0  0.01269  0.65706  0.59634  1.0000
  H   H503      1.0  0.13903  0.54913  0.50262  1.0000
  H   H504      1.0  0.17055  0.59940  0.50808  1.0000
  H   H505      1.0  0.07034  0.65385  0.53493  1.0000
  C   C289      1.0  0.39554  0.64877  0.95365  1.0000
  H   H506      1.0  0.30424  0.64054  0.97678  1.0000
  H   H507      1.0  0.17028  0.53724  0.52041  1.0000
  C   C290      1.0  0.35255  0.63159  0.97474  1.0000
  H   H508      1.0  0.50126  0.52775  0.78501  1.0000
  C   C291      1.0  0.32903  0.64498  0.98118  1.0000
  H   H509      1.0  0.16856  0.44734  0.49558  1.0000
  H   H510      1.0  0.38365  0.65971  0.96086  1.0000
  H   H511      1.0  0.00679  0.53968  0.69375  1.0000
  C   C292      1.0  0.00762  0.52961  0.71037  1.0000
  H   H512      1.0  0.48104  0.49487  0.98849  1.0000
  H   H513      1.0  0.45099  0.47993  0.98990  1.0000
  H   H514      1.0  0.34621  0.62234  0.99237  1.0000
  Fe  Fe41      1.0  0.18448  0.78668  0.14706  1.0000
  S   S83       1.0  0.20919  0.79057  0.09933  1.0000
  S   S84       1.0  0.20234  0.79100  0.19860  1.0000
  Fe  Fe42      1.0  0.11725  0.78239  0.11576  1.0000
  S   S85       1.0  0.13720  0.78571  0.06630  1.0000
  S   S86       1.0  0.06503  0.77932  0.13256  1.0000
  Fe  Fe43      1.0  0.17863  0.77043  0.08103  1.0000
  S   S87       1.0  0.19125  0.75166  0.04312  1.0000
  Fe  Fe44      1.0  0.16654  0.80545  0.08722  1.0000
  S   S88       1.0  0.16601  0.82763  0.05738  1.0000
  S   S89       1.0  0.15634  0.76555  0.12977  1.0000
  S   S90       1.0  0.14410  0.80316  0.13567  1.0000
  Fe  Fe45      1.0  0.31979  0.80491  0.39151  1.0000
  S   S91       1.0  0.36033  0.80068  0.35755  1.0000
  S   S92       1.0  0.29894  0.82886  0.40072  1.0000
  Fe  Fe46      1.0  0.30900  0.76975  0.40545  1.0000
  S   S93       1.0  0.35011  0.76326  0.37293  1.0000
  S   S94       1.0  0.27354  0.75074  0.42271  1.0000
  Fe  Fe47      1.0  0.37737  0.78362  0.39484  1.0000
  S   S95       1.0  0.42778  0.78603  0.41666  1.0000
  Fe  Fe48      1.0  0.32969  0.78090  0.33834  1.0000
  S   S96       1.0  0.32436  0.77458  0.28523  1.0000
  S   S97       1.0  0.33757  0.78885  0.43010  1.0000
  S   S98       1.0  0.28781  0.78647  0.36955  1.0000
  Fe  Fe49      1.0  0.38623  0.94463  0.36152  1.0000
  S   S99       1.0  0.39644  0.93463  0.41009  1.0000
  S   S100      1.0  0.42217  0.95510  0.32709  1.0000
  Fe  Fe50      1.0  0.31585  0.93442  0.36143  1.0000
  S   S101      1.0  0.32120  0.92352  0.41043  1.0000
  S   S102      1.0  0.26661  0.93099  0.33785  1.0000
  Fe  Fe51      1.0  0.34916  0.94530  0.42420  1.0000
  C   C293      1.0  0.24092  0.78671  0.45312  1.0000
  Fe  Fe52      1.0  0.36761  0.91386  0.39248  1.0000
  S   S103      1.0  0.38857  0.88957  0.39853  1.0000
  S   S104      1.0  0.34071  0.95684  0.37633  1.0000
  S   S105      1.0  0.36051  0.92323  0.34277  1.0000
  Fe  Fe53      1.0  0.17918  0.91561  0.11847  1.0000
  S   S106      1.0  0.16168  0.91851  0.16897  1.0000
  S   S107      1.0  0.20909  0.89360  0.11458  1.0000
  Fe  Fe54      1.0  0.15208  0.94763  0.09733  1.0000
  S   S108      1.0  0.13360  0.95245  0.14737  1.0000
  S   S109      1.0  0.13457  0.96597  0.06122  1.0000
  Fe  Fe55      1.0  0.18073  0.94298  0.16558  1.0000
  S   S110      1.0  0.21625  0.95422  0.20105  1.0000
  Fe  Fe56      1.0  0.11652  0.92750  0.14629  1.0000
  S   S111      1.0  0.06828  0.91646  0.15756  1.0000
  S   S112      1.0  0.20041  0.93994  0.11559  1.0000
  S   S113      1.0  0.13268  0.92288  0.09583  1.0000
  C   C294      1.0  0.25299  0.93775  0.29994  1.0000
  C   C295      1.0  0.27022  0.94877  0.28206  1.0000
  C   C296      1.0  0.25837  0.95380  0.25208  1.0000
  C   C297      1.0  0.22950  0.94773  0.23936  1.0000
  C   C298      1.0  0.21223  0.93673  0.25730  1.0000
  C   C299      1.0  0.22382  0.93188  0.28751  1.0000
  H   H515      1.0  0.29260  0.95346  0.29135  1.0000
  H   H516      1.0  0.27181  0.96238  0.23850  1.0000
  H   H517      1.0  0.18984  0.93206  0.24801  1.0000
  H   H518      1.0  0.21022  0.92342  0.30123  1.0000
  C   C300      1.0  0.49086  0.81680  0.34380  1.0000
  C   C301      1.0  0.03306  0.92764  0.16034  1.0000
  C   C302      1.0  0.22615  0.81364  0.44343  1.0000
  H   H519      1.0  0.05671  0.94894  0.17525  1.0000
  C   C303      1.0  0.26033  0.74340  0.46076  1.0000
  H   H520      1.0  0.07147  0.97566  0.05448  1.0000
  C   C304      1.0  0.46414  0.95769  0.33110  1.0000
  C   C305      1.0  0.24540  0.94032  0.43444  1.0000
  H   H521      1.0  0.35187  0.98624  0.44730  1.0000
  H   H522      1.0  0.06734  0.98701  0.10107  1.0000
  N   N23       1.0  0.03035  0.96149  0.06780  1.0000
  H   H523      1.0  0.04419  0.78520  0.06599  1.0000
  C   C306      1.0  0.15096  0.97565  0.02698  1.0000
  C   C307      1.0  0.32414  0.84562  0.39940  1.0000
  C   C308      1.0  0.31040  0.86048  0.39672  1.0000
  C   C309      1.0  0.32982  0.87405  0.39618  1.0000
  C   C310      1.0  0.36315  0.87286  0.39893  1.0000
  C   C311      1.0  0.37682  0.85801  0.40207  1.0000
  C   C312      1.0  0.35749  0.84442  0.40191  1.0000
  H   H524      1.0  0.28464  0.86153  0.39486  1.0000
  H   H525      1.0  0.31898  0.88542  0.39386  1.0000
  H   H526      1.0  0.40245  0.85707  0.40499  1.0000
  H   H527      1.0  0.36824  0.83306  0.40452  1.0000
  C   C313      1.0  0.23729  0.78666  0.22138  1.0000
  C   C314      1.0  0.26184  0.77719  0.20969  1.0000
  C   C315      1.0  0.28854  0.77376  0.22935  1.0000
  C   C316      1.0  0.29101  0.77976  0.26082  1.0000
  C   C317      1.0  0.26656  0.78931  0.27239  1.0000
  C   C318      1.0  0.23992  0.79271  0.25278  1.0000
  H   H528      1.0  0.26016  0.77244  0.18562  1.0000
  H   H529      1.0  0.30731  0.76638  0.22012  1.0000
  H   H530      1.0  0.26814  0.79410  0.29643  1.0000
  H   H531      1.0  0.22111  0.80008  0.26204  1.0000
  C   C319      1.0  0.17722  0.84586  0.07426  1.0000
  C   C320      1.0  0.19612  0.84687  0.10201  1.0000
  C   C321      1.0  0.20541  0.86159  0.11428  1.0000
  C   C322      1.0  0.19498  0.87541  0.09962  1.0000
  C   C323      1.0  0.17537  0.87441  0.07235  1.0000
  C   C324      1.0  0.16701  0.85968  0.05940  1.0000
  H   H532      1.0  0.20421  0.83631  0.11359  1.0000
  H   H533      1.0  0.22090  0.86226  0.13515  1.0000
  H   H534      1.0  0.16767  0.88497  0.06055  1.0000
  H   H535      1.0  0.15250  0.85899  0.03785  1.0000
  H   H536      1.0  0.23233  0.96950  0.33294  1.0000
  C   C325      1.0  0.22515  0.74435  0.02159  1.0000
  H   H537      1.0  0.42721  0.91162  0.35593  1.0000
  H   H538      1.0  0.23284  0.81194  0.04721  1.0000
  C   C326      1.0  0.25658  0.74950  0.02757  1.0000
  H   H539      1.0  0.42245  0.84949  0.30617  1.0000
  C   C327      1.0  0.22040  0.79282  0.01420  1.0000
  C   C328      1.0  0.47781  0.91284  0.34112  1.0000
  H   H540      1.0  0.25875  0.78691  0.43329  1.0000
  H   H541      1.0  0.03997  0.93409  0.03356  1.0000
  C   C329      1.0  0.47173  0.77441  0.37248  1.0000
  C   C330      1.0  0.46661  0.78327  0.40026  1.0000
  H   H542      1.0  0.25774  0.81218  0.01289  1.0000
  H   H543      1.0  0.45156  0.76890  0.36038  1.0000
  H   H544      1.0  0.42588  0.82358  0.41315  1.0000
  H   H545      1.0  0.20441  0.98363  0.41656  1.0000
  C   C331      1.0  0.02673  0.78084  0.11368  1.0000
  H   H546      1.0  0.26112  0.75794  0.04650  1.0000
  H   H547      1.0  0.24037  0.81268  0.42084  1.0000
  H   H548      1.0  0.21943  0.94097  0.43952  1.0000
  C   C332      1.0  0.48080  0.95621  0.36031  1.0000
  H   H549      1.0  0.44313  0.79665  0.27738  1.0000
  H   H550      1.0  0.06924  0.96878  0.12300  1.0000
  H   H551      1.0  0.21172  0.98071  0.36253  1.0000
  H   H552      1.0  0.41876  0.85117  0.34938  1.0000
  H   H553      1.0  0.47873  0.84636  0.35445  1.0000
  H   H554      1.0  0.00955  0.98242  0.08848  1.0000
  N   N24       1.0  0.24662  0.96915  0.41630  1.0000
  C   C333      1.0  0.44506  0.82698  0.39599  1.0000
  C   C334      1.0  0.24709  0.96387  0.38159  1.0000
  H   H555      1.0  0.04087  0.94412  0.10360  1.0000
  C   C335      1.0  0.26225  0.95643  0.43567  1.0000
  H   H556      1.0  0.10911  0.88785  0.09473  1.0000
  N   N25       1.0  0.45938  0.82449  0.33593  1.0000
  C   C336      1.0  0.06009  0.96227  0.01313  1.0000
  H   H557      1.0  0.46764  0.95375  0.38206  1.0000
  C   C337      1.0  0.05330  0.97828  0.11489  1.0000
  N   N26       1.0  0.24693  0.73927  0.31358  1.0000
  C   C338      1.0  0.27508  0.73693  0.29129  1.0000
  C   C339      1.0  0.21710  0.73864  0.29295  1.0000
  C   C340      1.0  0.24652  0.72587  0.33702  1.0000
  C   C341      1.0  0.25140  0.75464  0.33096  1.0000
  C   C342      1.0  0.30822  0.73516  0.30738  1.0000
  C   C343      1.0  0.21464  0.75148  0.26713  1.0000
  C   C344      1.0  0.21903  0.72547  0.36161  1.0000
  C   C345      1.0  0.22122  0.76225  0.34571  1.0000
  H   H558      1.0  0.27127  0.72644  0.27571  1.0000
  H   H559      1.0  0.27766  0.74696  0.27454  1.0000
  H   H560      1.0  0.19486  0.73923  0.30723  1.0000
  H   H561      1.0  0.21525  0.72716  0.28031  1.0000
  H   H562      1.0  0.24607  0.71451  0.32383  1.0000
  H   H563      1.0  0.26873  0.72593  0.35195  1.0000
  H   H564      1.0  0.26938  0.75343  0.35060  1.0000
  H   H565      1.0  0.26194  0.76349  0.31450  1.0000
  H   H566      1.0  0.31324  0.74456  0.32506  1.0000
  H   H567      1.0  0.31084  0.72358  0.31889  1.0000
  H   H568      1.0  0.32711  0.73604  0.28867  1.0000
  H   H569      1.0  0.23195  0.74968  0.24730  1.0000
  H   H570      1.0  0.19036  0.75107  0.25605  1.0000
  H   H571      1.0  0.21802  0.76334  0.27733  1.0000
  H   H572      1.0  0.22089  0.73537  0.37881  1.0000
  H   H573      1.0  0.22129  0.71472  0.37629  1.0000
  H   H574      1.0  0.19497  0.72495  0.35033  1.0000
  H   H575      1.0  0.22664  0.76587  0.37082  1.0000
  H   H576      1.0  0.19960  0.75477  0.34688  1.0000
  H   H577      1.0  0.21526  0.77313  0.33260  1.0000
  N   N27       1.0  0.09962  0.86749  0.14989  1.0000
  C   C346      1.0  0.07631  0.87439  0.12618  1.0000
  C   C347      1.0  0.08099  0.86210  0.17888  1.0000
  C   C348      1.0  0.11681  0.85375  0.13560  1.0000
  C   C349      1.0  0.12423  0.87980  0.15869  1.0000
  C   C350      1.0  0.09007  0.87877  0.09298  1.0000
  C   C351      1.0  0.06824  0.87518  0.20091  1.0000
  C   C352      1.0  0.09521  0.84044  0.12252  1.0000
  C   C353      1.0  0.14912  0.87517  0.18454  1.0000
  H   H578      1.0  0.05546  0.86643  0.12201  1.0000
  H   H579      1.0  0.06568  0.88523  0.13603  1.0000
  H   H580      1.0  0.09528  0.85405  0.19406  1.0000
  H   H581      1.0  0.05979  0.85496  0.17139  1.0000
  H   H582      1.0  0.13273  0.85761  0.11592  1.0000
  H   H583      1.0  0.13326  0.84837  0.15344  1.0000
  H   H584      1.0  0.13838  0.88332  0.13728  1.0000
  H   H585      1.0  0.11256  0.89082  0.16638  1.0000
  H   H586      1.0  0.18890  0.78131  0.45599  1.0000
  H   H587      1.0  0.09918  0.86848  0.07970  1.0000
  H   H588      1.0  0.07061  0.88382  0.07813  1.0000
  H   H589      1.0  0.08800  0.88163  0.21316  1.0000
  H   H590      1.0  0.05298  0.88356  0.18775  1.0000
  H   H591      1.0  0.05320  0.86988  0.22004  1.0000
  H   H592      1.0  0.07874  0.84437  0.10335  1.0000
  H   H593      1.0  0.08151  0.83464  0.14198  1.0000
  C   C354      1.0  0.22003  0.73327  0.99689  1.0000
  H   H594      1.0  0.17307  0.87361  0.17340  1.0000
  H   H595      1.0  0.14323  0.86433  0.19766  1.0000
  H   H596      1.0  0.15123  0.88464  0.20276  1.0000
  N   N28       1.0  0.27845  0.90960  0.19882  1.0000
  C   C355      1.0  0.24232  0.90816  0.19879  1.0000
  C   C356      1.0  0.28724  0.92322  0.17754  1.0000
  C   C357      1.0  0.28947  0.91265  0.23303  1.0000
  C   C358      1.0  0.29160  0.89442  0.18628  1.0000
  C   C359      1.0  0.22770  0.89632  0.22269  1.0000
  C   C360      1.0  0.27763  0.92167  0.14184  1.0000
  C   C361      1.0  0.32016  0.92262  0.23814  1.0000
  C   C362      1.0  0.32815  0.89381  0.18188  1.0000
  H   H597      1.0  0.23124  0.91968  0.20374  1.0000
  H   H598      1.0  0.23312  0.90457  0.17482  1.0000
  H   H599      1.0  0.31344  0.92554  0.17756  1.0000
  H   H600      1.0  0.27619  0.93415  0.18694  1.0000
  H   H601      1.0  0.27084  0.91907  0.24662  1.0000
  H   H602      1.0  0.29266  0.90149  0.24630  1.0000
  H   H603      1.0  0.28535  0.88462  0.20263  1.0000
  H   H604      1.0  0.28029  0.89132  0.16277  1.0000
  H   H605      1.0  0.19284  0.96136  0.02235  1.0000
  H   H606      1.0  0.23471  0.89869  0.24798  1.0000
  H   H607      1.0  0.20120  0.89727  0.22167  1.0000
  H   H608      1.0  0.25142  0.92055  0.13855  1.0000
  H   H609      1.0  0.28504  0.93248  0.12906  1.0000
  H   H610      1.0  0.28972  0.91178  0.12981  1.0000
  H   H611      1.0  0.34103  0.91838  0.22450  1.0000
  H   H612      1.0  0.32671  0.92248  0.26407  1.0000
  H   H613      1.0  0.31586  0.93503  0.23190  1.0000
  H   H614      1.0  0.33710  0.90291  0.16522  1.0000
  H   H615      1.0  0.33444  0.88233  0.17117  1.0000
  H   H616      1.0  0.34082  0.89464  0.20523  1.0000
  C   C363      1.0  0.44344  0.90621  0.33813  1.0000
  C   C364      1.0  0.49279  0.91317  0.43285  1.0000
  H   H617      1.0  0.24909  0.93445  0.41092  1.0000
  C   C365      1.0  0.21230  0.97210  0.42584  1.0000
  C   C366      1.0  0.48121  0.96153  0.30333  1.0000
  C   C367      1.0  0.13401  0.98821  0.01347  1.0000
  H   H618      1.0  0.46026  0.82222  0.28374  1.0000
  H   H619      1.0  0.44247  0.89334  0.34032  1.0000
  H   H620      1.0  0.07501  0.95094  0.08266  1.0000
  C   C368      1.0  0.22452  0.72576  0.49089  1.0000
  C   C369      1.0  0.04929  0.94764  0.07937  1.0000
  H   H621      1.0  0.48122  0.84436  0.31227  1.0000
  C   C370      1.0  0.26678  0.98384  0.41894  1.0000
  C   C371      1.0  0.50311  0.77245  0.36063  1.0000
  H   H622      1.0  0.03308  0.92349  0.07044  1.0000
  H   H623      1.0  0.41454  0.79768  0.30975  1.0000
  H   H624      1.0  0.07250  0.92764  0.05723  1.0000
  C   C372      1.0  0.27199  0.80824  0.47786  1.0000
  H   H625      1.0  0.23185  0.95326  0.37810  1.0000
  C   C373      1.0  0.50005  0.89121  0.37447  1.0000
  C   C374      1.0  0.20923  0.78010  0.43915  1.0000
  H   H626      1.0  0.29191  0.98147  0.41129  1.0000
  H   H627      1.0  0.22695  0.72704  0.43914  1.0000
  N   N29       1.0  0.49599  0.90859  0.37122  1.0000
  H   H628      1.0  0.18821  0.98143  0.46817  1.0000
  H   H629      1.0  0.47635  0.91820  0.45105  1.0000
  H   H630      1.0  0.19612  0.96329  0.41420  1.0000
  C   C375      1.0  0.23642  0.73165  0.46148  1.0000
  H   H631      1.0  0.04495  0.98435  0.13693  1.0000
  H   H632      1.0  0.11070  0.83142  0.11142  1.0000
  S   S114      1.0  0.33893  0.95510  0.47453  1.0000
  C   C376      1.0  0.43547  0.85209  0.32885  1.0000
  H   H633      1.0  0.48953  0.79707  0.43737  1.0000
  C   C377      1.0  0.28234  0.74361  0.00920  1.0000
  H   H634      1.0  0.28730  0.95466  0.42735  1.0000
  H   H635      1.0  0.21202  0.76744  0.43407  1.0000
  C   C378      1.0  0.49322  0.79023  0.41581  1.0000
  C   C379      1.0  0.04803  0.93259  0.05859  1.0000
  H   H636      1.0  0.46947  0.92660  0.39611  1.0000
  C   C380      1.0  0.03400  0.94339  0.16942  1.0000
  H   H637      1.0  0.00870  0.96601  0.11416  1.0000
  H   H638      1.0  0.22651  0.78095  0.02308  1.0000
  H   H639      1.0  0.41156  0.82543  0.35634  1.0000
  H   H640      1.0  0.26343  0.79769  0.04324  1.0000
  C   C381      1.0  0.26841  0.99175  0.45220  1.0000
  H   H641      1.0  0.44316  0.86453  0.32767  1.0000
  H   H642      1.0  0.47593  0.92576  0.33926  1.0000
  H   H643      1.0  0.27764  0.98396  0.47119  1.0000
  C   C382      1.0  0.43947  0.80067  0.30250  1.0000
  H   H644      1.0  0.43365  0.90925  0.31412  1.0000
  C   C383      1.0  0.46541  0.84182  0.33311  1.0000
  H   H645      1.0  0.45365  0.90745  0.40163  1.0000
  C   C384      1.0  0.27232  0.74912  0.49002  1.0000
  H   H646      1.0  0.43225  0.80807  0.36454  1.0000
  H   H647      1.0  0.28718  0.80940  0.45604  1.0000
  C   C385      1.0  0.44553  0.81850  0.30469  1.0000
  H   H648      1.0  0.03522  0.98130  0.03593  1.0000
  C   C386      1.0  0.43578  0.82091  0.36226  1.0000
  H   H649      1.0  0.27170  0.96043  0.37434  1.0000
  C   C387      1.0  0.47652  0.91420  0.39951  1.0000
  H   H650      1.0  0.47671  0.88505  0.37820  1.0000
  C   C388      1.0  0.34097  0.97429  0.49134  1.0000
  H   H651      1.0  0.19069  0.96080  0.46808  1.0000
  H   H652      1.0  0.23361  0.88412  0.21614  1.0000
  C   C389      1.0  0.02311  0.78376  0.08080  1.0000
  H   H653      1.0  0.44728  0.83987  0.39691  1.0000
  H   H654      1.0  0.19676  0.79534  0.02533  1.0000
  H   H655      1.0  0.42178  0.82386  0.30001  1.0000
  H   H656      1.0  0.04000  0.95709  0.99918  1.0000
  H   H657      1.0  0.11212  0.99207  0.02465  1.0000
  H   H658      1.0  0.21358  0.83316  0.47609  1.0000
  H   H659      1.0  0.20108  0.81051  0.43659  1.0000
  H   H660      1.0  0.45600  0.79370  0.31733  1.0000
  H   H661      1.0  0.46745  0.82161  0.40487  1.0000
  H   H662      1.0  0.25634  0.93265  0.45287  1.0000
  C   C390      1.0  0.04911  0.97091  0.04364  1.0000
  N   N30       1.0  0.23880  0.80261  0.46866  1.0000
  H   H663      1.0  0.25323  0.98510  0.35221  1.0000
  H   H664      1.0  0.46858  0.96289  0.28077  1.0000
  C   C391      1.0  0.02372  0.97210  0.09609  1.0000
  C   C392      1.0  0.34705  0.98754  0.47268  1.0000
  C   C393      1.0  0.22553  0.83111  0.45273  1.0000
  H   H665      1.0  0.21194  0.83758  0.43412  1.0000
  C   C394      1.0  0.23528  0.97568  0.35635  1.0000
  H   H666      1.0  0.30650  0.74765  0.01423  1.0000
  H   H667      1.0  0.25017  0.77781  0.46975  1.0000
  C   C395      1.0  0.20438  0.97160  0.46220  1.0000
  H   H668      1.0  0.48704  0.80485  0.35312  1.0000
  H   H669      1.0  0.25001  0.83633  0.45300  1.0000
  H   H670      1.0  0.26518  0.95961  0.46131  1.0000
  H   H671      1.0  0.07236  0.97076  0.99711  1.0000
  H   H672      1.0  0.22509  0.97264  0.47867  1.0000
  C   C396      1.0  0.24512  0.80429  0.02954  1.0000
  H   H673      1.0  0.20328  0.78574  0.41595  1.0000
  H   H674      1.0  0.00617  0.96405  0.17872  1.0000
  H   H675      1.0  0.21079  0.82559  0.99896  1.0000
  H   H676      1.0  0.49057  0.90930  0.31902  1.0000
  H   H677      1.0  0.27679  0.77934  0.99665  1.0000
  H   H678      1.0  0.29114  0.75787  0.49007  1.0000
  H   H679      1.0  0.25772  0.99306  0.40268  1.0000
  H   H680      1.0  0.50338  0.82304  0.36382  1.0000
  H   H681      1.0  0.49710  0.90093  0.44010  1.0000
  H   H682      1.0  0.20613  0.71676  0.49094  1.0000
  H   H683      1.0  0.07824  0.95330  0.01894  1.0000
  C   C397      1.0  0.17950  0.97098  0.01239  1.0000
  H   H684      1.0  0.16264  0.77753  0.00400  1.0000
  H   H685      1.0  0.19132  0.80405  0.48900  1.0000
  H   H686      1.0  0.27126  0.82010  0.48881  1.0000
  Fe  Fe57      1.0  0.12665  0.69750  0.61486  1.0000
  S   S115      1.0  0.14342  0.69408  0.56395  1.0000
  S   S116      1.0  0.07689  0.70323  0.63545  1.0000
  Fe  Fe58      1.0  0.19247  0.68707  0.64331  1.0000
  S   S117      1.0  0.21300  0.68230  0.59424  1.0000
  S   S118      1.0  0.21565  0.67885  0.69026  1.0000
  Fe  Fe59      1.0  0.19057  0.70524  0.57961  1.0000
  S   S119      1.0  0.22104  0.72538  0.55828  1.0000
  H   H687      1.0  0.26933  0.74806  0.54183  1.0000
  S   S120      1.0  0.17205  0.71033  0.62980  1.0000
  S   S121      1.0  0.14592  0.67470  0.63214  1.0000
  Fe  Fe60      1.0  0.37481  0.69171  0.88508  1.0000
  S   S122      1.0  0.34594  0.68546  0.92904  1.0000
  S   S123      1.0  0.42741  0.68394  0.88087  1.0000
  Fe  Fe61      1.0  0.31375  0.70151  0.84815  1.0000
  S   S124      1.0  0.28093  0.69598  0.88950  1.0000
  S   S125      1.0  0.29787  0.71262  0.80090  1.0000
  Fe  Fe62      1.0  0.31814  0.70773  0.92099  1.0000
  S   S126      1.0  0.31088  0.72567  0.96194  1.0000
  Fe  Fe63      1.0  0.31098  0.67427  0.89451  1.0000
  S   S127      1.0  0.34967  0.71471  0.87906  1.0000
  S   S128      1.0  0.34101  0.67906  0.85114  1.0000
  H   H688      1.0  0.45831  0.68718  0.81367  1.0000
  H   H689      1.0  0.31522  0.80329  0.50474  1.0000
  H   H690      1.0  0.35453  0.69449  0.79106  1.0000
  H   H691      1.0  0.01323  0.66805  0.61077  1.0000
  C   C398      1.0  0.16279  0.72517  0.71012  1.0000
  H   H692      1.0  0.40763  0.71570  0.73956  1.0000
  H   H693      1.0  0.39473  0.70252  0.82907  1.0000
  H   H694      1.0  0.43273  0.70917  0.81768  1.0000
  C   C399      1.0  0.33432  0.99131  0.53854  1.0000
  H   H695      1.0  0.14996  0.68842  0.70184  1.0000
  H   H696      1.0  0.33003  0.96614  0.53904  1.0000
  C   C400      1.0  0.39515  0.72540  0.80787  1.0000
  C   C401      1.0  0.23610  0.73168  0.52017  1.0000
  H   H697      1.0  0.24126  0.71889  0.95969  1.0000
  Fe  Fe64      1.0  0.16481  0.67158  0.58238  1.0000
  C   C402      1.0  0.06815  0.66428  0.55062  1.0000
  H   H698      1.0  0.22167  0.81326  0.51262  1.0000
  C   C403      1.0  0.23861  0.68862  0.72048  1.0000
  C   C404      1.0  0.24721  0.68030  0.74825  1.0000
  C   C405      1.0  0.26514  0.68748  0.77312  1.0000
  C   C406      1.0  0.27470  0.70312  0.77050  1.0000
  C   C407      1.0  0.26610  0.71146  0.74274  1.0000
  C   C408      1.0  0.24811  0.70427  0.71786  1.0000
  H   H699      1.0  0.06979  0.67119  0.60070  1.0000
  H   H700      1.0  0.27155  0.68091  0.79431  1.0000
  H   H701      1.0  0.27349  0.72355  0.74040  1.0000
  H   H702      1.0  0.24191  0.71080  0.69656  1.0000
  C   C409      1.0  0.47175  0.70873  0.87711  1.0000
  C   C410      1.0  0.46660  0.69258  0.87924  1.0000
  C   C411      1.0  0.29066  0.79828  0.50211  1.0000
  H   H703      1.0  0.45148  0.71651  0.87747  1.0000
  C   C412      1.0  0.24952  0.79323  0.96123  1.0000
  H   H704      1.0  0.35949  0.67586  0.74686  1.0000
  C   C413      1.0  0.03769  0.70089  0.61842  1.0000
  C   C414      1.0  0.27722  0.73251  0.98451  1.0000
  H   H705      1.0  0.05313  0.69815  0.56952  1.0000
  H   H706      1.0  0.14968  0.71271  0.77350  1.0000
  C   C415      1.0  0.36879  0.69867  0.77021  1.0000
  H   H707      1.0  0.35978  0.71058  0.76482  1.0000
  H   H708      1.0  0.12054  0.70289  0.81484  1.0000
  C   C416      1.0  0.45014  0.68018  0.79279  1.0000
  C   C417      1.0  0.45535  0.71376  0.75809  1.0000
  C   C418      1.0  0.50326  0.71483  0.87421  1.0000
  H   H709      1.0  0.26476  0.76854  0.96101  1.0000
  H   H710      1.0  0.40370  0.73181  0.78647  1.0000
  H   H711      1.0  0.41003  0.67507  0.76328  1.0000
  N   N31       1.0  0.21750  0.79276  0.97804  1.0000
  C   C419      1.0  0.35878  0.68849  0.74110  1.0000
  C   C420      1.0  0.41451  0.68261  0.78463  1.0000
  H   H712      1.0  0.33338  0.69104  0.73495  1.0000
  C   C421      1.0  0.40763  0.70850  0.80914  1.0000
  H   H713      1.0  0.19630  0.78031  0.51336  1.0000
  H   H714      1.0  0.26261  0.80435  0.96509  1.0000
  C   C422      1.0  0.42216  0.70626  0.75063  1.0000
  H   H715      1.0  0.10294  0.68931  0.78763  1.0000
  H   H716      1.0  0.29662  0.78245  0.95924  1.0000
  H   H717      1.0  0.46773  0.70933  0.77964  1.0000
  C   C423      1.0  0.33478  0.97629  0.52435  1.0000
  H   H718      1.0  0.17325  0.80583  0.97876  1.0000
  H   H719      1.0  0.47164  0.71156  0.73752  1.0000
  H   H720      1.0  0.08301  0.70737  0.79740  1.0000
  H   H721      1.0  0.02385  0.98842  0.96307  1.0000
  H   H722      1.0  0.12420  0.67079  0.74458  1.0000
  H   H723      1.0  0.08891  0.67198  0.54484  1.0000
  C   C424      1.0  0.49345  0.68271  0.87868  1.0000
  H   H724      1.0  0.15842  0.76322  0.97319  1.0000
  H   H725      1.0  0.20159  0.77640  0.94097  1.0000
  H   H726      1.0  0.21248  0.79206  0.54451  1.0000
  C   C425      1.0  0.01068  0.70156  0.63864  1.0000
  H   H727      1.0  0.09077  0.99225  0.80444  1.0000
  H   H728      1.0  0.16296  0.73553  0.69411  1.0000
  C   C426      1.0  0.16589  0.77551  0.97798  1.0000
  H   H729      1.0  0.16871  0.72933  0.73469  1.0000
  H   H730      1.0  0.23996  0.66819  0.75054  1.0000
  H   H731      1.0  0.19299  0.83123  0.96225  1.0000
  H   H732      1.0  0.36854  0.72563  0.80857  1.0000
  H   H733      1.0  0.16642  0.66937  0.74052  1.0000
  H   H734      1.0  0.40372  0.73185  0.82953  1.0000
  C   C427      1.0  0.19707  0.80612  0.96675  1.0000
  C   C428      1.0  0.17373  0.99122  0.97102  1.0000
  C   C429      1.0  0.21661  0.80282  0.49728  1.0000
  C   C430      1.0  0.27290  0.78008  0.97036  1.0000
  C   C431      1.0  0.21000  0.82278  0.97295  1.0000
  H   H735      1.0  0.48988  0.67020  0.88017  1.0000
  H   H736      1.0  0.03982  0.70134  0.72225  1.0000
  H   H737      1.0  0.06167  0.71549  0.74571  1.0000
  N   N32       1.0  0.12323  0.70421  0.73199  1.0000
  C   C432      1.0  0.12949  0.71714  0.70815  1.0000
  C   C433      1.0  0.09116  0.69698  0.72343  1.0000
  C   C434      1.0  0.14908  0.69222  0.72748  1.0000
  C   C435      1.0  0.12433  0.71105  0.76548  1.0000
  C   C436      1.0  0.19071  0.97870  0.98457  1.0000
  C   C437      1.0  0.06249  0.70824  0.72364  1.0000
  H   H738      1.0  0.18201  0.71741  0.70123  1.0000
  C   C438      1.0  0.10650  0.70191  0.79216  1.0000
  H   H739      1.0  0.12637  0.71275  0.68308  1.0000
  H   H740      1.0  0.11176  0.72668  0.71088  1.0000
  H   H741      1.0  0.08467  0.68716  0.73937  1.0000
  H   H742      1.0  0.09215  0.69157  0.69903  1.0000
  H   H743      1.0  0.45345  0.72667  0.75980  1.0000
  C   C439      1.0  0.26001  0.74344  0.51941  1.0000
  H   H744      1.0  0.19231  0.80502  0.94046  1.0000
  H   H745      1.0  0.11371  0.72295  0.76544  1.0000
  H   H746      1.0  0.24604  0.79268  0.93468  1.0000
  C   C440      1.0  0.20111  0.77772  0.96763  1.0000
  H   H747      1.0  0.32914  0.99262  0.56384  1.0000
  H   H748      1.0  0.06278  0.71592  0.70221  1.0000
  H   H749      1.0  0.23911  0.78150  0.51964  1.0000
  C   C441      1.0  0.03276  0.69838  0.58553  1.0000
  N   N33       1.0  0.40412  0.69916  0.77847  1.0000
  H   H750      1.0  0.17309  0.69729  0.73314  1.0000
  H   H751      1.0  0.40018  0.67743  0.80460  1.0000
  H   H752      1.0  0.49665  0.98063  0.51508  1.0000
  C   C442      1.0  0.14694  0.67736  0.74806  1.0000
  H   H753      1.0  0.42559  0.69738  0.73133  1.0000
  H   H754      1.0  0.37324  0.69101  0.71943  1.0000
  H   H755      1.0  0.15143  0.67999  0.77378  1.0000
  H   H756      1.0  0.27966  0.79873  0.52630  1.0000
  H   H757      1.0  0.21274  0.97492  0.97345  1.0000
  H   H758      1.0  0.46564  0.68249  0.77171  1.0000
  H   H759      1.0  0.45369  0.66777  0.79946  1.0000
  H   H760      1.0  0.04641  0.67091  0.54425  1.0000
  H   H761      1.0  0.23352  0.82508  0.96160  1.0000
  H   H762      1.0  0.21402  0.76743  0.97716  1.0000
  C   C443      1.0  0.21670  0.78826  0.51933  1.0000
  H   H763      1.0  0.14950  0.78307  0.96407  1.0000
  C   C444      1.0  0.24576  0.72741  0.97848  1.0000
  H   H764      1.0  0.01403  0.70363  0.66407  1.0000
  H   H765      1.0  0.29374  0.78607  0.49398  1.0000
  C   C445      1.0  0.14528  0.99596  0.98575  1.0000
  H   H766      1.0  0.43396  0.66428  0.93783  1.0000
  H   H767      1.0  0.19590  0.72916  0.99194  1.0000
  Fe  Fe65      1.0  0.68896  0.30468  0.08032  1.0000
  S   S129      1.0  0.65342  0.30193  0.11985  1.0000
  H   H768      1.0  0.57317  0.03870  0.48860  1.0000
  Fe  Fe66      1.0  0.68797  0.26967  0.06376  1.0000
  S   S130      1.0  0.65150  0.26478  0.10305  1.0000
  S   S131      1.0  0.69945  0.24823  0.03185  1.0000
  Fe  Fe67      1.0  0.62606  0.28621  0.08596  1.0000
  S   S132      1.0  0.57296  0.29199  0.07890  1.0000
  Fe  Fe68      1.0  0.68157  0.28085  0.13443  1.0000
  S   S133      1.0  0.68431  0.27772  0.18915  1.0000
  S   S134      1.0  0.66029  0.29026  0.04502  1.0000
  S   S135      1.0  0.71960  0.28444  0.09661  1.0000
  Fe  Fe69      1.0  0.87893  0.28946  0.37305  1.0000
  S   S136      1.0  0.84822  0.29405  0.41646  1.0000
  S   S137      1.0  0.93235  0.29618  0.36977  1.0000
  Fe  Fe70      1.0  0.81907  0.28285  0.33018  1.0000
  S   S138      1.0  0.78440  0.28726  0.37053  1.0000
  S   S139      1.0  0.81010  0.27574  0.27783  1.0000
  Fe  Fe71      1.0  0.81678  0.30771  0.38294  1.0000
  H   H769      1.0  0.56553  0.27658  0.23251  1.0000
  Fe  Fe72      1.0  0.81799  0.27324  0.40113  1.0000
  S   S140      1.0  0.80306  0.25341  0.43541  1.0000
  S   S141      1.0  0.84868  0.30435  0.34044  1.0000
  S   S142      1.0  0.85142  0.26757  0.35993  1.0000
  C   C446      1.0  0.76956  0.24742  0.45944  1.0000
  C   C447      1.0  0.74000  0.25503  0.45861  1.0000
  H   H770      1.0  0.60010  0.30259  0.24441  1.0000
  H   H771      1.0  0.91026  0.31005  0.25621  1.0000
  H   H772      1.0  0.60742  0.28487  0.16363  1.0000
  C   C448      1.0  0.84074  0.00306  0.99342  1.0000
  H   H773      1.0  0.69193  0.25607  0.47790  1.0000
  C   C449      1.0  0.65711  0.00569  0.47968  1.0000
  C   C450      1.0  0.77490  0.27722  0.25365  1.0000
  C   C451      1.0  0.74456  0.27981  0.26683  1.0000
  C   C452      1.0  0.71714  0.27999  0.24678  1.0000
  C   C453      1.0  0.71976  0.27797  0.21326  1.0000
  C   C454      1.0  0.75017  0.27564  0.20009  1.0000
  C   C455      1.0  0.77745  0.27509  0.22021  1.0000
  H   H774      1.0  0.74218  0.28157  0.29242  1.0000
  H   H775      1.0  0.69378  0.28183  0.25723  1.0000
  H   H776      1.0  0.75261  0.27396  0.17444  1.0000
  H   H777      1.0  0.80073  0.27302  0.20971  1.0000
  C   C456      1.0  0.97631  0.27272  0.38473  1.0000
  C   C457      1.0  0.97138  0.28820  0.37531  1.0000
  H   H778      1.0  0.74789  0.31356  0.43897  1.0000
  H   H779      1.0  0.95592  0.26528  0.38996  1.0000
  H   H780      1.0  0.59300  0.26386  0.04120  1.0000
  C   C458      1.0  0.53249  0.26634  0.08956  1.0000
  C   C459      1.0  0.53529  0.28222  0.08220  1.0000
  H   H781      1.0  0.97016  0.30240  0.26737  1.0000
  H   H782      1.0  0.55379  0.25944  0.09283  1.0000
  H   H783      1.0  0.52525  0.15387  0.47607  1.0000
  H   H784      1.0  0.77499  0.00069  0.42467  1.0000
  H   H785      1.0  0.68950  0.26250  0.34243  1.0000
  C   C460      1.0  0.00047  0.27514  0.28879  1.0000
  C   C461      1.0  0.56731  0.28734  0.21763  1.0000
  H   H786      1.0  0.59541  0.28557  0.01389  1.0000
  H   H787      1.0  0.70285  0.26963  0.38065  1.0000
  H   H788      1.0  0.95860  0.29970  0.30782  1.0000
  C   C462      1.0  0.53227  0.27140  0.18260  1.0000
  H   H789      1.0  0.71857  0.00349  0.44514  1.0000
  C   C463      1.0  0.71064  0.26333  0.35866  1.0000
  H   H790      1.0  0.73187  0.99647  0.48406  1.0000
  H   H791      1.0  0.87125  0.25963  0.29067  1.0000
  C   C464      1.0  0.54645  0.29779  0.16602  1.0000
  H   H792      1.0  0.96854  0.28182  0.23143  1.0000
  H   H793      1.0  0.50904  0.30328  0.07255  1.0000
  C   C465      1.0  0.50720  0.29098  0.07820  1.0000
  H   H794      1.0  0.85224  0.01107  0.04131  1.0000
  H   H795      1.0  0.89579  0.28681  0.22698  1.0000
  C   C466      1.0  0.77291  0.23453  0.48007  1.0000
  H   H796      1.0  0.52775  0.26716  0.15761  1.0000
  C   C467      1.0  0.59947  0.26115  0.17768  1.0000
  H   H797      1.0  0.71242  0.00165  0.06559  1.0000
  C   C468      1.0  0.60679  0.25433  0.02998  1.0000
  H   H798      1.0  0.62323  0.25878  0.16685  1.0000
  H   H799      1.0  0.72948  0.27049  0.34705  1.0000
  C   C469      1.0  0.74109  0.30264  0.45148  1.0000
  C   C470      1.0  0.58665  0.27678  0.16475  1.0000
  N   N34       1.0  0.55886  0.28355  0.18312  1.0000
  S   S143      1.0  0.70835  0.32890  0.06830  1.0000
  H   H800      1.0  0.73666  0.26479  0.44263  1.0000
  H   H801      1.0  0.93377  0.32250  0.28172  1.0000
  H   H802      1.0  0.71069  0.21921  0.99863  1.0000
  C   C471      1.0  0.92033  0.28602  0.21721  1.0000
  H   H803      1.0  0.95971  0.27168  0.31950  1.0000
  H   H804      1.0  0.89512  0.25804  0.25553  1.0000
  H   H805      1.0  0.57715  0.31709  0.18361  1.0000
  H   H806      1.0  0.74648  0.01064  0.08575  1.0000
  H   H807      1.0  0.65263  0.01570  0.46459  1.0000
  H   H808      1.0  0.91060  0.25210  0.29456  1.0000
  C   C472      1.0  0.94442  0.27814  0.24003  1.0000
  H   H809      1.0  0.80916  0.99900  0.14106  1.0000
  C   C473      1.0  0.89612  0.26084  0.28154  1.0000
  N   N35       1.0  0.94113  0.28156  0.27541  1.0000
  H   H810      1.0  0.53123  0.24950  0.02428  1.0000
  C   C474      1.0  0.94981  0.29842  0.28266  1.0000
  H   H811      1.0  0.58342  0.25126  0.17080  1.0000
  H   H812      1.0  0.92895  0.29783  0.21016  1.0000
  C   C475      1.0  0.73951  0.00198  0.46124  1.0000
  H   H813      1.0  0.63227  0.25744  0.03514  1.0000
  H   H814      1.0  0.74812  0.01392  0.46771  1.0000
  H   H815      1.0  0.53914  0.26089  0.19657  1.0000
  H   H816      1.0  0.59856  0.24217  0.07509  1.0000
  H   H817      1.0  0.79553  0.22845  0.48093  1.0000
  N   N36       1.0  0.74259  0.23854  0.34315  1.0000
  C   C476      1.0  0.72259  0.24695  0.36794  1.0000
  C   C477      1.0  0.74592  0.22191  0.35452  1.0000
  C   C478      1.0  0.72441  0.23872  0.31172  1.0000
  C   C479      1.0  0.77444  0.24695  0.34013  1.0000
  C   C480      1.0  0.84776  0.00094  0.02625  1.0000
  C   C481      1.0  0.76171  0.22000  0.38788  1.0000
  C   C482      1.0  0.74039  0.23077  0.28276  1.0000
  C   C483      1.0  0.80289  0.23744  0.32666  1.0000
  H   H818      1.0  0.70093  0.23990  0.37440  1.0000
  H   H819      1.0  0.73627  0.24849  0.39077  1.0000
  H   H820      1.0  0.75965  0.21463  0.33753  1.0000
  H   H821      1.0  0.72192  0.21609  0.35561  1.0000
  H   H822      1.0  0.70021  0.23329  0.31479  1.0000
  H   H823      1.0  0.72026  0.25090  0.30357  1.0000
  H   H824      1.0  0.77187  0.25757  0.32502  1.0000
  H   H825      1.0  0.78255  0.25127  0.36413  1.0000
  C   C484      1.0  0.96446  0.27129  0.29323  1.0000
  C   C485      1.0  0.60133  0.29413  0.22415  1.0000
  H   H826      1.0  0.61260  0.30043  0.20396  1.0000
  H   H827      1.0  0.78462  0.22658  0.39012  1.0000
  H   H828      1.0  0.74538  0.22363  0.40751  1.0000
  H   H829      1.0  0.76706  0.20747  0.39194  1.0000
  H   H830      1.0  0.74603  0.21835  0.28709  1.0000
  H   H831      1.0  0.76202  0.23739  0.27495  1.0000
  H   H832      1.0  0.72349  0.23102  0.26206  1.0000
  H   H833      1.0  0.81742  0.24510  0.31076  1.0000
  H   H834      1.0  0.79648  0.22707  0.31215  1.0000
  H   H835      1.0  0.81932  0.23397  0.34640  1.0000
  H   H836      1.0  0.61781  0.28483  0.23241  1.0000
  H   H837      1.0  0.90700  0.27978  0.31425  1.0000
  H   H838      1.0  0.56708  0.13519  0.49001  1.0000
  H   H839      1.0  0.88936  0.28545  0.27790  1.0000
  H   H840      1.0  0.78653  0.29100  0.45091  1.0000
  C   C486      1.0  0.90802  0.27769  0.28785  1.0000
  H   H841      1.0  0.52611  0.30303  0.17934  1.0000
  H   H842      1.0  0.91757  0.27876  0.19516  1.0000
  H   H843      1.0  0.57988  0.27485  0.13916  1.0000
  C   C487      1.0  0.80027  0.31937  0.47889  1.0000
  H   H844      1.0  0.55824  0.32039  0.14593  1.0000
  H   H845      1.0  0.59152  0.30778  0.14688  1.0000
  H   H846      1.0  0.73262  0.29443  0.43246  1.0000
  H   H847      1.0  0.90558  0.30945  0.29938  1.0000
  H   H848      1.0  0.53665  0.29446  0.14206  1.0000
  C   C488      1.0  0.71456  0.25000  0.47860  1.0000
  H   H849      1.0  0.54785  0.26880  0.01778  1.0000
  C   C489      1.0  0.92305  0.31062  0.27945  1.0000
  H   H850      1.0  0.94394  0.26535  0.23499  1.0000
  H   H851      1.0  0.96141  0.25883  0.28614  1.0000
  H   H852      1.0  0.60296  0.26131  0.20406  1.0000
  H   H853      1.0  0.61835  0.23055  0.04588  1.0000
  H   H854      1.0  0.75895  0.28441  0.48046  1.0000
  N   N37       1.0  0.60143  0.25327  0.99418  1.0000
  H   H855      1.0  0.57564  0.23413  0.04245  1.0000
  H   H856      1.0  0.73898  0.99908  0.38544  1.0000
  C   C490      1.0  0.76928  0.29511  0.46942  1.0000
  H   H857      1.0  0.74436  0.01015  0.04291  1.0000
  H   H858      1.0  0.75038  0.26563  0.99724  1.0000
  H   H859      1.0  0.60968  0.15181  0.48671  1.0000
  C   C491      1.0  0.57023  0.31135  0.16068  1.0000
  H   H860      1.0  0.92120  0.01576  0.00196  1.0000
  H   H861      1.0  0.54964  0.29561  0.22801  1.0000
  C   C492      1.0  0.99835  0.29764  0.36851  1.0000
  H   H862      1.0  0.72040  0.30452  0.46763  1.0000
  H   H863      1.0  0.99495  0.30962  0.36123  1.0000
  C   C493      1.0  0.72771  0.24305  0.00118  1.0000
  C   C494      1.0  0.73881  0.00338  0.06498  1.0000
  C   C495      1.0  0.59917  0.23933  0.04904  1.0000
  H   H864      1.0  0.78167  0.32691  0.46827  1.0000
  H   H865      1.0  0.81551  0.31608  0.45809  1.0000
  H   H866      1.0  0.79919  0.00450  0.10098  1.0000
  H   H867      1.0  0.83239  0.29373  0.48758  1.0000
  C   C496      1.0  0.54073  0.25773  0.00598  1.0000
  H   H868      1.0  0.57202  0.00984  0.49140  1.0000
  Fe  Fe73      1.0  0.81596  0.03446  0.85619  1.0000
  S   S144      1.0  0.81287  0.04924  0.90134  1.0000
  S   S145      1.0  0.76880  0.03225  0.82775  1.0000
  Fe  Fe74      1.0  0.88747  0.02818  0.86809  1.0000
  S   S146      1.0  0.88872  0.04302  0.91233  1.0000
  S   S147      1.0  0.93311  0.01512  0.85602  1.0000
  Fe  Fe75      1.0  0.84274  0.03060  0.92527  1.0000
  H   H869      1.0  0.53192  0.13200  0.51244  1.0000
  Fe  Fe76      1.0  0.85907  0.06003  0.88431  1.0000
  S   S148      1.0  0.87462  0.08554  0.87935  1.0000
  S   S149      1.0  0.84235  0.01506  0.88172  1.0000
  S   S150      1.0  0.86121  0.04596  0.83852  1.0000
  Fe  Fe77      1.0  0.61510  0.03414  0.63654  1.0000
  S   S151      1.0  0.61482  0.04815  0.59135  1.0000
  S   S152      1.0  0.56884  0.02145  0.64937  1.0000
  Fe  Fe78      1.0  0.68664  0.04057  0.64937  1.0000
  S   S153      1.0  0.69090  0.05492  0.60393  1.0000
  S   S154      1.0  0.73366  0.03867  0.67817  1.0000
  Fe  Fe79      1.0  0.64441  0.06574  0.61905  1.0000
  S   S155      1.0  0.62904  0.09118  0.62352  1.0000
  Fe  Fe80      1.0  0.66103  0.03588  0.58003  1.0000
  S   S156      1.0  0.66685  0.02744  0.52787  1.0000
  S   S157      1.0  0.64151  0.05241  0.66557  1.0000
  S   S158      1.0  0.65992  0.02083  0.62406  1.0000
  Fe  Fe81      1.0  0.66917  0.20167  0.63164  1.0000
  S   S159      1.0  0.70502  0.19750  0.59212  1.0000
  S   S160      1.0  0.67779  0.20452  0.68584  1.0000
  Fe  Fe82      1.0  0.61029  0.19577  0.58657  1.0000
  S   S161      1.0  0.64270  0.19129  0.54435  1.0000
  S   S162      1.0  0.55761  0.18760  0.58291  1.0000
  Fe  Fe83      1.0  0.67256  0.17722  0.57847  1.0000
  S   S163      1.0  0.69068  0.15306  0.56503  1.0000
  Fe  Fe84      1.0  0.67233  0.21206  0.56089  1.0000
  S   S164      1.0  0.68496  0.23166  0.52463  1.0000
  S   S165      1.0  0.63912  0.18053  0.61950  1.0000
  S   S166      1.0  0.63778  0.21746  0.60167  1.0000
  Fe  Fe85      1.0  0.87625  0.19011  0.86655  1.0000
  S   S167      1.0  0.84630  0.18643  0.91112  1.0000
  S   S168      1.0  0.92983  0.18501  0.85869  1.0000
  Fe  Fe86      1.0  0.81554  0.19416  0.82358  1.0000
  S   S169      1.0  0.78163  0.19065  0.86494  1.0000
  S   S170      1.0  0.80536  0.19865  0.77023  1.0000
  Fe  Fe87      1.0  0.81514  0.20627  0.89358  1.0000
  S   S171      1.0  0.79960  0.22844  0.92127  1.0000
  Fe  Fe88      1.0  0.81481  0.17117  0.87953  1.0000
  S   S172      1.0  0.79495  0.14773  0.89635  1.0000
  S   S173      1.0  0.84764  0.21092  0.85092  1.0000
  S   S174      1.0  0.84608  0.17361  0.83638  1.0000
  C   C497      1.0  0.71359  0.20289  0.70880  1.0000
  C   C498      1.0  0.74399  0.20426  0.69494  1.0000
  C   C499      1.0  0.77173  0.20301  0.71420  1.0000
  C   C500      1.0  0.76948  0.20024  0.74743  1.0000
  C   C501      1.0  0.73911  0.19881  0.76129  1.0000
  C   C502      1.0  0.71134  0.20025  0.74209  1.0000
  H   H870      1.0  0.74611  0.20644  0.66945  1.0000
  H   H871      1.0  0.79512  0.20415  0.70324  1.0000
  H   H872      1.0  0.73700  0.19651  0.78672  1.0000
  H   H873      1.0  0.68793  0.19917  0.75303  1.0000
  H   H874      1.0  0.81857  0.24315  0.76642  1.0000
  H   H875      1.0  0.67618  0.99654  0.55671  1.0000
  H   H876      1.0  0.63551  0.13994  0.51185  1.0000
  H   H877      1.0  0.84167  0.15284  0.95543  1.0000
  H   H878      1.0  0.56592  0.10869  0.58101  1.0000
  C   C503      1.0  0.99587  0.18385  0.85700  1.0000
  C   C504      1.0  0.59016  0.00388  0.55082  1.0000
  H   H879      1.0  0.71220  0.22771  0.78775  1.0000
  H   H880      1.0  0.75683  0.24881  0.88384  1.0000
  C   C505      1.0  0.77152  0.23357  0.95214  1.0000
  H   H881      1.0  0.58249  0.99733  0.60171  1.0000
  H   H882      1.0  0.84912  0.24452  0.79645  1.0000
  C   C506      1.0  0.96911  0.19122  0.87080  1.0000
  C   C507      1.0  0.62321  0.23790  0.94506  1.0000
  C   C508      1.0  0.97449  0.20290  0.89387  1.0000
  H   H883      1.0  0.82702  0.30184  0.52652  1.0000
  H   H884      1.0  0.95428  0.20868  0.90478  1.0000
  H   H885      1.0  0.57088  0.28330  0.97793  1.0000
  C   C509      1.0  0.51922  0.19665  0.58454  1.0000
  H   H886      1.0  0.57086  0.10064  0.54226  1.0000
  H   H887      1.0  0.52203  0.16092  0.51625  1.0000
  H   H888      1.0  0.53636  0.22042  0.58467  1.0000
  C   C510      1.0  0.64837  0.10797  0.60804  1.0000
  C   C511      1.0  0.63933  0.12263  0.62002  1.0000
  C   C512      1.0  0.65187  0.13646  0.60679  1.0000
  C   C513      1.0  0.67384  0.13582  0.58157  1.0000
  C   C514      1.0  0.68356  0.12115  0.57008  1.0000
  C   C515      1.0  0.67084  0.10725  0.58322  1.0000
  H   H889      1.0  0.62214  0.12327  0.63939  1.0000
  H   H890      1.0  0.64449  0.14760  0.61619  1.0000
  H   H891      1.0  0.70086  0.12051  0.55082  1.0000
  H   H892      1.0  0.67801  0.09601  0.57382  1.0000
  H   H893      1.0  0.53715  0.00908  0.58879  1.0000
  C   C516      1.0  0.76627  0.22891  0.83300  1.0000
  H   H894      1.0  0.78838  0.25743  0.95452  1.0000
  C   C517      1.0  0.53281  0.03193  0.64541  1.0000
  H   H895      1.0  0.92933  0.16348  0.95358  1.0000
  C   C518      1.0  0.53310  0.04821  0.64336  1.0000
  H   H896      1.0  0.91433  0.10859  0.93843  1.0000
  H   H897      1.0  0.55569  0.05455  0.64427  1.0000
  C   C519      1.0  0.84898  0.10185  0.88103  1.0000
  C   C520      1.0  0.85584  0.11485  0.86169  1.0000
  C   C521      1.0  0.83851  0.12878  0.86511  1.0000
  C   C522      1.0  0.81433  0.12986  0.88818  1.0000
  C   C523      1.0  0.80652  0.11663  0.90653  1.0000
  C   C524      1.0  0.82382  0.10268  0.90306  1.0000
  H   H898      1.0  0.87518  0.11428  0.84447  1.0000
  H   H899      1.0  0.84443  0.13881  0.85052  1.0000
  H   H900      1.0  0.78779  0.11737  0.92440  1.0000
  H   H901      1.0  0.81849  0.09278  0.91828  1.0000
  C   C525      1.0  0.66449  0.00802  0.51240  1.0000
  C   C526      1.0  0.96970  0.02468  0.86541  1.0000
  H   H902      1.0  0.71302  0.23081  0.84231  1.0000
  H   H903      1.0  0.53819  0.11350  0.54891  1.0000
  C   C527      1.0  0.55008  0.14499  0.56810  1.0000
  H   H904      1.0  0.94865  0.04732  0.87177  1.0000
  C   C528      1.0  0.75971  0.03368  0.78590  1.0000
  C   C529      1.0  0.72735  0.03368  0.77604  1.0000
  C   C530      1.0  0.71884  0.03529  0.74333  1.0000
  C   C531      1.0  0.74266  0.03679  0.71992  1.0000
  C   C532      1.0  0.77502  0.03681  0.72980  1.0000
  C   C533      1.0  0.78353  0.03526  0.76251  1.0000
  H   H905      1.0  0.70867  0.03242  0.79385  1.0000
  H   H906      1.0  0.69387  0.03521  0.73619  1.0000
  H   H907      1.0  0.79367  0.03789  0.71192  1.0000
  H   H908      1.0  0.80851  0.03520  0.76956  1.0000
  N   N38       1.0  0.77106  0.08294  0.81348  1.0000
  C   C534      1.0  0.79646  0.07651  0.79136  1.0000
  C   C535      1.0  0.73930  0.07598  0.80300  1.0000
  C   C536      1.0  0.77869  0.07726  0.84684  1.0000
  C   C537      1.0  0.77207  0.10057  0.81194  1.0000
  C   C538      1.0  0.83125  0.08208  0.79778  1.0000
  C   C539      1.0  0.72954  0.07897  0.76778  1.0000
  C   C540      1.0  0.75564  0.08210  0.87382  1.0000
  C   C541      1.0  0.74123  0.10936  0.82148  1.0000
  H   H909      1.0  0.79638  0.06350  0.79212  1.0000
  H   H910      1.0  0.79158  0.07967  0.76595  1.0000
  H   H911      1.0  0.71921  0.07996  0.81812  1.0000
  H   H912      1.0  0.73934  0.06309  0.80642  1.0000
  H   H913      1.0  0.77984  0.06428  0.84700  1.0000
  H   H914      1.0  0.80268  0.08142  0.85479  1.0000
  H   H915      1.0  0.79200  0.10524  0.82723  1.0000
  H   H916      1.0  0.77759  0.10434  0.78695  1.0000
  H   H917      1.0  0.84089  0.07735  0.82046  1.0000
  H   H918      1.0  0.84689  0.07753  0.77839  1.0000
  H   H919      1.0  0.83379  0.09497  0.79778  1.0000
  H   H920      1.0  0.70368  0.07609  0.76460  1.0000
  H   H921      1.0  0.73332  0.09129  0.76065  1.0000
  H   H922      1.0  0.74266  0.07113  0.75113  1.0000
  H   H923      1.0  0.75678  0.09486  0.87835  1.0000
  H   H924      1.0  0.76346  0.07646  0.89649  1.0000
  H   H925      1.0  0.73068  0.07810  0.86943  1.0000
  H   H926      1.0  0.74822  0.12041  0.83392  1.0000
  H   H927      1.0  0.72499  0.10310  0.83799  1.0000
  H   H928      1.0  0.72772  0.11296  0.79974  1.0000
  H   H929      1.0  0.74298  0.26837  0.88061  1.0000
  H   H930      1.0  0.60346  0.99849  0.53051  1.0000
  H   H931      1.0  0.56152  0.04059  0.52969  1.0000
  H   H932      1.0  0.86937  0.13332  0.92323  1.0000
  C   C542      1.0  0.92724  0.02111  0.97852  1.0000
  H   H933      1.0  0.58442  0.15346  0.60488  1.0000
  C   C543      1.0  0.55842  0.01660  0.50974  1.0000
  C   C544      1.0  0.99843  0.01621  0.86583  1.0000
  H   H934      1.0  0.80308  0.26249  0.80679  1.0000
  H   H935      1.0  0.78637  0.27951  0.53832  1.0000
  H   H936      1.0  0.92517  0.13876  0.97911  1.0000
  H   H937      1.0  0.54094  0.15702  0.56498  1.0000
  H   H938      1.0  0.60537  0.12567  0.56503  1.0000
  S   S175      1.0  0.83916  0.02239  0.97772  1.0000
  H   H939      1.0  0.89991  0.14832  0.86295  1.0000
  N   N39       1.0  0.55623  0.00751  0.54065  1.0000
  H   H940      1.0  0.92033  0.11011  0.98075  1.0000
  H   H941      1.0  0.63990  0.16054  0.51133  1.0000
  C   C545      1.0  0.51541  0.21287  0.58490  1.0000
  C   C546      1.0  0.97056  0.04066  0.87228  1.0000
  H   H942      1.0  0.99211  0.17481  0.83911  1.0000
  N   N40       1.0  0.72701  0.14948  0.67254  1.0000
  C   C547      1.0  0.73393  0.13727  0.64721  1.0000
  C   C548      1.0  0.72833  0.16517  0.65613  1.0000
  C   C549      1.0  0.69374  0.14643  0.68558  1.0000
  C   C550      1.0  0.75198  0.14792  0.69859  1.0000
  C   C551      1.0  0.72707  0.12010  0.65651  1.0000
  C   C552      1.0  0.76119  0.16998  0.64227  1.0000
  C   C553      1.0  0.67622  0.16024  0.70154  1.0000
  C   C554      1.0  0.75192  0.16021  0.72569  1.0000
  H   H943      1.0  0.71994  0.13954  0.62501  1.0000
  H   H944      1.0  0.75948  0.13779  0.63961  1.0000
  H   H945      1.0  0.72116  0.17481  0.67226  1.0000
  H   H946      1.0  0.71047  0.16552  0.63612  1.0000
  H   H947      1.0  0.67738  0.14250  0.66596  1.0000
  H   H948      1.0  0.69402  0.13671  0.70327  1.0000
  H   H949      1.0  0.74940  0.13645  0.71079  1.0000
  H   H950      1.0  0.77666  0.14752  0.68849  1.0000
  H   H951      1.0  0.74115  0.11638  0.67769  1.0000
  H   H952      1.0  0.70117  0.11781  0.66062  1.0000
  H   H953      1.0  0.73403  0.11242  0.63613  1.0000
  H   H954      1.0  0.75925  0.18186  0.63187  1.0000
  H   H955      1.0  0.77998  0.17067  0.66115  1.0000
  H   H956      1.0  0.76871  0.16215  0.62245  1.0000
  H   H957      1.0  0.69028  0.16608  0.72070  1.0000
  H   H958      1.0  0.65374  0.15584  0.71270  1.0000
  H   H959      1.0  0.66889  0.16902  0.68346  1.0000
  H   H960      1.0  0.73615  0.15652  0.74578  1.0000
  H   H961      1.0  0.74481  0.17187  0.71751  1.0000
  H   H962      1.0  0.77670  0.16189  0.73514  1.0000
  N   N41       1.0  0.57203  0.14069  0.54078  1.0000
  H   H963      1.0  0.75961  0.25403  0.76879  1.0000
  H   H964      1.0  0.57389  0.13291  0.60849  1.0000
  H   H965      1.0  0.75126  0.26840  0.82150  1.0000
  H   H966      1.0  0.89744  0.00754  0.94717  1.0000
  H   H967      1.0  0.87109  0.14371  0.97992  1.0000
  H   H968      1.0  0.74911  0.29824  0.52801  1.0000
  C   C555      1.0  0.77138  0.24903  0.96400  1.0000
  H   H969      1.0  0.88445  0.11758  0.96370  1.0000
  H   H970      1.0  0.98040  0.16989  0.92784  1.0000
  H   H971      1.0  0.78365  0.22886  0.85336  1.0000
  H   H972      1.0  0.55706  0.02604  0.57664  1.0000
  H   H973      1.0  0.95401  0.12951  0.95472  1.0000
  C   C556      1.0  0.74188  0.32277  0.51835  1.0000
  H   H974      1.0  0.77488  0.21957  0.81661  1.0000
  H   H975      1.0  0.93183  0.01556  0.92809  1.0000
  C   C557      1.0  0.74926  0.22291  0.96480  1.0000
  C   C558      1.0  0.59848  0.15279  0.53878  1.0000
  C   C559      1.0  0.92803  0.13222  0.95614  1.0000
  H   H976      1.0  0.72761  0.21157  0.83713  1.0000
  C   C560      1.0  0.71801  0.23720  0.49954  1.0000
  H   H977      1.0  0.91013  0.03082  0.97504  1.0000
  H   H978      1.0  0.98985  0.01628  0.76354  1.0000
  C   C561      1.0  0.62182  0.15095  0.51032  1.0000
  H   H979      1.0  0.97992  0.15242  0.90466  1.0000
  H   H980      1.0  0.71348  0.23849  0.75168  1.0000
  H   H981      1.0  0.99791  0.00382  0.86064  1.0000
  N   N42       1.0  0.91797  0.14203  0.92794  1.0000
  C   C562      1.0  0.92687  0.13358  0.89740  1.0000
  H   H982      1.0  0.82744  0.27442  0.53263  1.0000
  C   C563      1.0  0.93454  0.15772  0.93023  1.0000
  C   C564      1.0  0.88223  0.14451  0.92794  1.0000
  C   C565      1.0  0.92380  0.14301  0.86602  1.0000
  H   H983      1.0  0.60006  0.12107  0.52407  1.0000
  C   C566      1.0  0.86794  0.15147  0.95895  1.0000
  C   C567      1.0  0.82386  0.24082  0.79210  1.0000
  H   H984      1.0  0.79977  0.27078  0.50094  1.0000
  H   H985      1.0  0.91167  0.12295  0.89409  1.0000
  H   H986      1.0  0.95148  0.02654  0.97933  1.0000
  C   C568      1.0  0.56361  0.11147  0.55504  1.0000
  C   C569      1.0  0.74979  0.25374  0.98833  1.0000
  H   H987      1.0  0.75059  0.21958  0.51577  1.0000
  H   H988      1.0  0.87497  0.15244  0.90817  1.0000
  H   H989      1.0  0.94241  0.15227  0.86430  1.0000
  H   H990      1.0  0.92741  0.13507  0.84521  1.0000
  C   C570      1.0  0.97146  0.15761  0.92748  1.0000
  C   C571      1.0  0.56500  0.14462  0.60202  1.0000
  H   H991      1.0  0.74888  0.21099  0.95610  1.0000
  C   C572      1.0  0.75463  0.24306  0.78230  1.0000
  C   C573      1.0  0.55273  0.14011  0.51009  1.0000
  H   H992      1.0  0.63497  0.22660  0.93960  1.0000
  C   C574      1.0  0.58689  0.12491  0.54590  1.0000
  H   H993      1.0  0.73592  0.22185  0.87349  1.0000
  C   C575      1.0  0.80161  0.25007  0.81463  1.0000
  H   H994      1.0  0.59900  0.23749  0.93405  1.0000
  C   C576      1.0  0.99989  0.04817  0.87913  1.0000
  C   C577      1.0  0.92371  0.00944  0.95026  1.0000
  H   H995      1.0  0.72274  0.25473  0.83437  1.0000
  H   H996      1.0  0.92504  0.16581  0.91180  1.0000
  C   C578      1.0  0.74886  0.25699  0.83411  1.0000
  C   C579      1.0  0.73377  0.22329  0.84702  1.0000
  H   H997      1.0  0.58861  0.16482  0.53816  1.0000
  H   H998      1.0  0.98278  0.15163  0.94810  1.0000
  H   H999      1.0  0.63815  0.24707  0.93349  1.0000
  C   C580      1.0  0.54078  0.01664  0.56741  1.0000
  H   H1000     1.0  0.60367  0.01471  0.55739  1.0000
  H   H1001     1.0  0.87778  0.16324  0.96449  1.0000
  H   H1002     1.0  0.00026  0.06059  0.88405  1.0000
  C   C581      1.0  0.71871  0.23927  0.77786  1.0000
  H   H1003     1.0  0.60842  0.29335  0.97672  1.0000
  H   H1004     1.0  0.61369  0.15264  0.56073  1.0000
  H   H1005     1.0  0.81317  0.24974  0.83880  1.0000
  N   N43       1.0  0.76707  0.24452  0.81630  1.0000
  H   H1006     1.0  0.76731  0.23358  0.76918  1.0000
  H   H1007     1.0  0.82249  0.22813  0.79653  1.0000
  H   H1008     1.0  0.70296  0.24849  0.78753  1.0000
  H   H1009     1.0  0.54630  0.14773  0.61982  1.0000
  C   C582      1.0  0.75903  0.25962  0.86944  1.0000
  H   H1010     1.0  0.78379  0.26434  0.87162  1.0000
  H   H1011     1.0  0.95186  0.12917  0.89861  1.0000
  C   C583      1.0  0.57417  0.03293  0.51243  1.0000
  C   C584      1.0  0.91054  0.11631  0.95954  1.0000
  C   C585      1.0  0.74741  0.22943  0.49994  1.0000
  H   H1012     1.0  0.56232  0.25302  0.95977  1.0000
  C   C586      1.0  0.53897  0.15585  0.49867  1.0000
  C   C587      1.0  0.50783  0.02401  0.56055  1.0000
  H   H1013     1.0  0.52823  0.13746  0.56836  1.0000
  H   H1014     1.0  0.59984  0.03230  0.51901  1.0000
  H   H1015     1.0  0.61131  0.26746  0.95218  1.0000
  C   C588      1.0  0.80595  0.27919  0.52041  1.0000
  C   C589      1.0  0.56690  0.24985  0.98529  1.0000
  H   H1016     1.0  0.98015  0.00486  0.98063  1.0000
  H   H1017     1.0  0.98486  0.00520  0.93813  1.0000
  C   C590      1.0  0.61325  0.26817  0.97876  1.0000
  H   H1018     1.0  0.53463  0.01844  0.49859  1.0000
  C   C591      1.0  0.59563  0.28327  0.98775  1.0000
  C   C592      1.0  0.81423  0.29550  0.50684  1.0000
  C   C593      1.0  0.76438  0.30860  0.52220  1.0000
  H   H1019     1.0  0.77881  0.31099  0.54429  1.0000
  H   H1020     1.0  0.63924  0.27004  0.98425  1.0000
  H   H1021     1.0  0.51985  0.26049  0.99042  1.0000
  C   C594      1.0  0.72754  0.22764  0.98900  1.0000
  H   H1022     1.0  0.56201  0.23706  0.98697  1.0000
  C   C595      1.0  0.62211  0.24013  0.98186  1.0000
  H   H1023     1.0  0.71825  0.31987  0.52918  1.0000
  H   H1024     1.0  0.84476  0.32474  0.50555  1.0000
  C   C596      1.0  0.97604  0.99784  0.95844  1.0000
  H   H1025     1.0  0.64738  0.24168  0.99015  1.0000
  N   N44       1.0  0.78635  0.30494  0.49444  1.0000
  H   H1026     1.0  0.50606  0.03518  0.57414  1.0000
  H   H1027     1.0  0.55802  0.16454  0.49315  1.0000
  H   H1028     1.0  0.61400  0.22870  0.99172  1.0000
  H   H1029     1.0  0.73696  0.32642  0.49343  1.0000
  Fe  Fe89      1.0  0.88774  0.44975  0.34355  1.0000
  S   S176      1.0  0.88175  0.43545  0.38789  1.0000
  S   S177      1.0  0.93608  0.45904  0.32669  1.0000
  Fe  Fe90      1.0  0.81570  0.44806  0.32728  1.0000
  S   S178      1.0  0.80477  0.43360  0.37142  1.0000
  S   S179      1.0  0.77699  0.45703  0.29279  1.0000
  Fe  Fe91      1.0  0.83851  0.45033  0.39764  1.0000
  S   S180      1.0  0.83389  0.45855  0.44999  1.0000
  Fe  Fe92      1.0  0.84902  0.42010  0.35810  1.0000
  S   S181      1.0  0.86127  0.39432  0.35244  1.0000
  S   S182      1.0  0.84647  0.46561  0.35464  1.0000
  S   S183      1.0  0.85789  0.43367  0.31264  1.0000
  Fe  Fe93      1.0  0.61725  0.44460  0.11467  1.0000
  S   S184      1.0  0.61351  0.43394  0.06570  1.0000
  S   S185      1.0  0.57364  0.45559  0.13745  1.0000
  Fe  Fe94      1.0  0.68717  0.43494  0.12380  1.0000
  S   S186      1.0  0.68840  0.42370  0.07445  1.0000
  S   S187      1.0  0.72895  0.42923  0.15780  1.0000
  Fe  Fe95      1.0  0.66184  0.44512  0.05710  1.0000
  H   H1030     1.0  0.64265  0.33292  0.09082  1.0000
  Fe  Fe96      1.0  0.64009  0.41363  0.08659  1.0000
  S   S188      1.0  0.62009  0.38885  0.08240  1.0000
  S   S189      1.0  0.66427  0.45714  0.10553  1.0000
  S   S190      1.0  0.64010  0.42362  0.13646  1.0000
  C   C597      1.0  0.67895  0.50254  0.99853  1.0000
  N   N45       1.0  0.96208  0.39805  0.32937  1.0000
  H   H1031     1.0  0.92076  0.57942  0.48754  1.0000
  C   C598      1.0  0.82920  0.50599  0.46352  1.0000
  C   C599      1.0  0.00598  0.48153  0.42415  1.0000
  C   C600      1.0  0.83295  0.47765  0.46728  1.0000
  H   H1032     1.0  0.50725  0.46191  0.15192  1.0000
  N   N46       1.0  0.86852  0.57729  0.48798  1.0000
  H   H1033     1.0  0.62760  0.46856  0.17600  1.0000
  C   C601      1.0  0.74368  0.37573  0.20771  1.0000
  C   C602      1.0  0.76573  0.44945  0.25445  1.0000
  C   C603      1.0  0.74559  0.45835  0.23461  1.0000
  C   C604      1.0  0.73461  0.45253  0.20472  1.0000
  C   C605      1.0  0.74351  0.43763  0.19436  1.0000
  C   C606      1.0  0.76420  0.42884  0.21388  1.0000
  C   C607      1.0  0.77520  0.43468  0.24376  1.0000
  H   H1034     1.0  0.73848  0.46987  0.24246  1.0000
  H   H1035     1.0  0.71936  0.45958  0.18971  1.0000
  H   H1036     1.0  0.77166  0.41740  0.20602  1.0000
  H   H1037     1.0  0.79078  0.42772  0.25868  1.0000
  C   C608      1.0  0.54021  0.42880  0.12192  1.0000
  C   C609      1.0  0.53858  0.44403  0.13390  1.0000
  C   C610      1.0  0.86072  0.58403  0.45554  1.0000
  H   H1038     1.0  0.56314  0.42391  0.11545  1.0000
  C   C611      1.0  0.74481  0.38551  0.17675  1.0000
  C   C612      1.0  0.97267  0.44424  0.37257  1.0000
  C   C613      1.0  0.97248  0.45318  0.34458  1.0000
  H   H1039     1.0  0.77030  0.38926  0.17445  1.0000
  H   H1040     1.0  0.95031  0.44058  0.38327  1.0000
  C   C614      1.0  0.62221  0.45119  0.21362  1.0000
  C   C615      1.0  0.81354  0.34851  0.38583  1.0000
  C   C616      1.0  0.79961  0.36291  0.39390  1.0000
  C   C617      1.0  0.81379  0.37713  0.38398  1.0000
  C   C618      1.0  0.84203  0.37701  0.36593  1.0000
  C   C619      1.0  0.85595  0.36262  0.35806  1.0000
  C   C620      1.0  0.84185  0.34846  0.36798  1.0000
  H   H1041     1.0  0.77772  0.36308  0.40775  1.0000
  H   H1042     1.0  0.80288  0.38814  0.39023  1.0000
  H   H1043     1.0  0.87775  0.36237  0.34412  1.0000
  H   H1044     1.0  0.85299  0.33752  0.36182  1.0000
  C   C621      1.0  0.68272  0.34528  0.07023  1.0000
  C   C622      1.0  0.65181  0.34412  0.08305  1.0000
  C   C623      1.0  0.63272  0.35752  0.08611  1.0000
  C   C624      1.0  0.64433  0.37223  0.07649  1.0000
  C   C625      1.0  0.67480  0.37334  0.06273  1.0000
  C   C626      1.0  0.69398  0.35993  0.05976  1.0000
  H   H1045     1.0  0.89310  0.47705  0.43504  1.0000
  H   H1046     1.0  0.60900  0.35652  0.09635  1.0000
  H   H1047     1.0  0.68358  0.38454  0.05442  1.0000
  H   H1048     1.0  0.71767  0.36090  0.04941  1.0000
  H   H1049     1.0  0.00241  0.42358  0.31677  1.0000
  H   H1050     1.0  0.66487  0.56577  0.01745  1.0000
  H   H1051     1.0  0.72211  0.36823  0.20980  1.0000
  N   N47       1.0  0.73339  0.37778  0.14613  1.0000
  C   C627      1.0  0.90537  0.49383  0.39911  1.0000
  H   H1052     1.0  0.68270  0.48542  0.03660  1.0000
  H   H1053     1.0  0.95780  0.42784  0.28285  1.0000
  C   C628      1.0  0.82988  0.49113  0.44865  1.0000
  C   C629      1.0  0.76717  0.39691  0.11147  1.0000
  H   H1054     1.0  0.78452  0.38790  0.10393  1.0000
  H   H1055     1.0  0.82734  0.49007  0.42287  1.0000
  C   C630      1.0  0.50864  0.45016  0.14243  1.0000
  H   H1056     1.0  0.67844  0.43625  0.20691  1.0000
  H   H1057     1.0  0.90935  0.55588  0.45315  1.0000
  H   H1058     1.0  0.73222  0.39671  0.18128  1.0000
  C   C631      1.0  0.75555  0.36474  0.13616  1.0000
  H   H1059     1.0  0.94782  0.42206  0.33515  1.0000
  H   H1060     1.0  0.72381  0.38504  0.09731  1.0000
  N   N48       1.0  0.63959  0.44193  0.23896  1.0000
  C   C632      1.0  0.66078  0.43025  0.22241  1.0000
  H   H1061     1.0  0.90845  0.50478  0.41306  1.0000
  C   C633      1.0  0.61509  0.43382  0.25979  1.0000
  C   C634      1.0  0.66013  0.45239  0.25995  1.0000
  C   C635      1.0  0.68045  0.41955  0.24457  1.0000
  H   H1062     1.0  0.66035  0.47281  0.29109  1.0000
  C   C636      1.0  0.59564  0.42051  0.24359  1.0000
  H   H1063     1.0  0.69215  0.36594  0.12583  1.0000
  H   H1064     1.0  0.64674  0.42273  0.20561  1.0000
  H   H1065     1.0  0.75467  0.36296  0.10956  1.0000
  N   N49       1.0  0.94511  0.48003  0.43696  1.0000
  H   H1066     1.0  0.72674  0.34311  0.13969  1.0000
  H   H1067     1.0  0.62645  0.42896  0.28179  1.0000
  H   H1068     1.0  0.59712  0.44231  0.26875  1.0000
  H   H1069     1.0  0.67110  0.44567  0.27994  1.0000
  C   C637      1.0  0.69941  0.37170  0.14870  1.0000
  H   H1070     1.0  0.69320  0.41087  0.22948  1.0000
  H   H1071     1.0  0.69935  0.42622  0.25775  1.0000
  H   H1072     1.0  0.66528  0.41297  0.26171  1.0000
  H   H1073     1.0  0.88361  0.59177  0.41145  1.0000
  H   H1074     1.0  0.97478  0.46450  0.46524  1.0000
  H   H1075     1.0  0.87986  0.49306  0.39146  1.0000
  H   H1076     1.0  0.57694  0.41632  0.26054  1.0000
  H   H1077     1.0  0.61082  0.41031  0.23787  1.0000
  H   H1078     1.0  0.58302  0.42442  0.22160  1.0000
  H   H1079     1.0  0.63338  0.47460  0.25801  1.0000
  C   C638      1.0  0.94116  0.41170  0.32045  1.0000
  H   H1080     1.0  0.92178  0.40665  0.38148  1.0000
  C   C639      1.0  0.64282  0.46625  0.27589  1.0000
  H   H1081     1.0  0.66022  0.45540  0.17768  1.0000
  H   H1082     1.0  0.84928  0.55507  0.47077  1.0000
  H   H1083     1.0  0.00188  0.46491  0.30947  1.0000
  H   H1084     1.0  0.76554  0.36851  0.21013  1.0000
  H   H1085     1.0  0.69471  0.54813  0.04265  1.0000
  H   H1086     1.0  0.76423  0.40501  0.09088  1.0000
  H   H1087     1.0  0.95270  0.50429  0.44986  1.0000
  H   H1088     1.0  0.69699  0.36234  0.16681  1.0000
  C   C640      1.0  0.72391  0.55607  0.00169  1.0000
  C   C641      1.0  0.95146  0.46438  0.45220  1.0000
  S   S191      1.0  0.79518  0.33079  0.39839  1.0000
  H   H1089     1.0  0.98603  0.38928  0.37202  1.0000
  C   C642      1.0  0.52999  0.44541  0.03045  1.0000
  H   H1090     1.0  0.77725  0.40404  0.13146  1.0000
  H   H1091     1.0  0.96616  0.49088  0.47930  1.0000
  H   H1092     1.0  0.54039  0.38079  0.08552  1.0000
  H   H1093     1.0  0.82616  0.51628  0.44888  1.0000
  H   H1094     1.0  0.60948  0.44327  0.19646  1.0000
  H   H1095     1.0  0.74719  0.34839  0.17673  1.0000
  H   H1096     1.0  0.68073  0.45718  0.24620  1.0000
  C   C643      1.0  0.52239  0.37158  0.07936  1.0000
  H   H1097     1.0  0.92952  0.38616  0.38875  1.0000
  H   H1098     1.0  0.68642  0.51218  0.01376  1.0000
  H   H1099     1.0  0.71873  0.40005  0.12616  1.0000
  C   C644      1.0  0.94496  0.38275  0.32301  1.0000
  H   H1100     1.0  0.00174  0.43305  0.40846  1.0000
  H   H1101     1.0  0.71915  0.56537  0.05123  1.0000
  C   C645      1.0  0.73397  0.38993  0.11992  1.0000
  C   C646      1.0  0.93430  0.37955  0.28817  1.0000
  C   C647      1.0  0.94217  0.41732  0.28515  1.0000
  C   C648      1.0  0.67364  0.38388  0.15673  1.0000
  H   H1102     1.0  0.88210  0.57082  0.41577  1.0000
  H   H1103     1.0  0.73679  0.54644  0.04825  1.0000
  S   S192      1.0  0.66819  0.45505  0.00626  1.0000
  C   C649      1.0  0.97102  0.48297  0.41231  1.0000
  H   H1104     1.0  0.92255  0.38190  0.33720  1.0000
  H   H1105     1.0  0.91570  0.40919  0.32648  1.0000
  H   H1106     1.0  0.91531  0.38777  0.28066  1.0000
  H   H1107     1.0  0.96900  0.49489  0.40197  1.0000
  H   H1108     1.0  0.94852  0.40086  0.41260  1.0000
  H   H1109     1.0  0.67935  0.39059  0.17886  1.0000
  H   H1110     1.0  0.96816  0.47491  0.39150  1.0000
  C   C650      1.0  0.51217  0.41978  0.11831  1.0000
  C   C651      1.0  0.74888  0.34838  0.15026  1.0000
  H   H1111     1.0  0.96002  0.37277  0.33090  1.0000
  C   C652      1.0  0.67675  0.48737  0.01163  1.0000
  H   H1112     1.0  0.51644  0.44158  0.00892  1.0000
  H   H1113     1.0  0.91788  0.42135  0.27821  1.0000
  H   H1114     1.0  0.52660  0.46230  0.06795  1.0000
  C   C653      1.0  0.91558  0.49619  0.48093  1.0000
  H   H1115     1.0  0.60303  0.45845  0.22445  1.0000
  H   H1116     1.0  0.74151  0.58429  0.00662  1.0000
  H   H1117     1.0  0.51333  0.48266  0.03055  1.0000
  C   C654      1.0  0.94036  0.39803  0.38780  1.0000
  C   C655      1.0  0.64331  0.46206  0.19278  1.0000
  C   C656      1.0  0.94654  0.49300  0.46167  1.0000
  H   H1118     1.0  0.93354  0.44644  0.48421  1.0000
  C   C657      1.0  0.90007  0.55164  0.47635  1.0000
  H   H1119     1.0  0.70232  0.58713  0.02147  1.0000
  H   H1120     1.0  0.83837  0.57860  0.44579  1.0000
  C   C658      1.0  0.92686  0.45844  0.47689  1.0000
  H   H1121     1.0  0.65038  0.37775  0.16060  1.0000
  H   H1122     1.0  0.78094  0.36781  0.14191  1.0000
  H   H1123     1.0  0.95338  0.45520  0.43333  1.0000
  H   H1124     1.0  0.99094  0.39703  0.28577  1.0000
  H   H1125     1.0  0.85464  0.59665  0.45730  1.0000
  H   H1126     1.0  0.91332  0.46907  0.40210  1.0000
  C   C659      1.0  0.91364  0.47924  0.41897  1.0000
  H   H1127     1.0  0.91986  0.49436  0.37679  1.0000
  H   H1128     1.0  0.79873  0.57883  0.48106  1.0000
  H   H1129     1.0  0.66966  0.39193  0.13635  1.0000
  H   H1130     1.0  0.94894  0.40843  0.26721  1.0000
  H   H1131     1.0  0.95452  0.37968  0.27101  1.0000
  H   H1132     1.0  0.74242  0.38376  0.22871  1.0000
  H   H1133     1.0  0.91094  0.58280  0.43747  1.0000
  H   H1134     1.0  0.89902  0.48617  0.48313  1.0000
  H   H1135     1.0  0.65666  0.47095  0.20699  1.0000
  H   H1136     1.0  0.98207  0.40989  0.37114  1.0000
  H   H1137     1.0  0.90224  0.45750  0.46702  1.0000
  H   H1138     1.0  0.62312  0.46234  0.29183  1.0000
  C   C660      1.0  0.88591  0.58203  0.42885  1.0000
  H   H1139     1.0  0.53086  0.36580  0.05711  1.0000
  H   H1140     1.0  0.92331  0.36768  0.28692  1.0000
  H   H1141     1.0  0.53924  0.43457  0.04166  1.0000
  H   H1142     1.0  0.51395  0.40803  0.10908  1.0000
  H   H1143     1.0  0.55073  0.45268  0.02258  1.0000
  C   C661      1.0  0.71799  0.55411  0.03806  1.0000
  C   C662      1.0  0.99385  0.39807  0.31211  1.0000
  H   H1144     1.0  0.52252  0.36304  0.09927  1.0000
  H   H1145     1.0  0.76881  0.34049  0.14357  1.0000
  H   H1146     1.0  0.75020  0.55801  0.99916  1.0000
  C   C663      1.0  0.96942  0.39881  0.36495  1.0000
  C   C664      1.0  0.00185  0.43998  0.38679  1.0000
  H   H1147     1.0  0.82552  0.34123  0.48843  1.0000
  H   H1148     1.0  0.50620  0.46969  0.99826  1.0000
  C   C665      1.0  0.00182  0.45789  0.33103  1.0000
  C   C666      1.0  0.50952  0.45435  0.05522  1.0000
  H   H1149     1.0  0.90248  0.50629  0.47082  1.0000
  H   H1150     1.0  0.90132  0.60695  0.47954  1.0000
  C   C667      1.0  0.86877  0.55965  0.48670  1.0000
  C   C668      1.0  0.71585  0.58452  0.99908  1.0000
  H   H1151     1.0  0.89524  0.53890  0.47367  1.0000
  S   S193      1.0  0.79992  0.65112  0.57558  1.0000
  S   S194      1.0  0.65261  0.65194  0.91726  1.0000
  Fe  Fe97      1.0  0.66940  0.53451  0.89997  1.0000
  S   S195      1.0  0.64638  0.52434  0.85537  1.0000
  S   S196      1.0  0.67665  0.52457  0.95050  1.0000
  Fe  Fe98      1.0  0.68622  0.56550  0.86608  1.0000
  S   S197      1.0  0.66496  0.55753  0.81924  1.0000
  S   S198      1.0  0.71338  0.58853  0.86804  1.0000
  Fe  Fe99      1.0  0.62439  0.54819  0.84941  1.0000
  S   S199      1.0  0.57490  0.55625  0.83435  1.0000
  Fe  Fe100     1.0  0.68888  0.53471  0.82876  1.0000
  S   S200      1.0  0.71916  0.52090  0.79328  1.0000
  S   S201      1.0  0.64440  0.55772  0.89574  1.0000
  S   S202      1.0  0.71313  0.54327  0.87376  1.0000
  Fe  Fe101     1.0  0.86865  0.56616  0.59529  1.0000
  S   S203      1.0  0.87321  0.55571  0.64429  1.0000
  S   S204      1.0  0.88711  0.59097  0.58857  1.0000
  Fe  Fe102     1.0  0.84339  0.53522  0.56536  1.0000
  S   S205      1.0  0.84470  0.52279  0.61312  1.0000
  S   S206      1.0  0.83014  0.52669  0.51449  1.0000
  Fe  Fe103     1.0  0.82457  0.54502  0.63478  1.0000
  S   S207      1.0  0.78555  0.55218  0.67049  1.0000
  Fe  Fe104     1.0  0.89302  0.53480  0.61895  1.0000
  S   S208      1.0  0.93885  0.52262  0.63315  1.0000
  S   S209      1.0  0.81937  0.55658  0.58627  1.0000
  S   S210      1.0  0.89252  0.54605  0.57062  1.0000
  C   C669      1.0  0.73849  0.52983  0.75983  1.0000
  C   C670      1.0  0.73272  0.54537  0.75152  1.0000
  C   C671      1.0  0.74751  0.55195  0.72426  1.0000
  C   C672      1.0  0.76859  0.54319  0.70512  1.0000
  C   C673      1.0  0.77482  0.52772  0.71370  1.0000
  C   C674      1.0  0.75970  0.52106  0.74082  1.0000
  H   H1152     1.0  0.71649  0.55226  0.76581  1.0000
  H   H1153     1.0  0.74236  0.56388  0.71784  1.0000
  H   H1154     1.0  0.79086  0.52081  0.69917  1.0000
  H   H1155     1.0  0.76431  0.50903  0.74692  1.0000
  C   C675      1.0  0.97423  0.53394  0.62922  1.0000
  H   H1156     1.0  0.65345  0.46776  0.94436  1.0000
  C   C676      1.0  0.97305  0.55026  0.62907  1.0000
  C   C677      1.0  0.77039  0.59241  0.63810  1.0000
  H   H1157     1.0  0.95015  0.55606  0.63030  1.0000
  C   C678      1.0  0.54008  0.53166  0.86000  1.0000
  C   C679      1.0  0.53973  0.54699  0.84863  1.0000
  C   C680      1.0  0.83205  0.50764  0.49711  1.0000
  H   H1158     1.0  0.56242  0.52536  0.86102  1.0000
  N   N50       1.0  0.62125  0.60830  0.80697  1.0000
  H   H1159     1.0  0.77506  0.60266  0.62267  1.0000
  C   C681      1.0  0.67192  0.50529  0.96594  1.0000
  H   H1160     1.0  0.73839  0.51776  0.91446  1.0000
  H   H1161     1.0  0.51162  0.51231  0.87745  1.0000
  C   C682      1.0  0.64424  0.60442  0.78030  1.0000
  C   C683      1.0  0.83564  0.49418  0.51568  1.0000
  C   C684      1.0  0.64033  0.63709  0.80299  1.0000
  C   C685      1.0  0.89983  0.58346  0.50146  1.0000
  H   H1162     1.0  0.83768  0.49519  0.54153  1.0000
  C   C686      1.0  0.62110  0.59496  0.83043  1.0000
  C   C687      1.0  0.66987  0.63446  0.90333  1.0000
  C   C688      1.0  0.65541  0.62013  0.91140  1.0000
  C   C689      1.0  0.66834  0.60596  0.90046  1.0000
  C   C690      1.0  0.69642  0.60603  0.88226  1.0000
  C   C691      1.0  0.71126  0.62033  0.87472  1.0000
  C   C692      1.0  0.69776  0.63453  0.88478  1.0000
  H   H1163     1.0  0.63381  0.62002  0.92573  1.0000
  H   H1164     1.0  0.65652  0.59504  0.90592  1.0000
  H   H1165     1.0  0.73302  0.62047  0.86063  1.0000
  H   H1166     1.0  0.70917  0.64552  0.87860  1.0000
  C   C693      1.0  0.82444  0.63448  0.57875  1.0000
  C   C694      1.0  0.85715  0.63585  0.58577  1.0000
  C   C695      1.0  0.87599  0.62239  0.58869  1.0000
  C   C696      1.0  0.86222  0.60746  0.58519  1.0000
  C   C697      1.0  0.82947  0.60605  0.57827  1.0000
  C   C698      1.0  0.81075  0.61954  0.57467  1.0000
  H   H1167     1.0  0.86800  0.64730  0.58871  1.0000
  H   H1168     1.0  0.90134  0.62358  0.59383  1.0000
  H   H1169     1.0  0.81854  0.59461  0.57570  1.0000
  H   H1170     1.0  0.78545  0.61842  0.56919  1.0000
  H   H1171     1.0  0.74248  0.49840  0.92893  1.0000
  H   H1172     1.0  0.98909  0.52122  0.70142  1.0000
  H   H1173     1.0  0.61158  0.62722  0.84046  1.0000
  C   C699      1.0  0.51050  0.55500  0.84726  1.0000
  H   H1174     1.0  0.76175  0.57661  0.95317  1.0000
  C   C700      1.0  0.71179  0.56756  0.94975  1.0000
  H   H1175     1.0  0.92212  0.49972  0.50585  1.0000
  H   H1176     1.0  0.78454  0.58232  0.62951  1.0000
  H   H1177     1.0  0.72260  0.44772  0.90476  1.0000
  H   H1178     1.0  0.66312  0.49181  0.83759  1.0000
  H   H1179     1.0  0.77149  0.50655  0.90089  1.0000
  H   H1180     1.0  0.65004  0.57946  0.95110  1.0000
  H   H1181     1.0  0.00046  0.57174  0.62886  1.0000
  H   H1182     1.0  0.54826  0.59953  0.76802  1.0000
  H   H1183     1.0  0.69998  0.57696  0.93597  1.0000
  H   H1184     1.0  0.51008  0.56689  0.83858  1.0000
  H   H1185     1.0  0.97774  0.63779  0.59044  1.0000
  H   H1186     1.0  0.63736  0.59315  0.76870  1.0000
  H   H1187     1.0  0.65146  0.62103  0.84087  1.0000
  C   C701      1.0  0.64642  0.57751  0.97701  1.0000
  C   C702      1.0  0.58839  0.61072  0.79272  1.0000
  C   C703      1.0  0.00413  0.52656  0.62761  1.0000
  H   H1188     1.0  0.62056  0.64051  0.78672  1.0000
  H   H1189     1.0  0.84890  0.57870  0.53597  1.0000
  C   C704      1.0  0.74753  0.56761  0.94010  1.0000
  H   H1190     1.0  0.79126  0.62737  0.72895  1.0000
  H   H1191     1.0  0.68731  0.61012  0.81034  1.0000
  C   C705      1.0  0.77705  0.59594  0.67387  1.0000
  H   H1192     1.0  0.90389  0.57870  0.52602  1.0000
  H   H1193     1.0  0.80898  0.33264  0.52395  1.0000
  H   H1194     1.0  0.66217  0.47104  0.83081  1.0000
  H   H1195     1.0  0.66761  0.47848  0.87032  1.0000
  H   H1196     1.0  0.61671  0.58363  0.81795  1.0000
  H   H1197     1.0  0.83943  0.59497  0.51140  1.0000
  H   H1198     1.0  0.74478  0.58903  0.63506  1.0000
  H   H1199     1.0  0.79373  0.61411  0.76154  1.0000
  N   N51       1.0  0.80907  0.60350  0.68133  1.0000
  C   C706      1.0  0.83466  0.59258  0.66915  1.0000
  C   C707      1.0  0.81307  0.60473  0.71728  1.0000
  C   C708      1.0  0.81361  0.61925  0.66560  1.0000
  C   C709      1.0  0.86973  0.59751  0.67616  1.0000
  H   H1200     1.0  0.77344  0.62934  0.63853  1.0000
  H   H1201     1.0  0.77462  0.58467  0.68700  1.0000
  H   H1202     1.0  0.81233  0.59286  0.72828  1.0000
  H   H1203     1.0  0.83687  0.60985  0.72363  1.0000
  H   H1204     1.0  0.83298  0.62606  0.67791  1.0000
  H   H1205     1.0  0.82211  0.61764  0.64057  1.0000
  H   H1206     1.0  0.88599  0.58969  0.66259  1.0000
  H   H1207     1.0  0.87515  0.60956  0.66804  1.0000
  H   H1208     1.0  0.87601  0.59613  0.70188  1.0000
  H   H1209     1.0  0.57157  0.61538  0.81107  1.0000
  C   C710      1.0  0.67974  0.60246  0.79023  1.0000
  H   H1210     1.0  0.56794  0.58672  0.79503  1.0000
  C   C711      1.0  0.78866  0.61486  0.73536  1.0000
  H   H1211     1.0  0.70112  0.55653  0.94010  1.0000
  H   H1212     1.0  0.75672  0.60298  0.68251  1.0000
  H   H1213     1.0  0.59962  0.58597  0.87414  1.0000
  C   C712      1.0  0.78394  0.62992  0.66309  1.0000
  H   H1214     1.0  0.68469  0.59020  0.79712  1.0000
  H   H1215     1.0  0.76505  0.62788  0.68113  1.0000
  H   H1216     1.0  0.76360  0.61078  0.73203  1.0000
  H   H1217     1.0  0.88560  0.60666  0.52015  1.0000
  H   H1218     1.0  0.69550  0.60574  0.76984  1.0000
  C   C713      1.0  0.84240  0.58207  0.51100  1.0000
  H   H1219     1.0  0.74968  0.57003  0.91401  1.0000
  C   C714      1.0  0.59677  0.59622  0.85814  1.0000
  H   H1220     1.0  0.57165  0.59590  0.84940  1.0000
  C   C715      1.0  0.63107  0.62310  0.82439  1.0000
  C   C716      1.0  0.83577  0.47929  0.50086  1.0000
  H   H1221     1.0  0.83320  0.59124  0.64261  1.0000
  H   H1222     1.0  0.75827  0.55595  0.94413  1.0000
  H   H1223     1.0  0.64516  0.59366  0.84163  1.0000
  H   H1224     1.0  0.79203  0.57947  0.52328  1.0000
  H   H1225     1.0  0.64706  0.58874  0.99037  1.0000
  H   H1226     1.0  0.83105  0.58060  0.67904  1.0000
  C   C717      1.0  0.66208  0.49269  0.94668  1.0000
  H   H1227     1.0  0.65565  0.49464  0.92188  1.0000
  H   H1228     1.0  0.80813  0.56218  0.50619  1.0000
  H   H1229     1.0  0.83811  0.46897  0.51556  1.0000
  H   H1230     1.0  0.91884  0.55286  0.49523  1.0000
  H   H1231     1.0  0.66238  0.63486  0.78893  1.0000
  H   H1232     1.0  0.79191  0.64228  0.66605  1.0000
  N   N52       1.0  0.73184  0.48403  0.86660  1.0000
  C   C718      1.0  0.76628  0.48282  0.85590  1.0000
  C   C719      1.0  0.72641  0.47240  0.89326  1.0000
  C   C720      1.0  0.72467  0.50016  0.87905  1.0000
  C   C721      1.0  0.71035  0.48074  0.83815  1.0000
  C   C722      1.0  0.77789  0.49518  0.83151  1.0000
  C   C723      1.0  0.72419  0.45511  0.88290  1.0000
  C   C724      1.0  0.74578  0.50582  0.90738  1.0000
  C   C725      1.0  0.67389  0.48056  0.84491  1.0000
  H   H1233     1.0  0.78297  0.48334  0.87680  1.0000
  H   H1234     1.0  0.77062  0.47125  0.84452  1.0000
  H   H1235     1.0  0.70442  0.47507  0.90713  1.0000
  H   H1236     1.0  0.74600  0.47319  0.91146  1.0000
  H   H1237     1.0  0.72626  0.50896  0.85953  1.0000
  H   H1238     1.0  0.69942  0.50087  0.88736  1.0000
  H   H1239     1.0  0.71400  0.48970  0.81923  1.0000
  H   H1240     1.0  0.71685  0.46963  0.82588  1.0000
  H   H1241     1.0  0.77643  0.50726  0.84102  1.0000
  H   H1242     1.0  0.80355  0.49310  0.82600  1.0000
  H   H1243     1.0  0.76481  0.49435  0.80832  1.0000
  H   H1244     1.0  0.70220  0.45268  0.86859  1.0000
  H   H1245     1.0  0.74561  0.45136  0.86933  1.0000
  C   C726      1.0  0.57218  0.59619  0.77740  1.0000
  H   H1246     1.0  0.64583  0.64731  0.81868  1.0000
  H   H1247     1.0  0.58591  0.59159  0.75673  1.0000
  C   C727      1.0  0.66054  0.47747  0.95960  1.0000
  H   H1248     1.0  0.64289  0.61299  0.76029  1.0000
  H   H1249     1.0  0.58934  0.61979  0.77368  1.0000
  H   H1250     1.0  0.92732  0.46562  0.49912  1.0000
  H   H1251     1.0  0.60090  0.60680  0.87306  1.0000
  C   C728      1.0  0.90316  0.60141  0.50348  1.0000
  H   H1252     1.0  0.00019  0.53331  0.73475  1.0000
  C   C729      1.0  0.51127  0.52429  0.86928  1.0000
  H   H1253     1.0  0.86356  0.55483  0.51089  1.0000
  C   C730      1.0  0.80864  0.57512  0.50450  1.0000
  H   H1254     1.0  0.68856  0.60046  0.96696  1.0000
  H   H1255     1.0  0.96155  0.65563  0.60473  1.0000
  C   C731      1.0  0.98264  0.64782  0.60673  1.0000
  H   H1256     1.0  0.73017  0.59867  0.95688  1.0000
  H   H1257     1.0  0.75123  0.33296  0.53222  1.0000
  H   H1258     1.0  0.98366  0.64400  0.63207  1.0000
  H   H1259     1.0  0.92723  0.60441  0.51336  1.0000
  H   H1260     1.0  0.62171  0.57271  0.97967  1.0000
  H   H1261     1.0  0.66326  0.55397  0.98229  1.0000
  C   C732      1.0  0.71283  0.59895  0.97703  1.0000
  N   N53       1.0  0.70540  0.56890  0.98529  1.0000
  H   H1262     1.0  0.50955  0.50756  0.78052  1.0000
  C   C733      1.0  0.00158  0.55913  0.62829  1.0000
  H   H1263     1.0  0.00516  0.51394  0.62752  1.0000
  H   H1264     1.0  0.71874  0.54454  0.99009  1.0000
  C   C734      1.0  0.66795  0.47468  0.99211  1.0000
  C   C735      1.0  0.67022  0.56581  0.99133  1.0000
  C   C736      1.0  0.82095  0.32996  0.50090  1.0000
  H   H1265     1.0  0.71847  0.60966  0.99118  1.0000
  Fe  Fe105     1.0  0.80837  0.76857  0.07800  1.0000
  S   S211      1.0  0.84904  0.76260  0.11191  1.0000
  S   S212      1.0  0.78230  0.74746  0.05476  1.0000
  Fe  Fe106     1.0  0.81700  0.80373  0.09264  1.0000
  S   S213      1.0  0.85807  0.79995  0.12625  1.0000
  S   S214      1.0  0.79851  0.82813  0.08252  1.0000
  Fe  Fe107     1.0  0.87598  0.78281  0.08976  1.0000
  S   S215      1.0  0.92606  0.78358  0.06710  1.0000
  Fe  Fe108     1.0  0.82755  0.78034  0.14573  1.0000
  S   S216      1.0  0.82543  0.77916  0.20047  1.0000
  S   S217      1.0  0.83642  0.78787  0.05420  1.0000
  S   S218      1.0  0.78533  0.78493  0.11376  1.0000
  Fe  Fe109     1.0  0.68303  0.77380  0.40458  1.0000
  S   S219      1.0  0.65737  0.76758  0.35840  1.0000
  S   S220      1.0  0.69870  0.75182  0.43233  1.0000
  Fe  Fe110     1.0  0.67062  0.80852  0.39284  1.0000
  S   S221      1.0  0.64398  0.80445  0.34660  1.0000
  S   S222      1.0  0.68237  0.83274  0.41269  1.0000
  Fe  Fe111     1.0  0.61947  0.78474  0.37275  1.0000
  S   S223      1.0  0.56861  0.77631  0.36023  1.0000
  Fe  Fe112     1.0  0.68350  0.78758  0.33534  1.0000
  S   S224      1.0  0.69711  0.78541  0.28241  1.0000
  S   S225      1.0  0.64334  0.78987  0.42037  1.0000
  S   S226      1.0  0.71210  0.79275  0.38019  1.0000
  Fe  Fe113     1.0  0.63424  0.92094  0.37625  1.0000
  S   S227      1.0  0.63808  0.93481  0.33054  1.0000
  S   S228      1.0  0.61654  0.89596  0.36749  1.0000
  Fe  Fe114     1.0  0.65177  0.94982  0.41788  1.0000
  S   S229      1.0  0.65670  0.96529  0.37487  1.0000
  S   S230      1.0  0.66205  0.95810  0.46935  1.0000
  Fe  Fe115     1.0  0.61142  0.95323  0.35791  1.0000
  S   S231      1.0  0.57280  0.96690  0.33288  1.0000
  Fe  Fe116     1.0  0.68298  0.94536  0.35142  1.0000
  S   S232      1.0  0.73292  0.94771  0.32879  1.0000
  S   S233      1.0  0.60465  0.93892  0.40229  1.0000
  S   S234      1.0  0.68089  0.93034  0.39580  1.0000
  Fe  Fe117     1.0  0.85115  0.94431  0.08798  1.0000
  S   S235      1.0  0.85201  0.95917  0.13250  1.0000
  S   S236      1.0  0.84486  0.95327  0.03631  1.0000
  Fe  Fe118     1.0  0.86261  0.91401  0.12709  1.0000
  S   S237      1.0  0.86454  0.92715  0.17414  1.0000
  S   S238      1.0  0.87562  0.88825  0.13064  1.0000
  Fe  Fe119     1.0  0.82183  0.94028  0.15570  1.0000
  S   S239      1.0  0.77354  0.94493  0.18026  1.0000
  Fe  Fe120     1.0  0.89448  0.94461  0.14692  1.0000
  S   S240      1.0  0.94057  0.95618  0.16410  1.0000
  S   S241      1.0  0.81817  0.92608  0.10983  1.0000
  S   S242      1.0  0.89532  0.93081  0.10119  1.0000
  C   C737      1.0  0.97577  0.94486  0.16366  1.0000
  H   H1266     1.0  0.90595  0.83008  0.12016  1.0000
  C   C738      1.0  0.97488  0.92911  0.15469  1.0000
  H   H1267     1.0  0.66789  0.72652  0.00128  1.0000
  H   H1268     1.0  0.95218  0.92352  0.14896  1.0000
  C   C739      1.0  0.53136  0.96231  0.33322  1.0000
  C   C740      1.0  0.99829  0.95702  0.05336  1.0000
  H   H1269     1.0  0.95878  0.83079  0.14672  1.0000
  H   H1270     1.0  0.91729  0.81371  0.09662  1.0000
  C   C741      1.0  0.58989  0.73587  0.39104  1.0000
  C   C742      1.0  0.74360  0.94650  0.28734  1.0000
  C   C743      1.0  0.77626  0.94594  0.27890  1.0000
  C   C744      1.0  0.78588  0.94506  0.24641  1.0000
  C   C745      1.0  0.76291  0.94498  0.22180  1.0000
  C   C746      1.0  0.73024  0.94545  0.23028  1.0000
  C   C747      1.0  0.72061  0.94609  0.26278  1.0000
  H   H1271     1.0  0.79432  0.94625  0.29761  1.0000
  H   H1272     1.0  0.81108  0.94478  0.24038  1.0000
  H   H1273     1.0  0.71221  0.94546  0.21153  1.0000
  H   H1274     1.0  0.69542  0.94664  0.26876  1.0000
  H   H1275     1.0  0.77863  0.71353  0.40967  1.0000
  H   H1276     1.0  0.53778  0.81061  0.32551  1.0000
  H   H1277     1.0  0.71465  0.72204  0.45978  1.0000
  C   C748      1.0  0.90628  0.83943  0.05985  1.0000
  H   H1278     1.0  0.00144  0.77664  0.15793  1.0000
  H   H1279     1.0  0.80336  0.75475  0.41110  1.0000
  C   C749      1.0  0.78455  0.75980  0.39541  1.0000
  C   C750      1.0  0.52968  0.77949  0.37608  1.0000
  H   H1280     1.0  0.90216  0.81567  0.03869  1.0000
  H   H1281     1.0  0.96397  0.95557  0.09353  1.0000
  H   H1282     1.0  0.82162  0.77575  0.37670  1.0000
  H   H1283     1.0  0.54467  0.79407  0.41566  1.0000
  C   C751      1.0  0.63441  0.87852  0.38139  1.0000
  C   C752      1.0  0.65889  0.87863  0.40441  1.0000
  C   C753      1.0  0.67322  0.86451  0.41382  1.0000
  C   C754      1.0  0.66318  0.85016  0.40044  1.0000
  C   C755      1.0  0.63858  0.85005  0.37751  1.0000
  C   C756      1.0  0.62421  0.86416  0.36816  1.0000
  H   H1284     1.0  0.66669  0.88957  0.41509  1.0000
  H   H1285     1.0  0.69210  0.86469  0.43172  1.0000
  H   H1286     1.0  0.63058  0.83910  0.36707  1.0000
  H   H1287     1.0  0.60526  0.86396  0.35035  1.0000
  C   C757      1.0  0.96444  0.78253  0.08586  1.0000
  C   C758      1.0  0.96802  0.77978  0.11875  1.0000
  H   H1288     1.0  0.58910  0.71018  0.48405  1.0000
  H   H1289     1.0  0.94702  0.77818  0.13362  1.0000
  C   C759      1.0  0.64013  0.73853  0.48778  1.0000
  C   C760      1.0  0.73335  0.78362  0.26061  1.0000
  C   C761      1.0  0.73152  0.78052  0.22745  1.0000
  C   C762      1.0  0.75945  0.77920  0.20876  1.0000
  C   C763      1.0  0.78964  0.78089  0.22308  1.0000
  C   C764      1.0  0.79154  0.78408  0.25624  1.0000
  C   C765      1.0  0.76353  0.78554  0.27493  1.0000
  H   H1290     1.0  0.70827  0.77903  0.21615  1.0000
  H   H1291     1.0  0.75760  0.77662  0.18335  1.0000
  H   H1292     1.0  0.81483  0.78555  0.26744  1.0000
  H   H1293     1.0  0.76524  0.78835  0.30021  1.0000
  C   C766      1.0  0.81840  0.84498  0.09773  1.0000
  C   C767      1.0  0.84283  0.84383  0.12062  1.0000
  C   C768      1.0  0.85946  0.85728  0.13107  1.0000
  C   C769      1.0  0.85155  0.87207  0.11913  1.0000
  C   C770      1.0  0.82621  0.87335  0.09723  1.0000
  C   C771      1.0  0.80973  0.85982  0.08655  1.0000
  H   H1294     1.0  0.84921  0.83259  0.13003  1.0000
  H   H1295     1.0  0.87876  0.85623  0.14833  1.0000
  H   H1296     1.0  0.81993  0.88468  0.08784  1.0000
  H   H1297     1.0  0.79065  0.86084  0.06902  1.0000
  C   C772      1.0  0.76363  0.74281  0.01702  1.0000
  C   C773      1.0  0.74920  0.72797  0.01282  1.0000
  C   C774      1.0  0.72647  0.74657  0.46341  1.0000
  H   H1298     1.0  0.74915  0.71982  0.03261  1.0000
  C   C775      1.0  0.71357  0.96134  0.12553  1.0000
  H   H1299     1.0  0.90593  0.76085  0.01612  1.0000
  H   H1300     1.0  0.79892  0.96630  0.08208  1.0000
  H   H1301     1.0  0.78782  0.73155  0.42897  1.0000
  H   H1302     1.0  0.72405  0.96478  0.14907  1.0000
  C   C776      1.0  0.78767  0.72558  0.40522  1.0000
  N   N54       1.0  0.77670  0.74907  0.36754  1.0000
  C   C777      1.0  0.76501  0.73371  0.38123  1.0000
  C   C778      1.0  0.74920  0.75583  0.34865  1.0000
  C   C779      1.0  0.80601  0.74604  0.34729  1.0000
  C   C780      1.0  0.73636  0.74564  0.32070  1.0000
  H   H1303     1.0  0.51198  0.87029  0.34752  1.0000
  C   C781      1.0  0.81420  0.75818  0.32100  1.0000
  H   H1304     1.0  0.74162  0.73517  0.39362  1.0000
  H   H1305     1.0  0.76032  0.72505  0.36173  1.0000
  H   H1306     1.0  0.75512  0.76738  0.33839  1.0000
  H   H1307     1.0  0.72853  0.75813  0.36485  1.0000
  H   H1308     1.0  0.82759  0.74480  0.36289  1.0000
  H   H1309     1.0  0.80325  0.73467  0.33436  1.0000
  H   H1310     1.0  0.75569  0.74133  0.30492  1.0000
  H   H1311     1.0  0.72190  0.73564  0.32970  1.0000
  H   H1312     1.0  0.72005  0.75276  0.30560  1.0000
  C   C782      1.0  0.80069  0.99440  0.11749  1.0000
  H   H1313     1.0  0.95555  0.94265  0.06096  1.0000
  H   H1314     1.0  0.72283  0.94975  0.11829  1.0000
  H   H1315     1.0  0.80519  0.77007  0.32530  1.0000
  H   H1316     1.0  0.80595  0.75403  0.29700  1.0000
  N   N55       1.0  0.71646  0.89133  0.31782  1.0000
  C   C783      1.0  0.69449  0.87732  0.31342  1.0000
  C   C784      1.0  0.69668  0.90562  0.31121  1.0000
  C   C785      1.0  0.72718  0.89164  0.35248  1.0000
  C   C786      1.0  0.74467  0.88973  0.29540  1.0000
  C   C787      1.0  0.70828  0.86132  0.32302  1.0000
  C   C788      1.0  0.68112  0.90634  0.27756  1.0000
  C   C789      1.0  0.74957  0.90514  0.36288  1.0000
  C   C790      1.0  0.76248  0.90498  0.28584  1.0000
  H   H1317     1.0  0.67191  0.87888  0.32723  1.0000
  H   H1318     1.0  0.68687  0.87608  0.28789  1.0000
  H   H1319     1.0  0.71058  0.91657  0.31435  1.0000
  H   H1320     1.0  0.67696  0.90651  0.32912  1.0000
  H   H1321     1.0  0.70593  0.89197  0.36857  1.0000
  H   H1322     1.0  0.74042  0.88087  0.35877  1.0000
  H   H1323     1.0  0.76270  0.88165  0.30575  1.0000
  H   H1324     1.0  0.73666  0.88431  0.27232  1.0000
  H   H1325     1.0  0.70962  0.86004  0.34952  1.0000
  H   H1326     1.0  0.69172  0.85192  0.31448  1.0000
  H   H1327     1.0  0.73208  0.85918  0.31219  1.0000
  H   H1328     1.0  0.65994  0.89842  0.27591  1.0000
  H   H1329     1.0  0.67223  0.91835  0.27332  1.0000
  H   H1330     1.0  0.69822  0.90363  0.25808  1.0000
  H   H1331     1.0  0.75343  0.90443  0.38926  1.0000
  H   H1332     1.0  0.73924  0.91677  0.35833  1.0000
  H   H1333     1.0  0.77353  0.90413  0.35166  1.0000
  H   H1334     1.0  0.78837  0.90246  0.28270  1.0000
  H   H1335     1.0  0.76116  0.91460  0.30346  1.0000
  H   H1336     1.0  0.75420  0.90919  0.26203  1.0000
  H   H1337     1.0  0.76622  0.94363  0.44725  1.0000
  C   C791      1.0  0.92077  0.73504  0.04592  1.0000
  H   H1338     1.0  0.80310  0.96339  0.43641  1.0000
  H   H1339     1.0  0.63081  0.73444  0.42224  1.0000
  H   H1340     1.0  0.84069  0.75929  0.31901  1.0000
  C   C792      1.0  0.91568  0.73948  0.08153  1.0000
  H   H1341     1.0  0.61324  0.71521  0.45034  1.0000
  C   C793      1.0  0.84346  0.97262  0.02065  1.0000
  H   H1342     1.0  0.56968  0.92440  0.34447  1.0000
  H   H1343     1.0  0.00246  0.90830  0.14654  1.0000
  H   H1344     1.0  0.94099  0.74257  0.03762  1.0000
  H   H1345     1.0  0.94381  0.81126  0.14621  1.0000
  H   H1346     1.0  0.62206  0.75337  0.41037  1.0000
  H   H1347     1.0  0.96287  0.87476  0.08645  1.0000
  H   H1348     1.0  0.96996  0.84861  0.10938  1.0000
  N   N56       1.0  0.93591  0.83586  0.07931  1.0000
  H   H1349     1.0  0.87305  0.71696  0.05141  1.0000
  H   H1350     1.0  0.91015  0.75201  0.08443  1.0000
  H   H1351     1.0  0.89691  0.73228  0.09330  1.0000
  H   H1352     1.0  0.93838  0.73754  0.09494  1.0000
  H   H1353     1.0  0.51546  0.92002  0.43430  1.0000
  C   C794      1.0  0.51865  0.88286  0.34760  1.0000
  H   H1354     1.0  0.82602  0.98736  0.41756  1.0000
  H   H1355     1.0  0.60581  0.73361  0.37022  1.0000
  H   H1356     1.0  0.87633  0.75827  0.04498  1.0000
  H   H1357     1.0  0.72610  0.96443  0.40119  1.0000
  H   H1358     1.0  0.93816  0.86737  0.05504  1.0000
  H   H1359     1.0  0.98574  0.83002  0.07084  1.0000
  H   H1360     1.0  0.85557  0.98443  0.06477  1.0000
  H   H1361     1.0  0.58368  0.76911  0.43275  1.0000
  C   C795      1.0  0.97538  0.94781  0.07553  1.0000
  N   N57       1.0  0.75996  0.82750  0.18874  1.0000
  C   C796      1.0  0.73141  0.81928  0.17364  1.0000
  C   C797      1.0  0.75675  0.82580  0.22467  1.0000
  C   C798      1.0  0.78991  0.81939  0.17730  1.0000
  C   C799      1.0  0.75976  0.84430  0.17789  1.0000
  C   C800      1.0  0.73065  0.81877  0.13657  1.0000
  C   C801      1.0  0.72677  0.83315  0.23992  1.0000
  C   C802      1.0  0.82029  0.82119  0.19836  1.0000
  C   C803      1.0  0.78434  0.85561  0.19344  1.0000
  H   H1362     1.0  0.72966  0.80698  0.18221  1.0000
  H   H1363     1.0  0.70859  0.82490  0.18078  1.0000
  H   H1364     1.0  0.77762  0.83079  0.23779  1.0000
  H   H1365     1.0  0.75665  0.81320  0.23123  1.0000
  H   H1366     1.0  0.78568  0.80656  0.17513  1.0000
  H   H1367     1.0  0.79646  0.82328  0.15272  1.0000
  H   H1368     1.0  0.76458  0.84498  0.15161  1.0000
  H   H1369     1.0  0.73551  0.84950  0.18018  1.0000
  H   H1370     1.0  0.70991  0.81148  0.12858  1.0000
  H   H1371     1.0  0.72741  0.83052  0.12601  1.0000
  H   H1372     1.0  0.75232  0.81339  0.12634  1.0000
  H   H1373     1.0  0.72900  0.83249  0.26650  1.0000
  H   H1374     1.0  0.72422  0.84563  0.23355  1.0000
  H   H1375     1.0  0.70463  0.82651  0.23361  1.0000
  H   H1376     1.0  0.82685  0.83347  0.20339  1.0000
  H   H1377     1.0  0.84088  0.81592  0.18565  1.0000
  H   H1378     1.0  0.81782  0.81464  0.22119  1.0000
  H   H1379     1.0  0.80718  0.85569  0.17977  1.0000
  H   H1380     1.0  0.78931  0.85327  0.21901  1.0000
  H   H1381     1.0  0.77456  0.86763  0.19300  1.0000
  H   H1382     1.0  0.75332  0.98200  0.36365  1.0000
  H   H1383     1.0  0.61658  0.76082  0.00985  1.0000
  H   H1384     1.0  0.77011  0.94038  0.06425  1.0000
  C   C804      1.0  0.88673  0.82511  0.04813  1.0000
  H   H1385     1.0  0.57177  0.74430  0.38262  1.0000
  C   C805      1.0  0.54565  0.91922  0.33972  1.0000
  C   C806      1.0  0.57294  0.73181  0.46129  1.0000
  H   H1386     1.0  0.65368  0.73261  0.46856  1.0000
  N   N58       1.0  0.75903  0.97673  0.43307  1.0000
  H   H1387     1.0  0.53287  0.92766  0.32419  1.0000
  C   C807      1.0  0.81203  0.98012  0.40019  1.0000
  C   C808      1.0  0.77363  0.96319  0.08760  1.0000
  H   H1388     1.0  0.77582  0.95603  0.10976  1.0000
  C   C809      1.0  0.59481  0.75873  0.99491  1.0000
  H   H1389     1.0  0.81736  0.71698  0.03074  1.0000
  C   C810      1.0  0.72926  0.73072  0.47201  1.0000
  H   H1390     1.0  0.95843  0.81505  0.05982  1.0000
  H   H1391     1.0  0.62992  0.73444  0.01142  1.0000
  H   H1392     1.0  0.98975  0.78663  0.04152  1.0000
  C   C811      1.0  0.74578  0.75757  0.47949  1.0000
  H   H1393     1.0  0.72407  0.94721  0.44023  1.0000
  C   C812      1.0  0.52824  0.91687  0.37206  1.0000
  H   H1394     1.0  0.86998  0.82868  0.02875  1.0000
  H   H1395     1.0  0.76838  0.96850  0.48143  1.0000
  H   H1396     1.0  0.97470  0.81648  0.11866  1.0000
  C   C813      1.0  0.99895  0.77893  0.13250  1.0000
  H   H1397     1.0  0.51360  0.88853  0.39680  1.0000
  H   H1398     1.0  0.98526  0.96767  0.04561  1.0000
  H   H1399     1.0  0.98003  0.86144  0.05869  1.0000
  H   H1400     1.0  0.91199  0.84650  0.03833  1.0000
  C   C814      1.0  0.74985  0.96723  0.46220  1.0000
  C   C815      1.0  0.95766  0.86413  0.07180  1.0000
  C   C816      1.0  0.51443  0.96392  0.30442  1.0000
  H   H1401     1.0  0.80054  0.98788  0.38251  1.0000
  C   C817      1.0  0.79724  0.77624  0.38720  1.0000
  C   C818      1.0  0.88421  0.75364  0.02135  1.0000
  H   H1402     1.0  0.87168  0.82039  0.06782  1.0000
  H   H1403     1.0  0.70868  0.98009  0.42255  1.0000
  H   H1404     1.0  0.71183  0.98606  0.36582  1.0000
  N   N59       1.0  0.59271  0.74557  0.44996  1.0000
  H   H1405     1.0  0.82951  0.97284  0.38685  1.0000
  H   H1406     1.0  0.96626  0.84516  0.01995  1.0000
  H   H1407     1.0  0.54496  0.88395  0.35162  1.0000
  H   H1408     1.0  0.53253  0.77337  0.46358  1.0000
  H   H1409     1.0  0.79949  0.78310  0.40984  1.0000
  H   H1410     1.0  0.52705  0.96721  0.28277  1.0000
  H   H1411     1.0  0.88966  0.84689  0.07390  1.0000
  H   H1412     1.0  0.77308  0.95646  0.03647  1.0000
  C   C819      1.0  0.61655  0.75086  0.47521  1.0000
  H   H1413     1.0  0.78075  0.95985  0.40072  1.0000
  H   H1414     1.0  0.53919  0.75620  0.48631  1.0000
  H   H1415     1.0  0.52726  0.95782  0.38394  1.0000
  H   H1416     1.0  0.77097  0.97794  0.14255  1.0000
  H   H1417     1.0  0.92984  0.72283  0.04562  1.0000
  C   C820      1.0  0.57038  0.75903  0.44340  1.0000
  H   H1418     1.0  0.92992  0.85556  0.11146  1.0000
  C   C821      1.0  0.51450  0.95847  0.36134  1.0000
  H   H1419     1.0  0.56536  0.73366  0.48663  1.0000
  C   C822      1.0  0.94821  0.85078  0.09462  1.0000
  H   H1420     1.0  0.76305  0.76131  0.41088  1.0000
  H   H1421     1.0  0.81247  0.72462  0.39599  1.0000
  C   C823      1.0  0.99216  0.78454  0.06701  1.0000
  H   H1422     1.0  0.78089  0.78285  0.37142  1.0000
  C   C824      1.0  0.96171  0.82799  0.05976  1.0000
  C   C825      1.0  0.76244  0.95254  0.05956  1.0000
  C   C826      1.0  0.73453  0.98659  0.37978  1.0000
  H   H1423     1.0  0.58181  0.74834  0.00390  1.0000
  H   H1424     1.0  0.56706  0.77267  0.48846  1.0000
  C   C827      1.0  0.76693  0.99308  0.44463  1.0000
  C   C828      1.0  0.58854  0.71545  0.45970  1.0000
  H   H1425     1.0  0.85238  0.73475  0.05779  1.0000
  C   C829      1.0  0.95275  0.82084  0.13058  1.0000
  H   H1426     1.0  0.83369  0.75748  0.00898  1.0000
  H   H1427     1.0  0.70679  0.97017  0.07740  1.0000
  H   H1428     1.0  0.54522  0.91078  0.38841  1.0000
  H   H1429     1.0  0.78182  0.98995  0.05659  1.0000
  C   C830      1.0  0.55154  0.76546  0.47244  1.0000
  H   H1430     1.0  0.63105  0.76093  0.46612  1.0000
  H   H1431     1.0  0.54951  0.90820  0.32649  1.0000
  C   C831      1.0  0.74459  0.94954  0.45649  1.0000
  C   C832      1.0  0.78814  0.96927  0.41788  1.0000
  H   H1432     1.0  0.57375  0.70748  0.44445  1.0000
  H   H1433     1.0  0.51427  0.99439  0.48839  1.0000
  H   H1434     1.0  0.73613  0.95184  0.05679  1.0000
  H   H1435     1.0  0.57790  0.72469  0.39712  1.0000
  C   C833      1.0  0.61038  0.74243  0.41904  1.0000
  H   H1436     1.0  0.52590  0.92884  0.38222  1.0000
  H   H1437     1.0  0.68733  0.95992  0.12915  1.0000
  H   H1438     1.0  0.94375  0.82772  0.00986  1.0000
  H   H1439     1.0  0.55010  0.73096  0.44732  1.0000
  H   H1440     1.0  0.55191  0.75569  0.42522  1.0000
  C   C834      1.0  0.76792  0.98619  0.12211  1.0000
  C   C835      1.0  0.52453  0.78853  0.40359  1.0000
  C   C836      1.0  0.86428  0.72760  0.03890  1.0000
  H   H1441     1.0  0.72718  0.97149  0.47291  1.0000
  C   C837      1.0  0.92618  0.82507  0.10627  1.0000
  C   C838      1.0  0.96430  0.83245  0.02395  1.0000
  C   C839      1.0  0.00341  0.92050  0.15332  1.0000
  C   C840      1.0  0.73101  0.97649  0.41008  1.0000
  C   C841      1.0  0.66167  0.97746  0.48533  1.0000
  H   H1442     1.0  0.98621  0.82706  0.01379  1.0000
  C   C842      1.0  0.84944  0.98584  0.03971  1.0000
  N   N60       1.0  0.89194  0.73654  0.02404  1.0000
  C   C843      1.0  0.51514  0.81565  0.31607  1.0000
  H   H1443     1.0  0.70660  0.98447  0.10778  1.0000
  H   H1444     1.0  0.74406  0.76980  0.47337  1.0000
  H   H1445     1.0  0.73838  0.94398  0.47976  1.0000
  H   H1446     1.0  0.78745  0.99281  0.46184  1.0000
  H   H1447     1.0  0.98736  0.93810  0.08815  1.0000
  C   C844      1.0  0.71962  0.97387  0.09966  1.0000
  H   H1448     1.0  0.57808  0.76859  0.99864  1.0000
  H   H1449     1.0  0.50682  0.76542  0.33932  1.0000
  C   C845      1.0  0.65555  0.99052  0.46623  1.0000
  H   H1450     1.0  0.51256  0.88697  0.32326  1.0000
  H   H1451     1.0  0.74611  0.98125  0.04225  1.0000
  N   N61       1.0  0.75435  0.97774  0.09312  1.0000
  C   C846      1.0  0.75639  0.98763  0.06331  1.0000
  H   H1452     1.0  0.81920  0.98632  0.10873  1.0000
  H   H1453     1.0  0.52114  0.82722  0.30581  1.0000
  H   H1454     1.0  0.64988  0.98895  0.44103  1.0000
  C   C847      1.0  0.83756  0.72160  0.01611  1.0000
  C   C848      1.0  0.00537  0.95191  0.17145  1.0000
  H   H1455     1.0  0.00078  0.95006  0.03110  1.0000
  H   H1456     1.0  0.75105  0.99519  0.13114  1.0000
  H   H1457     1.0  0.82758  0.73084  0.00068  1.0000
  H   H1458     1.0  0.93227  0.96391  0.00912  1.0000
  C   C849      1.0  0.64287  0.72795  0.99261  1.0000
  C   C850      1.0  0.85761  0.75821  0.99746  1.0000
  H   H1459     1.0  0.93833  0.99040  0.00553  1.0000
  H   H1460     1.0  0.84597  0.71177  0.00094  1.0000
  H   H1461     1.0  0.90739  0.71693  0.99530  1.0000
  H   H1462     1.0  0.77437  0.76460  0.99369  1.0000
  H   H1463     1.0  0.50655  0.80762  0.29683  1.0000
  Fe  Fe121     1.0  0.82126  0.67506  0.58690  1.0000
  S   S243      1.0  0.85757  0.67847  0.62633  1.0000
  Fe  Fe122     1.0  0.81743  0.71009  0.57043  1.0000
  S   S244      1.0  0.85435  0.71570  0.60897  1.0000
  S   S245      1.0  0.79727  0.73178  0.54419  1.0000
  Fe  Fe123     1.0  0.88236  0.69489  0.59185  1.0000
  S   S246      1.0  0.93544  0.69373  0.57625  1.0000
  Fe  Fe124     1.0  0.82662  0.69887  0.64045  1.0000
  S   S247      1.0  0.81497  0.70581  0.69236  1.0000
  S   S248      1.0  0.84717  0.69026  0.55118  1.0000
  S   S249      1.0  0.78859  0.69446  0.60318  1.0000
  Fe  Fe125     1.0  0.67912  0.69212  0.83041  1.0000
  S   S250      1.0  0.70775  0.68610  0.87475  1.0000
  S   S251      1.0  0.69331  0.68668  0.77817  1.0000
  Fe  Fe126     1.0  0.61928  0.70195  0.87047  1.0000
  S   S252      1.0  0.64447  0.69691  0.91713  1.0000
  S   S253      1.0  0.56936  0.71335  0.86968  1.0000
  Fe  Fe127     1.0  0.68846  0.70850  0.89627  1.0000
  S   S254      1.0  0.71774  0.72885  0.91899  1.0000
  Fe  Fe128     1.0  0.66164  0.67508  0.89221  1.0000
  S   S255      1.0  0.66216  0.71505  0.85058  1.0000
  S   S256      1.0  0.63407  0.67958  0.84686  1.0000
  H   H1464     1.0  0.66691  0.75133  0.90865  1.0000
  H   H1465     1.0  0.79414  0.73105  0.61904  1.0000
  H   H1466     1.0  0.58407  0.72644  0.97730  1.0000
  C   C851      1.0  0.73503  0.73379  0.95720  1.0000
  C   C852      1.0  0.53013  0.70494  0.87369  1.0000
  C   C853      1.0  0.59390  0.99275  0.57968  1.0000
  H   H1467     1.0  0.90754  0.96211  0.97501  1.0000
  H   H1468     1.0  0.89048  0.99257  0.90262  1.0000
  H   H1469     1.0  0.54524  0.68103  0.87569  1.0000
  H   H1470     1.0  0.58393  0.76310  0.94476  1.0000
  H   H1471     1.0  0.54298  0.74465  0.95641  1.0000
  H   H1472     1.0  0.65528  0.72804  0.94333  1.0000
  H   H1473     1.0  0.59148  0.71875  0.93887  1.0000
  C   C854      1.0  0.92740  0.98571  0.98298  1.0000
  C   C855      1.0  0.97433  0.69693  0.59342  1.0000
  H   H1474     1.0  0.53211  0.98670  0.55835  1.0000
  C   C856      1.0  0.97924  0.69957  0.62630  1.0000
  H   H1475     1.0  0.81117  0.73932  0.67589  1.0000
  H   H1476     1.0  0.95881  0.70007  0.64220  1.0000
  C   C857      1.0  0.77013  0.73691  0.51246  1.0000
  C   C858      1.0  0.53897  0.99212  0.53504  1.0000
  H   H1477     1.0  0.99793  0.69446  0.54770  1.0000
  C   C859      1.0  0.74567  0.75955  0.68887  1.0000
  H   H1478     1.0  0.83456  0.74719  0.64427  1.0000
  C   C860      1.0  0.72792  0.69184  0.75524  1.0000
  C   C861      1.0  0.73133  0.68557  0.72407  1.0000
  C   C862      1.0  0.75795  0.68952  0.70469  1.0000
  C   C863      1.0  0.78155  0.69986  0.71621  1.0000
  C   C864      1.0  0.77815  0.70613  0.74735  1.0000
  C   C865      1.0  0.75159  0.70213  0.76678  1.0000
  H   H1479     1.0  0.71319  0.67763  0.71483  1.0000
  H   H1480     1.0  0.76011  0.68461  0.68082  1.0000
  H   H1481     1.0  0.79619  0.71415  0.75655  1.0000
  H   H1482     1.0  0.74938  0.70707  0.79062  1.0000
  C   C866      1.0  0.73196  0.73584  0.61061  1.0000
  C   C867      1.0  0.73853  0.75576  0.65309  1.0000
  H   H1483     1.0  0.74959  0.75675  0.94155  1.0000
  C   C868      1.0  0.55167  0.73468  0.94188  1.0000
  H   H1484     1.0  0.75849  0.71638  0.65296  1.0000
  C   C869      1.0  0.81027  0.74736  0.65516  1.0000
  C   C870      1.0  0.64314  0.75429  0.89857  1.0000
  C   C871      1.0  0.52496  0.68882  0.87608  1.0000
  N   N62       1.0  0.75121  0.74056  0.64001  1.0000
  H   H1485     1.0  0.71191  0.75591  0.65066  1.0000
  C   C872      1.0  0.83511  0.98983  0.97428  1.0000
  H   H1486     1.0  0.85735  0.75131  0.97502  1.0000
  C   C873      1.0  0.78565  0.74226  0.62946  1.0000
  H   H1487     1.0  0.82943  0.99123  0.94907  1.0000
  H   H1488     1.0  0.72411  0.75733  0.70385  1.0000
  H   H1489     1.0  0.76630  0.75344  0.69953  1.0000
  H   H1490     1.0  0.71365  0.75846  0.59300  1.0000
  C   C874      1.0  0.73500  0.72348  0.98322  1.0000
  H   H1491     1.0  0.95181  0.73647  0.98705  1.0000
  C   C875      1.0  0.74935  0.74865  0.96143  1.0000
  C   C876      1.0  0.75087  0.72592  0.49628  1.0000
  H   H1492     1.0  0.62117  0.73149  0.89946  1.0000
  C   C877      1.0  0.71468  0.72341  0.67594  1.0000
  C   C878      1.0  0.61621  0.74316  0.91014  1.0000
  H   H1493     1.0  0.80622  0.75954  0.66321  1.0000
  H   H1494     1.0  0.75089  0.77225  0.69135  1.0000
  C   C879      1.0  0.60358  0.75772  0.95901  1.0000
  C   C880      1.0  0.66892  0.97980  0.51807  1.0000
  H   H1495     1.0  0.94822  0.97357  0.92367  1.0000
  H   H1496     1.0  0.83170  0.96463  0.97281  1.0000
  H   H1497     1.0  0.88038  0.72911  0.97506  1.0000
  H   H1498     1.0  0.74757  0.76572  0.63840  1.0000
  H   H1499     1.0  0.75109  0.75283  0.57484  1.0000
  C   C881      1.0  0.64361  0.73642  0.95998  1.0000
  N   N63       1.0  0.61205  0.74184  0.94609  1.0000
  H   H1500     1.0  0.70157  0.71578  0.65862  1.0000
  H   H1501     1.0  0.55523  0.98361  0.52307  1.0000
  H   H1502     1.0  0.64525  0.75319  0.87205  1.0000
  H   H1503     1.0  0.54956  0.73746  0.91603  1.0000
  H   H1504     1.0  0.65833  0.74446  0.50326  1.0000
  H   H1505     1.0  0.70030  0.73390  0.68115  1.0000
  C   C882      1.0  0.74874  0.72730  0.66368  1.0000
  H   H1506     1.0  0.71493  0.74321  0.56365  1.0000
  H   H1507     1.0  0.70708  0.73243  0.61714  1.0000
  H   H1508     1.0  0.62780  0.72978  0.50305  1.0000
  H   H1509     1.0  0.78822  0.75096  0.60996  1.0000
  H   H1510     1.0  0.94812  0.99134  0.90285  1.0000
  C   C883      1.0  0.90125  0.98192  0.91299  1.0000
  H   H1511     1.0  0.62403  0.76601  0.95587  1.0000
  H   H1512     1.0  0.75258  0.71370  0.50254  1.0000
  H   H1513     1.0  0.63764  0.76668  0.90379  1.0000
  C   C884      1.0  0.76735  0.75276  0.50377  1.0000
  H   H1514     1.0  0.74252  0.72531  0.59896  1.0000
  C   C885      1.0  0.00136  0.69637  0.57320  1.0000
  C   C886      1.0  0.72802  0.74846  0.58441  1.0000
  H   H1515     1.0  0.76385  0.72932  0.68520  1.0000
  H   H1516     1.0  0.71651  0.71672  0.69869  1.0000
  H   H1517     1.0  0.59395  0.74721  0.89823  1.0000
  H   H1518     1.0  0.67379  0.96981  0.53311  1.0000
  H   H1519     1.0  0.92357  0.75001  0.96930  1.0000
  H   H1520     1.0  0.99432  0.97729  0.98382  1.0000
  C   C887      1.0  0.92865  0.73755  0.97413  1.0000
  H   H1521     1.0  0.61984  0.99159  0.58525  1.0000
  H   H1522     1.0  0.58470  0.98083  0.57429  1.0000
  C   C888      1.0  0.99882  0.98389  0.96143  1.0000
  C   C889      1.0  0.93633  0.98505  0.92310  1.0000
  H   H1523     1.0  0.90133  0.98808  0.98498  1.0000
  H   H1524     1.0  0.78202  0.76143  0.51603  1.0000
  C   C890      1.0  0.83637  0.97474  0.98786  1.0000
  C   C891      1.0  0.58589  0.72984  0.95174  1.0000
  H   H1525     1.0  0.90056  0.97290  0.89373  1.0000
  H   H1526     1.0  0.86176  0.77045  0.98962  1.0000
  H   H1527     1.0  0.95082  0.96282  0.97074  1.0000
  H   H1528     1.0  0.60423  0.75512  0.49710  1.0000
  N   N64       1.0  0.94088  0.99408  0.95402  1.0000
  H   H1529     1.0  0.99797  0.97607  0.94016  1.0000
  C   C892      1.0  0.50842  0.99232  0.51405  1.0000
  H   H1530     1.0  0.63261  0.71599  0.99002  1.0000
  H   H1531     1.0  0.72426  0.71200  0.98047  1.0000
  C   C893      1.0  0.93014  0.96770  0.98370  1.0000
  H   H1532     1.0  0.88624  0.97770  0.93309  1.0000
  H   H1533     1.0  0.66093  0.74634  0.96246  1.0000
  H   H1534     1.0  0.93176  0.73175  0.95042  1.0000
  H   H1535     1.0  0.53503  0.72469  0.94619  1.0000
  C   C894      1.0  0.67026  0.99495  0.53157  1.0000
  H   H1536     1.0  0.50684  0.72732  0.87230  1.0000
  C   C895      1.0  0.76349  0.75315  0.99105  1.0000
  C   C896      1.0  0.90085  0.72942  0.99210  1.0000
