data_image0
_chemical_formula_structural       HSCSFeSFeS2FeS2FeS2FeSFeS3C2H4FeSFeS3HC2SHC6H4C6H4C2H2C7H4C3H3NHC2H6CHCH4C2SCH7NC4FeC3H10CH9NC8H20NC8H8CHFeH8CFeCH3CHC2HC3H13C2H5SNCHC2HCNH2NH7CHFeC2H2CHSCHCHC2H2CH4CH4SCSFeSFeS2FeS2FeS2FeSFeS3H3CH2FeSFeS3H5C6H4C6H4C2H3C6H4CHCSHCH4C3H5C2NH7FeH2NC4HC4SH6CH4CH6NC7H15CH2CH5C2H7CNH4CH4CHCH2C4HC2H5FeCH5SC2H5NC2HCHCHCHCH3C2H4CH3CH2CNCH7C2SCHC2S3FeC3SHFeH2CSFeSCSFeCFeS2FeS2FeS2FeSFeS3FeS2FeS2H3CH2C2H2C7H4C6H4C3H5FeCHCH2C6H7CHCNC5SH5CH3SCH9CHNCHC3SC3H2SH4CNH10CH4NHC2H2CHCHCH3CH4FeCH4CH9C2H4SH4NC8H8C2HC2HCSH3C2H3FeHCH6CHFeH3CHCH3CH2SFeSFeHFeS2FeS2FeS2FeSFeS3FeS2H2SH7C2H2C6H4C6H4CHC2HCH3SHNHC7H10SH2C2HCH5CH2CH2C2HCSH2CHC3HCH3CH5NC8H10C2H6C2H4CH2C3H2CH3NH2C2H3FeH2CHFeH2C2H4NC2H4CHC2H2C2H8CH2N2C3H9C3H6CH2FeC2SC2SH3S2CSH2C2H2C2HFeS2FeS3H3CHFeSCFeSCFeHSHC2H2C2HCFeC2HC5H4SHCH2C2H4FeH4NHCH2C2H3C3H4CHCHCH2C2H5C2HCSC2HC3HCHCH3S2CSHCH2CNH2C3H2SNH5CHSHCH3CH5CH2FeHCSH3CHC2H2SCFeS2FeS2H2FeHC2HSCFeS2FeCH2CHCFeNCH3SH2C4H8C3SHSH2CH3SC2SHC4FeH11CH3CHC2H3NC8H20CH4CNH2CHCH2C2SH2FeSCSCSH2CHCFeHCFeS2HSH3SFeCFeS2FeS2CHSC3HCH2C2S2H3CH2FeH5C4SCHCHCNCSCH3FeCFeHSC2HNC8H20NC8H9SH13SH2CH3C2HCHCHSC4HCH5C2H6SCH2C2H5CHCFeHC2FeSHFeSCH2SCHFeS2FeS2H2CH3C2H3C2HCHSHC4H4CH2SCHCH2CH4CSFeCH2CNH5CH2CHC3H2SH3CH2CHCHSHFe2NH2NCHSH2CH4C2H2CHSH7NCH3CHC4HC4HC2H2SH3C2H2CH5C2SH3C2HSFeHSFeS2FeHFeHS2H2C2H3CFeSFeS3FeS2FeS2FeSFeS3HC2H2C6H4C6H5CH2CH3CH3CH2C6H7CH4C5NC4SCH10CH2SH2CHCH2CH2CH3SH3CH8C2H3CHCH3CHNH5C2NFeC2HNCNC8H23SH3CHCH2C2NHC2H3CH3CH6C2H2CH3CHCHC2HSH2CHC2HCH6CH2C2HSHFeCH3SCHFeHSFeS2FeCFeCS2CSHC2H3FeSFeS3FeS2FeS2FeSFeS3HC2H2C6H4C6H6SH3SH4CH3C6H10CHFeHC2H4NC8H20NC8H20NHC3HC4HS2H3CH2CH5CH2NC3H3CHCHCH2CNH3NC6H7CHCH5CHCH3C3NSH3CHCH2C3FeCHCHCHCHCH4CH3CH6C2HC2H2CH2SHCHFeS2FeHSFeHFeCS2H7FeSFeS3FeS2FeS2FeSFeS3HCHCHC6H4C6H5NSH3C3SH2C2HC6H10CH3CH2FeHCHCH3NC8H20NSC3HCH4CH7NCHC3H2CH11C2HCHNHNCHFeCHC2H2CHCH5CHCH8C2H2NC6H9CH4C2H2CSCH2CHSH2CHNC7H4SH2CHCHCH5CHCSC2FeCHS2HC2FeS2FeHSHCFeHS2H2CH2CHFeSFeS3FeS2FeS2FeSFeS4C2H2C6H4C6H5CHCH2CNH4CH2C6H9C2FeCHNHC4HCHCHSH7CH6C2HC4H4CH2CHN2C8H15CH2CHCH9SC2H4SH2NC2H4C4H5C3H4CNHC3H2CHCSH4FeH2CH2CHC2H2CH11C2HC2HC2H3CH3CH5C2
_chemical_formula_sum              "H1536 S256 C896 Fe128 N64"
_cell_length_a       54.6374
_cell_length_b       54.5356
_cell_length_c       48.0979
_cell_angle_alpha    90.2367
_cell_angle_beta     89.9758
_cell_angle_gamma    88.7843

_space_group_name_H-M_alt    "P 1"
_space_group_IT_number       1

loop_
  _space_group_symop_operation_xyz
  'x, y, z'

loop_
  _atom_site_type_symbol
  _atom_site_label
  _atom_site_symmetry_multiplicity
  _atom_site_fract_x
  _atom_site_fract_y
  _atom_site_fract_z
  _atom_site_occupancy
  H   H1        1.0  0.20665  0.43428  0.38818  1.0000
  S   S1        1.0  0.29281  0.11362  0.28941  1.0000
  C   C1        1.0  0.29158  0.31302  0.49250  1.0000
  S   S2        1.0  0.27783  0.12769  0.22437  1.0000
  Fe  Fe1       1.0  0.27327  0.14453  0.26681  1.0000
  S   S3        1.0  0.23999  0.16239  0.28751  1.0000
  Fe  Fe2       1.0  0.29967  0.09772  0.24654  1.0000
  S   S4        1.0  0.29130  0.05874  0.23102  1.0000
  S   S5        1.0  0.30693  0.16672  0.26290  1.0000
  Fe  Fe3       1.0  0.13957  0.30887  0.28980  1.0000
  S   S6        1.0  0.11679  0.27472  0.28470  1.0000
  S   S7        1.0  0.16294  0.32451  0.32484  1.0000
  Fe  Fe4       1.0  0.13993  0.31919  0.22668  1.0000
  S   S8        1.0  0.11740  0.28648  0.21746  1.0000
  S   S9        1.0  0.15469  0.34658  0.19544  1.0000
  Fe  Fe5       1.0  0.09413  0.29769  0.25443  1.0000
  S   S10       1.0  0.05325  0.30062  0.24259  1.0000
  Fe  Fe6       1.0  0.14149  0.26617  0.24803  1.0000
  S   S11       1.0  0.15792  0.23030  0.23105  1.0000
  S   S12       1.0  0.11559  0.33214  0.26173  1.0000
  S   S13       1.0  0.16532  0.29847  0.25492  1.0000
  C   C2        1.0  0.30190  0.19305  0.05708  1.0000
  C   C3        1.0  0.27091  0.20310  0.09428  1.0000
  H   H2        1.0  0.12046  0.40645  0.37892  1.0000
  H   H3        1.0  0.32282  0.22468  0.10452  1.0000
  H   H4        1.0  0.05176  0.29452  0.17183  1.0000
  H   H5        1.0  0.11385  0.38194  0.40186  1.0000
  Fe  Fe7       1.0  0.18956  0.35221  0.03362  1.0000
  S   S14       1.0  0.17659  0.32597  0.06726  1.0000
  Fe  Fe8       1.0  0.18782  0.36029  0.48147  1.0000
  S   S15       1.0  0.15636  0.34597  0.45525  1.0000
  S   S16       1.0  0.22045  0.37885  0.03451  1.0000
  S   S17       1.0  0.21995  0.37931  0.46319  1.0000
  H   H6        1.0  0.11935  0.38078  0.15304  1.0000
  C   C4        1.0  0.10783  0.37122  0.13760  1.0000
  C   C5        1.0  0.07138  0.37171  0.22152  1.0000
  S   S18       1.0  0.28018  0.34219  0.48222  1.0000
  H   H7        1.0  0.10401  0.35638  0.20293  1.0000
  C   C6        1.0  0.16062  0.32883  0.36137  1.0000
  C   C7        1.0  0.18145  0.33656  0.37589  1.0000
  C   C8        1.0  0.18062  0.34109  0.40472  1.0000
  C   C9        1.0  0.15874  0.33842  0.41937  1.0000
  C   C10       1.0  0.13792  0.33045  0.40496  1.0000
  C   C11       1.0  0.13883  0.32560  0.37610  1.0000
  H   H8        1.0  0.19842  0.33897  0.36472  1.0000
  H   H9        1.0  0.19690  0.34675  0.41555  1.0000
  H   H10       1.0  0.12093  0.32821  0.41613  1.0000
  H   H11       1.0  0.12268  0.31965  0.36522  1.0000
  C   C12       1.0  0.16134  0.34033  0.16003  1.0000
  C   C13       1.0  0.17229  0.35848  0.14381  1.0000
  C   C14       1.0  0.17701  0.35450  0.11531  1.0000
  C   C15       1.0  0.17091  0.33223  0.10285  1.0000
  C   C16       1.0  0.16010  0.31405  0.11915  1.0000
  C   C17       1.0  0.15520  0.31811  0.14753  1.0000
  H   H12       1.0  0.17696  0.37580  0.15326  1.0000
  H   H13       1.0  0.18535  0.36862  0.10297  1.0000
  H   H14       1.0  0.15524  0.29681  0.10962  1.0000
  H   H15       1.0  0.14628  0.30424  0.15964  1.0000
  C   C18       1.0  0.02371  0.29736  0.25774  1.0000
  C   C19       1.0  0.02033  0.29053  0.28546  1.0000
  H   H16       1.0  0.30799  0.15489  0.04556  1.0000
  H   H17       1.0  0.03611  0.28703  0.29855  1.0000
  C   C20       1.0  0.18425  0.49357  0.01837  1.0000
  C   C21       1.0  0.21901  0.18278  0.27084  1.0000
  C   C22       1.0  0.20605  0.20032  0.28691  1.0000
  C   C23       1.0  0.18784  0.21559  0.27486  1.0000
  C   C24       1.0  0.18186  0.21285  0.24679  1.0000
  C   C25       1.0  0.19495  0.19544  0.23064  1.0000
  C   C26       1.0  0.21371  0.18074  0.24248  1.0000
  H   H18       1.0  0.20991  0.20193  0.30889  1.0000
  H   H19       1.0  0.17789  0.22887  0.28753  1.0000
  H   H20       1.0  0.19037  0.19314  0.20893  1.0000
  H   H21       1.0  0.22335  0.16714  0.22997  1.0000
  C   C27       1.0  0.29570  0.02842  0.24407  1.0000
  C   C28       1.0  0.28437  0.00885  0.23023  1.0000
  C   C29       1.0  0.30966  0.02330  0.26780  1.0000
  H   H22       1.0  0.27332  0.01258  0.21200  1.0000
  H   H23       1.0  0.21195  0.47119  0.06237  1.0000
  H   H24       1.0  0.30995  0.19988  0.03741  1.0000
  N   N1        1.0  0.28344  0.21159  0.06816  1.0000
  H   H25       1.0  0.05037  0.31520  0.14317  1.0000
  C   C30       1.0  0.29411  0.22065  0.39995  1.0000
  C   C31       1.0  0.00287  0.30179  0.24108  1.0000
  H   H26       1.0  0.27254  0.45257  0.09122  1.0000
  H   H27       1.0  0.32767  0.31935  0.47623  1.0000
  H   H28       1.0  0.07830  0.32226  0.19809  1.0000
  H   H29       1.0  0.25346  0.19809  0.04302  1.0000
  H   H30       1.0  0.29736  0.47025  0.07737  1.0000
  H   H31       1.0  0.15585  0.41671  0.35696  1.0000
  C   C32       1.0  0.28730  0.19403  0.11835  1.0000
  H   H32       1.0  0.28380  0.15906  0.07012  1.0000
  C   C33       1.0  0.31621  0.30659  0.48711  1.0000
  H   H33       1.0  0.10996  0.33688  0.15971  1.0000
  H   H34       1.0  0.27690  0.18109  0.13142  1.0000
  H   H35       1.0  0.28480  0.23776  0.46819  1.0000
  H   H36       1.0  0.17145  0.49108  0.03524  1.0000
  C   C34       1.0  0.09541  0.34871  0.15025  1.0000
  C   C35       1.0  0.28230  0.26487  0.43679  1.0000
  S   S19       1.0  0.18830  0.44306  0.01854  1.0000
  C   C36       1.0  0.29548  0.23601  0.07271  1.0000
  H   H37       1.0  0.27261  0.21883  0.02550  1.0000
  H   H38       1.0  0.17585  0.44241  0.35322  1.0000
  H   H39       1.0  0.06187  0.38973  0.15766  1.0000
  H   H40       1.0  0.04788  0.33371  0.19331  1.0000
  H   H41       1.0  0.06490  0.35444  0.23085  1.0000
  H   H42       1.0  0.25933  0.21817  0.10324  1.0000
  H   H43       1.0  0.09446  0.38423  0.12809  1.0000
  N   N2        1.0  0.23375  0.04757  0.29166  1.0000
  C   C37       1.0  0.24184  0.02090  0.29291  1.0000
  C   C38       1.0  0.25461  0.06251  0.30259  1.0000
  C   C39       1.0  0.22870  0.05398  0.26161  1.0000
  C   C40       1.0  0.21090  0.05058  0.30905  1.0000
  Fe  Fe9       1.0  0.21390  0.40773  0.49692  1.0000
  C   C41       1.0  0.26245  0.05730  0.33282  1.0000
  C   C42       1.0  0.22970  0.08130  0.25342  1.0000
  C   C43       1.0  0.20050  0.07684  0.31340  1.0000
  H   H44       1.0  0.26053  0.01834  0.28410  1.0000
  H   H45       1.0  0.32147  0.13294  0.40470  1.0000
  H   H46       1.0  0.25059  0.08245  0.30150  1.0000
  H   H47       1.0  0.27109  0.05965  0.28921  1.0000
  H   H48       1.0  0.24226  0.04449  0.24773  1.0000
  H   H49       1.0  0.21047  0.04727  0.25505  1.0000
  H   H50       1.0  0.19570  0.04016  0.29964  1.0000
  H   H51       1.0  0.21317  0.04196  0.32987  1.0000
  H   H52       1.0  0.00522  0.30706  0.21961  1.0000
  H   H53       1.0  0.31186  0.19959  0.48200  1.0000
  C   C44       1.0  0.29539  0.19124  0.47291  1.0000
  H   H54       1.0  0.24711  0.06005  0.34766  1.0000
  H   H55       1.0  0.27073  0.03866  0.33513  1.0000
  H   H56       1.0  0.27686  0.07042  0.33878  1.0000
  H   H57       1.0  0.22387  0.08326  0.23140  1.0000
  H   H58       1.0  0.24867  0.08807  0.25444  1.0000
  H   H59       1.0  0.21755  0.09339  0.26597  1.0000
  H   H60       1.0  0.18748  0.08193  0.29654  1.0000
  H   H61       1.0  0.21453  0.09105  0.31521  1.0000
  H   H62       1.0  0.19051  0.07776  0.33352  1.0000
  N   N3        1.0  0.21945  0.27362  0.19322  1.0000
  C   C45       1.0  0.22614  0.24764  0.20161  1.0000
  C   C46       1.0  0.19203  0.27474  0.18964  1.0000
  C   C47       1.0  0.22658  0.29017  0.21698  1.0000
  C   C48       1.0  0.23307  0.27982  0.16694  1.0000
  C   C49       1.0  0.25327  0.24240  0.20888  1.0000
  C   C50       1.0  0.18155  0.25761  0.16718  1.0000
  C   C51       1.0  0.22068  0.31775  0.21386  1.0000
  C   C52       1.0  0.22238  0.30107  0.14902  1.0000
  H   H63       1.0  0.21520  0.24214  0.22002  1.0000
  H   H64       1.0  0.22165  0.23440  0.18482  1.0000
  H   H65       1.0  0.18510  0.29344  0.18507  1.0000
  H   H66       1.0  0.18294  0.27010  0.20950  1.0000
  H   H67       1.0  0.21779  0.28405  0.23666  1.0000
  H   H68       1.0  0.24664  0.28909  0.22070  1.0000
  H   H69       1.0  0.25241  0.28425  0.17183  1.0000
  H   H70       1.0  0.23402  0.26347  0.15297  1.0000
  H   H71       1.0  0.25614  0.22225  0.21118  1.0000
  H   H72       1.0  0.26592  0.24853  0.19243  1.0000
  H   H73       1.0  0.25824  0.25057  0.22922  1.0000
  H   H74       1.0  0.18241  0.23814  0.17381  1.0000
  H   H75       1.0  0.16181  0.26215  0.16430  1.0000
  H   H76       1.0  0.19065  0.25963  0.14678  1.0000
  H   H77       1.0  0.23184  0.32610  0.19730  1.0000
  H   H78       1.0  0.22554  0.32720  0.23355  1.0000
  H   H79       1.0  0.20098  0.32179  0.21053  1.0000
  H   H80       1.0  0.23760  0.31223  0.14098  1.0000
  H   H81       1.0  0.20976  0.31398  0.15982  1.0000
  H   H82       1.0  0.21305  0.29383  0.13026  1.0000
  N   N4        1.0  0.16196  0.42248  0.41393  1.0000
  C   C53       1.0  0.16950  0.43371  0.44134  1.0000
  C   C54       1.0  0.18265  0.40554  0.40483  1.0000
  C   C55       1.0  0.13945  0.40764  0.41923  1.0000
  C   C56       1.0  0.15671  0.44287  0.39350  1.0000
  C   C57       1.0  0.14987  0.44938  0.45668  1.0000
  C   C58       1.0  0.20775  0.41761  0.40121  1.0000
  C   C59       1.0  0.12880  0.39369  0.39427  1.0000
  C   C60       1.0  0.15829  0.43623  0.36218  1.0000
  H   H83       1.0  0.17595  0.41924  0.45613  1.0000
  H   H84       1.0  0.18527  0.44601  0.43841  1.0000
  H   H85       1.0  0.17874  0.39591  0.38510  1.0000
  H   H86       1.0  0.18510  0.39048  0.42016  1.0000
  H   H87       1.0  0.14316  0.39399  0.43597  1.0000
  H   H88       1.0  0.12408  0.41949  0.42692  1.0000
  H   H89       1.0  0.13825  0.45120  0.39743  1.0000
  H   H90       1.0  0.16989  0.45797  0.39670  1.0000
  C   C61       1.0  0.30755  0.20054  0.38272  1.0000
  H   H91       1.0  0.14116  0.46337  0.44305  1.0000
  Fe  Fe10      1.0  0.32702  0.13519  0.28266  1.0000
  H   H92       1.0  0.21605  0.42222  0.42159  1.0000
  H   H93       1.0  0.22057  0.40433  0.39092  1.0000
  H   H94       1.0  0.29070  0.46951  0.11407  1.0000
  H   H95       1.0  0.30698  0.20541  0.36032  1.0000
  H   H96       1.0  0.27880  0.19889  0.48340  1.0000
  H   H97       1.0  0.05560  0.38415  0.21704  1.0000
  H   H98       1.0  0.29927  0.27350  0.44417  1.0000
  H   H99       1.0  0.26704  0.27499  0.44736  1.0000
  C   C62       1.0  0.04268  0.36259  0.13351  1.0000
  Fe  Fe11      1.0  0.24250  0.35770  0.49395  1.0000
  C   C63       1.0  0.29404  0.19478  0.44112  1.0000
  H   H100      1.0  0.14226  0.38114  0.38409  1.0000
  H   H101      1.0  0.13578  0.43776  0.46633  1.0000
  H   H102      1.0  0.25753  0.18847  0.08976  1.0000
  C   C64       1.0  0.26017  0.46454  0.02917  1.0000
  H   H103      1.0  0.27934  0.16691  0.03366  1.0000
  C   C65       1.0  0.21738  0.47021  0.10667  1.0000
  C   C66       1.0  0.29226  0.16714  0.05142  1.0000
  H   H104      1.0  0.29320  0.20941  0.13177  1.0000
  C   C67       1.0  0.28159  0.23773  0.44534  1.0000
  C   C68       1.0  0.06157  0.30949  0.16120  1.0000
  C   C69       1.0  0.05554  0.37062  0.16049  1.0000
  H   H105      1.0  0.03559  0.37915  0.12251  1.0000
  H   H106      1.0  0.05492  0.35336  0.11830  1.0000
  H   H107      1.0  0.27559  0.18887  0.43422  1.0000
  H   H108      1.0  0.27970  0.26775  0.41421  1.0000
  H   H109      1.0  0.15877  0.45934  0.47403  1.0000
  H   H110      1.0  0.30727  0.18111  0.43212  1.0000
  H   H111      1.0  0.31842  0.03808  0.27878  1.0000
  H   H112      1.0  0.23399  0.23269  0.07043  1.0000
  H   H113      1.0  0.29730  0.24597  0.05261  1.0000
  H   H114      1.0  0.12040  0.36487  0.12074  1.0000
  H   H115      1.0  0.27414  0.21865  0.39599  1.0000
  H   H116      1.0  0.29639  0.17131  0.47763  1.0000
  H   H117      1.0  0.14374  0.44662  0.35083  1.0000
  C   C70       1.0  0.08763  0.36704  0.19565  1.0000
  C   C71       1.0  0.06561  0.33037  0.18233  1.0000
  H   H118      1.0  0.02700  0.35063  0.13820  1.0000
  H   H119      1.0  0.07930  0.30140  0.15398  1.0000
  H   H120      1.0  0.23182  0.23649  0.03373  1.0000
  H   H121      1.0  0.04065  0.37272  0.17616  1.0000
  H   H122      1.0  0.31950  0.01422  0.18266  1.0000
  S   S20       1.0  0.22027  0.44730  0.48257  1.0000
  N   N5        1.0  0.29923  0.22028  0.43078  1.0000
  C   C72       1.0  0.21033  0.47732  0.49326  1.0000
  H   H123      1.0  0.28392  0.24820  0.08619  1.0000
  C   C73       1.0  0.26404  0.21509  0.04604  1.0000
  C   C74       1.0  0.24490  0.23586  0.05141  1.0000
  H   H124      1.0  0.08250  0.38081  0.23774  1.0000
  C   C75       1.0  0.32545  0.22621  0.43774  1.0000
  N   N6        1.0  0.07571  0.35408  0.17150  1.0000
  H   H125      1.0  0.09447  0.38526  0.18936  1.0000
  H   H126      1.0  0.30333  0.18307  0.11136  1.0000
  N   N7        1.0  0.24450  0.49183  0.07060  1.0000
  H   H127      1.0  0.29870  0.23852  0.39057  1.0000
  H   H128      1.0  0.23672  0.45271  0.07323  1.0000
  H   H129      1.0  0.24323  0.01446  0.31480  1.0000
  H   H130      1.0  0.26240  0.23165  0.44236  1.0000
  H   H131      1.0  0.08873  0.33776  0.13248  1.0000
  H   H132      1.0  0.32677  0.23356  0.45934  1.0000
  H   H133      1.0  0.31784  0.19057  0.07105  1.0000
  C   C76       1.0  0.99644  0.28813  0.29627  1.0000
  H   H134      1.0  0.29839  0.18266  0.38478  1.0000
  Fe  Fe12      1.0  0.31347  0.14764  0.22194  1.0000
  C   C77       1.0  0.25341  0.49021  0.04088  1.0000
  C   C78       1.0  0.32626  0.28403  0.49629  1.0000
  H   H135      1.0  0.20503  0.48616  0.11107  1.0000
  H   H136      1.0  0.23357  0.49502  0.46355  1.0000
  C   C79       1.0  0.32144  0.23554  0.08527  1.0000
  H   H137      1.0  0.25332  0.25419  0.05243  1.0000
  S   S21       1.0  0.32711  0.17422  0.18886  1.0000
  C   C80       1.0  0.22780  0.47086  0.07691  1.0000
  H   H138      1.0  0.27392  0.45450  0.04176  1.0000
  C   C81       1.0  0.22543  0.00242  0.27771  1.0000
  H   H139      1.0  0.20611  0.45358  0.10881  1.0000
  C   C82       1.0  0.31236  0.99892  0.27736  1.0000
  C   C83       1.0  0.28239  0.46998  0.09299  1.0000
  H   H140      1.0  0.32671  0.25459  0.09043  1.0000
  H   H141      1.0  0.23205  0.46890  0.12254  1.0000
  C   C84       1.0  0.26576  0.49306  0.09048  1.0000
  H   H142      1.0  0.24369  0.45317  0.02656  1.0000
  H   H143      1.0  0.22515  0.00539  0.25491  1.0000
  H   H144      1.0  0.32823  0.26183  0.41552  1.0000
  H   H145      1.0  0.32211  0.13021  0.35311  1.0000
  C   C85       1.0  0.27686  0.29639  0.50640  1.0000
  H   H146      1.0  0.20651  0.00255  0.28598  1.0000
  H   H147      1.0  0.32701  0.19817  0.38882  1.0000
  H   H148      1.0  0.32851  0.12900  0.15574  1.0000
  H   H149      1.0  0.23020  0.30250  0.59104  1.0000
  S   S22       1.0  0.29175  0.11829  0.79593  1.0000
  C   C86       1.0  0.19470  0.47277  0.00507  1.0000
  S   S23       1.0  0.26800  0.11576  0.73370  1.0000
  Fe  Fe13      1.0  0.27177  0.14436  0.76716  1.0000
  S   S24       1.0  0.24726  0.17423  0.78659  1.0000
  Fe  Fe14      1.0  0.29097  0.09050  0.76081  1.0000
  S   S25       1.0  0.27690  0.05154  0.76763  1.0000
  S   S26       1.0  0.30617  0.15866  0.74867  1.0000
  Fe  Fe15      1.0  0.13941  0.31304  0.77681  1.0000
  S   S27       1.0  0.11738  0.28050  0.78949  1.0000
  S   S28       1.0  0.16157  0.33775  0.80534  1.0000
  Fe  Fe16      1.0  0.12601  0.30786  0.71464  1.0000
  S   S29       1.0  0.10264  0.27542  0.72377  1.0000
  S   S30       1.0  0.12533  0.31803  0.66853  1.0000
  Fe  Fe17      1.0  0.08796  0.29604  0.76082  1.0000
  S   S31       1.0  0.04809  0.30645  0.77252  1.0000
  Fe  Fe18      1.0  0.13402  0.26269  0.75095  1.0000
  S   S32       1.0  0.14851  0.22409  0.74094  1.0000
  S   S33       1.0  0.10952  0.32955  0.75009  1.0000
  S   S34       1.0  0.15781  0.29430  0.74021  1.0000
  H   H150      1.0  0.30476  0.33301  0.62752  1.0000
  H   H151      1.0  0.19857  0.27294  0.60265  1.0000
  H   H152      1.0  0.31022  0.16315  0.84739  1.0000
  C   C87       1.0  0.15966  0.21816  0.65985  1.0000
  H   H153      1.0  0.15219  0.25791  0.69267  1.0000
  H   H154      1.0  0.27886  0.16209  0.83886  1.0000
  Fe  Fe19      1.0  0.20600  0.36723  0.54104  1.0000
  S   S35       1.0  0.20762  0.35937  0.58776  1.0000
  Fe  Fe20      1.0  0.18163  0.35876  0.97020  1.0000
  S   S36       1.0  0.15775  0.34006  0.93763  1.0000
  S   S37       1.0  0.23914  0.38750  0.52612  1.0000
  S   S38       1.0  0.21186  0.38613  0.96665  1.0000
  H   H155      1.0  0.29275  0.30042  0.56211  1.0000
  H   H156      1.0  0.30275  0.08444  0.69171  1.0000
  H   H157      1.0  0.16498  0.28008  0.67104  1.0000
  H   H158      1.0  0.00160  0.34145  0.69315  1.0000
  H   H159      1.0  0.29674  0.02494  0.64591  1.0000
  C   C88       1.0  0.16197  0.33710  0.84215  1.0000
  C   C89       1.0  0.15095  0.31839  0.85712  1.0000
  C   C90       1.0  0.15017  0.31944  0.88640  1.0000
  C   C91       1.0  0.16076  0.33893  0.90100  1.0000
  C   C92       1.0  0.17248  0.35724  0.88607  1.0000
  C   C93       1.0  0.17308  0.35629  0.85678  1.0000
  H   H160      1.0  0.14262  0.30337  0.84612  1.0000
  H   H161      1.0  0.14115  0.30515  0.89781  1.0000
  H   H162      1.0  0.18049  0.37247  0.89705  1.0000
  H   H163      1.0  0.18167  0.37084  0.84535  1.0000
  C   C94       1.0  0.14872  0.32916  0.64650  1.0000
  C   C95       1.0  0.14343  0.33297  0.61819  1.0000
  C   C96       1.0  0.16127  0.34194  0.59985  1.0000
  C   C97       1.0  0.18464  0.34728  0.60968  1.0000
  C   C98       1.0  0.19008  0.34307  0.63790  1.0000
  C   C99       1.0  0.17225  0.33403  0.65624  1.0000
  H   H164      1.0  0.12530  0.32924  0.61043  1.0000
  H   H165      1.0  0.15680  0.34507  0.57822  1.0000
  H   H166      1.0  0.20808  0.34722  0.64575  1.0000
  H   H167      1.0  0.17658  0.33123  0.67796  1.0000
  C   C100      1.0  0.01874  0.29276  0.76966  1.0000
  C   C101      1.0  0.01566  0.26886  0.75973  1.0000
  H   H168      1.0  0.12923  0.20385  0.63474  1.0000
  H   H169      1.0  0.03151  0.25798  0.75341  1.0000
  H   H170      1.0  0.30727  0.17779  0.93587  1.0000
  C   C102      1.0  0.22075  0.18867  0.77213  1.0000
  C   C103      1.0  0.20809  0.17852  0.74973  1.0000
  C   C104      1.0  0.18614  0.18974  0.74024  1.0000
  C   C105      1.0  0.17686  0.21142  0.75269  1.0000
  C   C106      1.0  0.18993  0.22197  0.77451  1.0000
  C   C107      1.0  0.21160  0.21049  0.78436  1.0000
  H   H171      1.0  0.21479  0.16164  0.74028  1.0000
  H   H172      1.0  0.17610  0.18136  0.72346  1.0000
  H   H173      1.0  0.18297  0.23860  0.78431  1.0000
  H   H174      1.0  0.22121  0.21846  0.80172  1.0000
  C   C108      1.0  0.28804  0.02105  0.76102  1.0000
  H   H175      1.0  0.31606  0.36620  0.56127  1.0000
  C   C109      1.0  0.31110  0.01606  0.74940  1.0000
  S   S39       1.0  0.20398  0.33229  0.99581  1.0000
  H   H176      1.0  0.09985  0.23738  0.64698  1.0000
  C   C110      1.0  0.27876  0.34916  0.56402  1.0000
  H   H177      1.0  0.27512  0.37933  0.60926  1.0000
  H   H178      1.0  0.19951  0.30595  0.94189  1.0000
  H   H179      1.0  0.19409  0.26783  0.70697  1.0000
  H   H180      1.0  0.21920  0.46069  0.97254  1.0000
  C   C111      1.0  0.29634  0.07082  0.63850  1.0000
  C   C112      1.0  0.22407  0.28520  0.86286  1.0000
  C   C113      1.0  0.19128  0.25477  0.68957  1.0000
  H   H181      1.0  0.04747  0.35617  0.87482  1.0000
  H   H182      1.0  0.29687  0.37866  0.63707  1.0000
  H   H183      1.0  0.09857  0.38379  0.86380  1.0000
  H   H184      1.0  0.19663  0.28256  0.91552  1.0000
  H   H185      1.0  0.20793  0.27499  0.94929  1.0000
  C   C114      1.0  0.29927  0.34604  0.61072  1.0000
  C   C115      1.0  0.30245  0.31159  0.57767  1.0000
  N   N8        1.0  0.28468  0.05955  0.66382  1.0000
  H   H186      1.0  0.30510  0.14760  0.90259  1.0000
  H   H187      1.0  0.29654  0.37105  0.53237  1.0000
  H   H188      1.0  0.26941  0.29367  0.88440  1.0000
  H   H189      1.0  0.26345  0.09290  0.67131  1.0000
  H   H190      1.0  0.07632  0.36807  0.90755  1.0000
  H   H191      1.0  0.27049  0.36007  0.63917  1.0000
  H   H192      1.0  0.00908  0.31991  0.66542  1.0000
  Fe  Fe21      1.0  0.32599  0.13144  0.77576  1.0000
  H   H193      1.0  0.26121  0.13252  0.86667  1.0000
  H   H194      1.0  0.31673  0.35382  0.60367  1.0000
  N   N9        1.0  0.28653  0.17710  0.87999  1.0000
  C   C116      1.0  0.28645  0.15262  0.89481  1.0000
  C   C117      1.0  0.30642  0.19239  0.89270  1.0000
  C   C118      1.0  0.29258  0.17349  0.84958  1.0000
  C   C119      1.0  0.26251  0.19077  0.88398  1.0000
  H   H195      1.0  0.26447  0.02985  0.64540  1.0000
  C   C120      1.0  0.30567  0.19551  0.92470  1.0000
  C   C121      1.0  0.31171  0.26780  0.51103  1.0000
  C   C122      1.0  0.23992  0.17939  0.87037  1.0000
  C   C123      1.0  0.19283  0.48131  0.51415  1.0000
  S   S40       1.0  0.27290  0.34913  0.98628  1.0000
  H   H196      1.0  0.18511  0.46580  0.52471  1.0000
  H   H197      1.0  0.23799  0.04572  0.69014  1.0000
  H   H198      1.0  0.26597  0.08460  0.61225  1.0000
  H   H199      1.0  0.19345  0.28433  0.63698  1.0000
  H   H200      1.0  0.25805  0.19262  0.90646  1.0000
  H   H201      1.0  0.26374  0.20985  0.87609  1.0000
  C   C124      1.0  0.26367  0.32170  0.60024  1.0000
  H   H202      1.0  0.17847  0.21116  0.66467  1.0000
  H   H203      1.0  0.24302  0.31608  0.56107  1.0000
  H   H204      1.0  0.31912  0.20798  0.66109  1.0000
  H   H205      1.0  0.25502  0.00476  0.77622  1.0000
  C   C125      1.0  0.28691  0.27388  0.51561  1.0000
  H   H206      1.0  0.29683  0.00586  0.68802  1.0000
  H   H207      1.0  0.29315  0.12450  0.86257  1.0000
  H   H208      1.0  0.27754  0.20807  0.83205  1.0000
  H   H209      1.0  0.24183  0.17756  0.84752  1.0000
  H   H210      1.0  0.28196  0.33500  0.92576  1.0000
  H   H211      1.0  0.23565  0.16148  0.87972  1.0000
  N   N10       1.0  0.08145  0.34947  0.85244  1.0000
  C   C126      1.0  0.09919  0.36406  0.86970  1.0000
  C   C127      1.0  0.09104  0.34903  0.82300  1.0000
  C   C128      1.0  0.08151  0.32369  0.86377  1.0000
  C   C129      1.0  0.05633  0.36145  0.85493  1.0000
  C   C130      1.0  0.09543  0.37441  0.81006  1.0000
  C   C131      1.0  0.06675  0.30459  0.84763  1.0000
  C   C132      1.0  0.03796  0.35659  0.83113  1.0000
  H   H212      1.0  0.11836  0.35785  0.86563  1.0000
  H   H213      1.0  0.07888  0.33918  0.80857  1.0000
  H   H214      1.0  0.10872  0.33849  0.82191  1.0000
  H   H215      1.0  0.10059  0.31629  0.86515  1.0000
  H   H216      1.0  0.07410  0.32343  0.88531  1.0000
  H   H217      1.0  0.05798  0.38177  0.85586  1.0000
  H   H218      1.0  0.07974  0.38730  0.81333  1.0000
  H   H219      1.0  0.11243  0.38250  0.81837  1.0000
  H   H220      1.0  0.09813  0.37231  0.78729  1.0000
  H   H221      1.0  0.04679  0.30845  0.84890  1.0000
  H   H222      1.0  0.06983  0.28636  0.85740  1.0000
  H   H223      1.0  0.07280  0.30252  0.82577  1.0000
  H   H224      1.0  0.01915  0.35629  0.83991  1.0000
  H   H225      1.0  0.04065  0.33908  0.81990  1.0000
  H   H226      1.0  0.03777  0.37191  0.81599  1.0000
  C   C133      1.0  0.27874  0.12992  0.87784  1.0000
  H   H227      1.0  0.10364  0.26672  0.66258  1.0000
  H   H228      1.0  0.31690  0.22626  0.69165  1.0000
  C   C134      1.0  0.16611  0.26020  0.67608  1.0000
  H   H229      1.0  0.29418  0.05718  0.70787  1.0000
  H   H230      1.0  0.13597  0.27340  0.63539  1.0000
  H   H231      1.0  0.29034  0.38757  0.56330  1.0000
  H   H232      1.0  0.14947  0.21589  0.67968  1.0000
  H   H233      1.0  0.28456  0.30227  0.93164  1.0000
  C   C135      1.0  0.18508  0.27368  0.61990  1.0000
  C   C136      1.0  0.13582  0.25334  0.63958  1.0000
  H   H234      1.0  0.32476  0.18448  0.88738  1.0000
  H   H235      1.0  0.25113  0.33636  0.60839  1.0000
  H   H236      1.0  0.26125  0.35889  0.56938  1.0000
  H   H237      1.0  0.26848  0.31001  0.61847  1.0000
  H   H238      1.0  0.31050  0.20809  0.83838  1.0000
  H   H239      1.0  0.24819  0.07087  0.65054  1.0000
  H   H240      1.0  0.11728  0.24022  0.67835  1.0000
  C   C137      1.0  0.21101  0.47639  0.98307  1.0000
  N   N11       1.0  0.16016  0.24470  0.65109  1.0000
  H   H241      1.0  0.27551  0.26133  0.52687  1.0000
  H   H242      1.0  0.28914  0.20583  0.93185  1.0000
  H   H243      1.0  0.15906  0.20042  0.61842  1.0000
  H   H244      1.0  0.30649  0.16334  0.61944  1.0000
  C   C138      1.0  0.30231  0.26950  0.99284  1.0000
  H   H245      1.0  0.17357  0.23758  0.60937  1.0000
  H   H246      1.0  0.27380  0.05234  0.60665  1.0000
  H   H247      1.0  0.27477  0.15362  0.91378  1.0000
  H   H248      1.0  0.25652  0.28819  0.57557  1.0000
  C   C139      1.0  0.27289  0.00119  0.76718  1.0000
  H   H249      1.0  0.32331  0.32766  0.54341  1.0000
  C   C140      1.0  0.30143  0.06432  0.68808  1.0000
  H   H250      1.0  0.02239  0.31644  0.69905  1.0000
  H   H251      1.0  0.30272  0.31648  0.90581  1.0000
  C   C141      1.0  0.28110  0.03256  0.65834  1.0000
  C   C142      1.0  0.28108  0.07068  0.61149  1.0000
  C   C143      1.0  0.20813  0.28922  0.93283  1.0000
  C   C144      1.0  0.26053  0.07282  0.66873  1.0000
  H   H252      1.0  0.22374  0.19166  0.87406  1.0000
  C   C145      1.0  0.27914  0.01563  0.68403  1.0000
  C   C146      1.0  0.99779  0.30648  0.77790  1.0000
  H   H253      1.0  0.20667  0.25719  0.67494  1.0000
  H   H254      1.0  0.19684  0.23804  0.63476  1.0000
  H   H255      1.0  0.16876  0.28377  0.61191  1.0000
  H   H256      1.0  0.26468  0.26024  0.99998  1.0000
  H   H257      1.0  0.27671  0.11413  0.89212  1.0000
  Fe  Fe22      1.0  0.30419  0.12844  0.71710  1.0000
  C   C147      1.0  0.23486  0.29343  0.92395  1.0000
  H   H258      1.0  0.24272  0.27557  0.91657  1.0000
  H   H259      1.0  0.24497  0.29757  0.94342  1.0000
  H   H260      1.0  0.22567  0.32424  0.86191  1.0000
  H   H261      1.0  0.20262  0.31323  0.88388  1.0000
  H   H262      1.0  0.29817  0.19140  0.81004  1.0000
  S   S41       1.0  0.30462  0.13697  0.67062  1.0000
  C   C148      1.0  0.14900  0.20020  0.63842  1.0000
  C   C149      1.0  0.22208  0.31018  0.87798  1.0000
  H   H263      1.0  0.21266  0.33945  0.92100  1.0000
  H   H264      1.0  0.24170  0.33939  0.93690  1.0000
  H   H265      1.0  0.24202  0.28260  0.85237  1.0000
  H   H266      1.0  0.13237  0.24483  0.61890  1.0000
  H   H267      1.0  0.30606  0.21130  0.88413  1.0000
  N   N12       1.0  0.23859  0.31335  0.90281  1.0000
  C   C150      1.0  0.29473  0.19692  0.83200  1.0000
  C   C151      1.0  0.24781  0.30624  0.58050  1.0000
  H   H268      1.0  0.32313  0.03101  0.74494  1.0000
  C   C152      1.0  0.23255  0.33777  0.91631  1.0000
  H   H269      1.0  0.27474  0.33814  0.54509  1.0000
  C   C153      1.0  0.17927  0.24721  0.62867  1.0000
  H   H270      1.0  0.31391  0.06120  0.63323  1.0000
  C   C154      1.0  0.26481  0.31212  0.89309  1.0000
  H   H271      1.0  0.22061  0.26952  0.87676  1.0000
  C   C155      1.0  0.09545  0.36348  0.90150  1.0000
  H   H272      1.0  0.30697  0.29891  0.59514  1.0000
  H   H273      1.0  0.20988  0.28479  0.84628  1.0000
  H   H274      1.0  0.22977  0.36119  0.87877  1.0000
  C   C156      1.0  0.28430  0.31683  0.91561  1.0000
  C   C157      1.0  0.29675  0.36938  0.55540  1.0000
  H   H275      1.0  0.10119  0.34546  0.91032  1.0000
  H   H276      1.0  0.10745  0.37725  0.91135  1.0000
  H   H277      1.0  0.26781  0.32511  0.87569  1.0000
  H   H278      1.0  0.19222  0.23614  0.69874  1.0000
  C   C158      1.0  0.23899  0.36070  0.89926  1.0000
  H   H279      1.0  0.30116  0.09026  0.64266  1.0000
  H   H280      1.0  0.25901  0.36244  0.89649  1.0000
  H   H281      1.0  0.23260  0.37734  0.91073  1.0000
  C   C159      1.0  0.32438  0.15489  0.62254  1.0000
  H   H282      1.0  0.99985  0.32496  0.78567  1.0000
  H   H283      1.0  0.32153  0.32781  0.98207  1.0000
  C   C160      1.0  0.11319  0.24893  0.65813  1.0000
  N   N13       1.0  0.28635  0.33261  0.58771  1.0000
  C   C161      1.0  0.28438  0.36717  0.62458  1.0000
  H   H284      1.0  0.29300  0.07592  0.59384  1.0000
  H   H285      1.0  0.15070  0.18127  0.64678  1.0000
  H   H286      1.0  0.22903  0.07687  0.69598  1.0000
  H   H287      1.0  0.27269  0.02459  0.70337  1.0000
  H   H288      1.0  0.26593  0.00094  0.67944  1.0000
  H   H289      1.0  0.25521  0.06509  0.71360  1.0000
  H   H290      1.0  0.32168  0.20635  0.93130  1.0000
  C   C162      1.0  0.00527  0.32192  0.68797  1.0000
  C   C163      1.0  0.26819  0.29925  0.99539  1.0000
  S   S42       1.0  0.31217  0.23834  0.99429  1.0000
  C   C164      1.0  0.24521  0.06433  0.69364  1.0000
  H   H291      1.0  0.24890  0.30305  0.99837  1.0000
  C   C165      1.0  0.27725  0.27493  0.99644  1.0000
  C   C166      1.0  0.32666  0.31819  0.56346  1.0000
  S   S43       1.0  0.21082  0.33644  0.51003  1.0000
  S   S44       1.0  0.18023  0.38976  0.51391  1.0000
  S   S45       1.0  0.32381  0.24058  0.52594  1.0000
  Fe  Fe23      1.0  0.23313  0.36027  0.99490  1.0000
  C   C167      1.0  0.31829  0.28871  0.98788  1.0000
  C   C168      1.0  0.28401  0.31848  0.99002  1.0000
  C   C169      1.0  0.30912  0.31308  0.98629  1.0000
  S   S46       1.0  0.32707  0.10188  0.74248  1.0000
  H   H292      1.0  0.25782  0.30100  0.51035  1.0000
  Fe  Fe24      1.0  0.19676  0.40277  0.00644  1.0000
  H   H293      1.0  0.32841  0.03458  0.67838  1.0000
  H   H294      1.0  0.26803  0.46667  0.00803  1.0000
  C   C170      1.0  0.32783  0.05404  0.68506  1.0000
  S   S47       1.0  0.16492  0.37683  0.00815  1.0000
  Fe  Fe25      1.0  0.32273  0.85837  0.27368  1.0000
  S   S48       1.0  0.28683  0.87825  0.28116  1.0000
  C   C171      1.0  0.30509  0.68015  0.47708  1.0000
  S   S49       1.0  0.29007  0.89714  0.21611  1.0000
  Fe  Fe26      1.0  0.30371  0.90990  0.25782  1.0000
  C   C172      1.0  0.27777  0.72035  0.10383  1.0000
  Fe  Fe27      1.0  0.27629  0.86384  0.23890  1.0000
  S   S50       1.0  0.24267  0.84368  0.22364  1.0000
  S   S51       1.0  0.31122  0.84206  0.23275  1.0000
  Fe  Fe28      1.0  0.14289  0.70556  0.22256  1.0000
  S   S52       1.0  0.12292  0.74133  0.23260  1.0000
  S   S53       1.0  0.16066  0.70226  0.17932  1.0000
  Fe  Fe29      1.0  0.14091  0.68921  0.28380  1.0000
  S   S54       1.0  0.12147  0.72375  0.29717  1.0000
  S   S55       1.0  0.15235  0.65893  0.31423  1.0000
  Fe  Fe30      1.0  0.09774  0.71863  0.25915  1.0000
  S   S56       1.0  0.05646  0.72827  0.26449  1.0000
  Fe  Fe31      1.0  0.14802  0.74328  0.26956  1.0000
  S   S57       1.0  0.16743  0.77624  0.28817  1.0000
  S   S58       1.0  0.11616  0.68269  0.24674  1.0000
  S   S59       1.0  0.16905  0.70886  0.25865  1.0000
  Fe  Fe32      1.0  0.17664  0.64294  0.47704  1.0000
  S   S60       1.0  0.20436  0.61360  0.46536  1.0000
  S   S61       1.0  0.15223  0.66471  0.44694  1.0000
  Fe  Fe33      1.0  0.18648  0.62439  0.04068  1.0000
  S   S62       1.0  0.22301  0.60488  0.03717  1.0000
  S   S63       1.0  0.16388  0.62326  0.08072  1.0000
  H   H295      1.0  0.27794  0.96972  0.22921  1.0000
  H   H296      1.0  0.23986  0.80608  0.31896  1.0000
  H   H297      1.0  0.28116  0.76314  0.25841  1.0000
  C   C173      1.0  0.26100  0.76101  0.31089  1.0000
  H   H298      1.0  0.31776  0.92339  0.16959  1.0000
  H   H299      1.0  0.30151  0.77827  0.05236  1.0000
  C   C174      1.0  0.31494  0.94030  0.15727  1.0000
  C   C175      1.0  0.30135  0.97930  0.26329  1.0000
  H   H300      1.0  0.22191  0.77119  0.30713  1.0000
  H   H301      1.0  0.18272  0.53328  0.02140  1.0000
  C   C176      1.0  0.28562  0.69370  0.09661  1.0000
  C   C177      1.0  0.16240  0.67906  0.15321  1.0000
  C   C178      1.0  0.17783  0.68257  0.13016  1.0000
  C   C179      1.0  0.17922  0.66526  0.10831  1.0000
  C   C180      1.0  0.16497  0.64427  0.10912  1.0000
  C   C181      1.0  0.14975  0.64060  0.13230  1.0000
  C   C182      1.0  0.14848  0.65786  0.15426  1.0000
  H   H302      1.0  0.18869  0.69890  0.12917  1.0000
  H   H303      1.0  0.19106  0.66832  0.09068  1.0000
  H   H304      1.0  0.13860  0.62446  0.13313  1.0000
  H   H305      1.0  0.13652  0.65491  0.17181  1.0000
  C   C183      1.0  0.15292  0.66142  0.35104  1.0000
  C   C184      1.0  0.14376  0.68220  0.36507  1.0000
  C   C185      1.0  0.14368  0.68291  0.39441  1.0000
  C   C186      1.0  0.15321  0.66314  0.41004  1.0000
  C   C187      1.0  0.16277  0.64257  0.39599  1.0000
  C   C188      1.0  0.16242  0.64167  0.36668  1.0000
  H   H306      1.0  0.13652  0.69760  0.35335  1.0000
  H   H307      1.0  0.13626  0.69892  0.40508  1.0000
  H   H308      1.0  0.16997  0.62714  0.40771  1.0000
  H   H309      1.0  0.16945  0.62547  0.35603  1.0000
  C   C189      1.0  0.02649  0.71597  0.26025  1.0000
  C   C190      1.0  0.02266  0.69128  0.25377  1.0000
  C   C191      1.0  0.00581  0.73135  0.26498  1.0000
  H   H310      1.0  0.03822  0.67916  0.24996  1.0000
  H   H311      1.0  0.00843  0.75047  0.27001  1.0000
  H   H312      1.0  0.23177  0.67469  0.44082  1.0000
  H   H313      1.0  0.30784  0.76481  0.31729  1.0000
  H   H314      1.0  0.31571  0.67933  0.03713  1.0000
  Fe  Fe34      1.0  0.19421  0.59544  0.50592  1.0000
  C   C192      1.0  0.21251  0.52199  0.48700  1.0000
  H   H315      1.0  0.25992  0.71909  0.11462  1.0000
  C   C193      1.0  0.27328  0.71951  0.48855  1.0000
  H   H316      1.0  0.10074  0.72105  0.07468  1.0000
  H   H317      1.0  0.10127  0.64414  0.28937  1.0000
  C   C194      1.0  0.22229  0.82483  0.24224  1.0000
  C   C195      1.0  0.21080  0.80559  0.22813  1.0000
  C   C196      1.0  0.19393  0.79058  0.24182  1.0000
  C   C197      1.0  0.18798  0.79501  0.26969  1.0000
  C   C198      1.0  0.19925  0.81446  0.28373  1.0000
  C   C199      1.0  0.21648  0.82917  0.27019  1.0000
  H   H318      1.0  0.21494  0.80227  0.20642  1.0000
  H   H319      1.0  0.18537  0.77573  0.23073  1.0000
  H   H320      1.0  0.19456  0.81817  0.30521  1.0000
  H   H321      1.0  0.22479  0.84423  0.28111  1.0000
  H   H322      1.0  0.09399  0.64768  0.03152  1.0000
  H   H323      1.0  0.19880  0.70124  0.45576  1.0000
  H   H324      1.0  0.22961  0.70626  0.04809  1.0000
  C   C200      1.0  0.32051  0.96378  0.17375  1.0000
  H   H325      1.0  0.10299  0.63771  0.34806  1.0000
  C   C201      1.0  0.29144  0.77984  0.26362  1.0000
  N   N14       1.0  0.23024  0.67967  0.39605  1.0000
  C   C202      1.0  0.23247  0.65346  0.38587  1.0000
  C   C203      1.0  0.21418  0.69342  0.37558  1.0000
  C   C204      1.0  0.21820  0.67948  0.42438  1.0000
  C   C205      1.0  0.25568  0.68975  0.39796  1.0000
  C   C206      1.0  0.24648  0.63540  0.40507  1.0000
  S   S64       1.0  0.19895  0.65837  0.01926  1.0000
  H   H326      1.0  0.30632  0.96563  0.19027  1.0000
  H   H327      1.0  0.24367  0.72905  0.39532  1.0000
  H   H328      1.0  0.22878  0.55477  0.06764  1.0000
  H   H329      1.0  0.24208  0.65236  0.36550  1.0000
  H   H330      1.0  0.21043  0.71263  0.38212  1.0000
  C   C207      1.0  0.30632  0.75927  0.04574  1.0000
  H   H331      1.0  0.20428  0.66488  0.42547  1.0000
  H   H332      1.0  0.13938  0.72473  0.05801  1.0000
  H   H333      1.0  0.26632  0.68006  0.41452  1.0000
  S   S65       1.0  0.20315  0.66596  0.50094  1.0000
  C   C208      1.0  0.99861  0.68217  0.25250  1.0000
  H   H334      1.0  0.23835  0.63457  0.42608  1.0000
  H   H335      1.0  0.99969  0.67882  0.33038  1.0000
  H   H336      1.0  0.29051  0.72714  0.12011  1.0000
  H   H337      1.0  0.18764  0.70640  0.42166  1.0000
  H   H338      1.0  0.23320  0.98362  0.28092  1.0000
  H   H339      1.0  0.14369  0.70562  0.08880  1.0000
  H   H340      1.0  0.14687  0.68965  0.02734  1.0000
  H   H341      1.0  0.10970  0.68655  0.09362  1.0000
  H   H342      1.0  0.26082  0.73465  0.49326  1.0000
  C   C209      1.0  0.25793  0.71722  0.40494  1.0000
  H   H343      1.0  0.26654  0.68571  0.37882  1.0000
  N   N15       1.0  0.27673  0.73798  0.07972  1.0000
  C   C210      1.0  0.30263  0.74046  0.06920  1.0000
  H   H344      1.0  0.31048  0.79629  0.32316  1.0000
  C   C211      1.0  0.26793  0.76309  0.08936  1.0000
  C   C212      1.0  0.26121  0.72881  0.05606  1.0000
  C   C213      1.0  0.29859  0.72346  0.48794  1.0000
  S   S66       1.0  0.27053  0.65571  0.02613  1.0000
  C   C214      1.0  0.24657  0.76417  0.11036  1.0000
  C   C215      1.0  0.23491  0.72095  0.06288  1.0000
  C   C216      1.0  0.27980  0.67604  0.47915  1.0000
  H   H345      1.0  0.30995  0.72274  0.06097  1.0000
  H   H346      1.0  0.08032  0.64218  0.07518  1.0000
  S   S67       1.0  0.26871  0.64579  0.47649  1.0000
  H   H347      1.0  0.28311  0.77314  0.09959  1.0000
  H   H348      1.0  0.26230  0.77461  0.07129  1.0000
  H   H349      1.0  0.25924  0.74304  0.03967  1.0000
  H   H350      1.0  0.27045  0.71332  0.04493  1.0000
  C   C217      1.0  0.24120  0.53893  0.06279  1.0000
  N   N16       1.0  0.11484  0.67731  0.04962  1.0000
  H   H351      1.0  0.99599  0.66300  0.24770  1.0000
  H   H352      1.0  0.29529  0.94077  0.15130  1.0000
  H   H353      1.0  0.25804  0.72022  0.42780  1.0000
  H   H354      1.0  0.22173  0.73660  0.06064  1.0000
  H   H355      1.0  0.24025  0.78356  0.11289  1.0000
  H   H356      1.0  0.25261  0.75790  0.13126  1.0000
  H   H357      1.0  0.23061  0.75359  0.10361  1.0000
  H   H358      1.0  0.24450  0.69332  0.48541  1.0000
  H   H359      1.0  0.23277  0.71263  0.08360  1.0000
  H   H360      1.0  0.01475  0.65989  0.35562  1.0000
  C   C218      1.0  0.26814  0.82863  0.33457  1.0000
  H   H361      1.0  0.28402  0.68223  0.11554  1.0000
  H   H362      1.0  0.23001  0.74197  0.29312  1.0000
  H   H363      1.0  0.29352  0.79014  0.24390  1.0000
  H   H364      1.0  0.31753  0.66485  0.47296  1.0000
  N   N17       1.0  0.27357  0.78532  0.31300  1.0000
  H   H365      1.0  0.26106  0.84169  0.31867  1.0000
  C   C219      1.0  0.09820  0.69659  0.03678  1.0000
  C   C220      1.0  0.29806  0.78088  0.32680  1.0000
  H   H366      1.0  0.31014  0.77487  0.27094  1.0000
  H   H367      1.0  0.29223  0.79354  0.36994  1.0000
  C   C221      1.0  0.25766  0.80284  0.32963  1.0000
  H   H368      1.0  0.07739  0.66085  0.10548  1.0000
  C   C222      1.0  0.23636  0.76111  0.29528  1.0000
  H   H369      1.0  0.23764  0.76857  0.27395  1.0000
  C   C223      1.0  0.11320  0.65395  0.03270  1.0000
  H   H370      1.0  0.07381  0.63340  0.30381  1.0000
  H   H371      1.0  0.06759  0.67310  0.07276  1.0000
  H   H372      1.0  0.31689  0.97901  0.15892  1.0000
  C   C224      1.0  0.20468  0.70323  0.43383  1.0000
  H   H373      1.0  0.27312  0.74692  0.30081  1.0000
  H   H374      1.0  0.28837  0.82907  0.33410  1.0000
  H   H375      1.0  0.29629  0.75445  0.02651  1.0000
  H   H376      1.0  0.07335  0.72348  0.32265  1.0000
  Fe  Fe35      1.0  0.23036  0.63613  0.49106  1.0000
  C   C225      1.0  0.27767  0.79637  0.28474  1.0000
  H   H377      1.0  0.31623  0.77129  0.36561  1.0000
  H   H378      1.0  0.27549  0.72386  0.39643  1.0000
  H   H379      1.0  0.22023  0.53748  0.47640  1.0000
  H   H380      1.0  0.07221  0.65435  0.27523  1.0000
  C   C226      1.0  0.30833  0.68720  0.01822  1.0000
  H   H381      1.0  0.06788  0.73527  0.35662  1.0000
  H   H382      1.0  0.04289  0.72373  0.33707  1.0000
  H   H383      1.0  0.26615  0.63976  0.40681  1.0000
  H   H384      1.0  0.08922  0.62705  0.37922  1.0000
  H   H385      1.0  0.28832  0.81351  0.28652  1.0000
  H   H386      1.0  0.22319  0.67653  0.33493  1.0000
  H   H387      1.0  0.12054  0.65668  0.08735  1.0000
  H   H388      1.0  0.01746  0.69300  0.35691  1.0000
  H   H389      1.0  0.25901  0.54268  0.07272  1.0000
  C   C227      1.0  0.31451  0.70377  0.48158  1.0000
  C   C228      1.0  0.28704  0.98449  0.23984  1.0000
  H   H390      1.0  0.27364  0.68546  0.08063  1.0000
  H   H391      1.0  0.25717  0.75366  0.33193  1.0000
  H   H392      1.0  0.19579  0.68504  0.37474  1.0000
  H   H393      1.0  0.09895  0.65799  0.37776  1.0000
  S   S68       1.0  0.30590  0.94894  0.27613  1.0000
  H   H394      1.0  0.25226  0.79490  0.34996  1.0000
  H   H395      1.0  0.30498  0.69218  0.08985  1.0000
  H   H396      1.0  0.26263  0.83547  0.35549  1.0000
  H   H397      1.0  0.26010  0.80236  0.27506  1.0000
  N   N18       1.0  0.06344  0.67326  0.33691  1.0000
  C   C229      1.0  0.06788  0.69538  0.35506  1.0000
  C   C230      1.0  0.06480  0.65071  0.35498  1.0000
  C   C231      1.0  0.03870  0.67481  0.32320  1.0000
  C   C232      1.0  0.08256  0.67234  0.31435  1.0000
  C   C233      1.0  0.06257  0.72067  0.34177  1.0000
  C   C234      1.0  0.09058  0.64321  0.36537  1.0000
  C   C235      1.0  0.01660  0.67676  0.34306  1.0000
  C   C236      1.0  0.08217  0.64978  0.29474  1.0000
  H   H398      1.0  0.05693  0.69470  0.37455  1.0000
  H   H399      1.0  0.08731  0.69554  0.36206  1.0000
  H   H400      1.0  0.05686  0.63455  0.34440  1.0000
  H   H401      1.0  0.05329  0.65331  0.37392  1.0000
  H   H402      1.0  0.03761  0.69064  0.30877  1.0000
  H   H403      1.0  0.03573  0.65849  0.30972  1.0000
  H   H404      1.0  0.08051  0.68856  0.30055  1.0000
  H   H405      1.0  0.10134  0.67410  0.32296  1.0000
  C   C237      1.0  0.08169  0.66131  0.08290  1.0000
  C   C238      1.0  0.26395  0.69599  0.48419  1.0000
  H   H406      1.0  0.24555  0.61663  0.39611  1.0000
  C   C239      1.0  0.29750  0.77652  0.35847  1.0000
  C   C240      1.0  0.22376  0.69465  0.34547  1.0000
  H   H407      1.0  0.24241  0.70218  0.34433  1.0000
  C   C241      1.0  0.08982  0.71829  0.05567  1.0000
  S   S69       1.0  0.30893  0.75262  0.49840  1.0000
  H   H408      1.0  0.24331  0.53865  0.03982  1.0000
  H   H409      1.0  0.21400  0.64577  0.38224  1.0000
  H   H410      1.0  0.21617  0.71960  0.43288  1.0000
  C   C242      1.0  0.22948  0.51531  0.07382  1.0000
  C   C243      1.0  0.10780  0.67099  0.07904  1.0000
  H   H411      1.0  0.21144  0.70706  0.33331  1.0000
  H   H412      1.0  0.31516  0.74564  0.08648  1.0000
  H   H413      1.0  0.27814  0.50807  0.08445  1.0000
  Fe  Fe36      1.0  0.32562  0.87571  0.21259  1.0000
  H   H414      1.0  0.12380  0.63870  0.04281  1.0000
  C   C244      1.0  0.14116  0.68512  0.04890  1.0000
  H   H415      1.0  0.07029  0.71646  0.06160  1.0000
  H   H416      1.0  0.21153  0.51378  0.06308  1.0000
  H   H417      1.0  0.22495  0.51897  0.09603  1.0000
  H   H418      1.0  0.09072  0.73562  0.04368  1.0000
  H   H419      1.0  0.16801  0.71004  0.06511  1.0000
  H   H420      1.0  0.15344  0.66972  0.05556  1.0000
  C   C245      1.0  0.14789  0.70769  0.06641  1.0000
  H   H421      1.0  0.28518  0.76153  0.36430  1.0000
  Fe  Fe37      1.0  0.23474  0.63811  0.01313  1.0000
  H   H422      1.0  0.26952  0.50205  0.03765  1.0000
  H   H423      1.0  0.08112  0.68802  0.02908  1.0000
  H   H424      1.0  0.10695  0.70448  0.01799  1.0000
  C   C246      1.0  0.19059  0.51758  0.01056  1.0000
  H   H425      1.0  0.32605  0.75916  0.04012  1.0000
  C   C247      1.0  0.22004  0.49783  0.47974  1.0000
  H   H426      1.0  0.23912  0.49752  0.02660  1.0000
  H   H427      1.0  0.25970  0.49855  0.11177  1.0000
  H   H428      1.0  0.32329  0.99518  0.29568  1.0000
  C   C248      1.0  0.19492  0.52598  0.50777  1.0000
  H   H429      1.0  0.32547  0.93926  0.13758  1.0000
  H   H430      1.0  0.25666  0.65904  0.60113  1.0000
  S   S70       1.0  0.28816  0.88535  0.78958  1.0000
  Fe  Fe38      1.0  0.30550  0.85147  0.71968  1.0000
  S   S71       1.0  0.27526  0.88009  0.72269  1.0000
  Fe  Fe39      1.0  0.30109  0.90202  0.74928  1.0000
  H   H431      1.0  0.28888  0.71642  0.87619  1.0000
  Fe  Fe40      1.0  0.26491  0.86094  0.76245  1.0000
  S   S72       1.0  0.22523  0.85121  0.77155  1.0000
  S   S73       1.0  0.29364  0.83143  0.75810  1.0000
  Fe  Fe41      1.0  0.12442  0.68295  0.72504  1.0000
  S   S74       1.0  0.11771  0.72360  0.72914  1.0000
  S   S75       1.0  0.12020  0.66312  0.68326  1.0000
  Fe  Fe42      1.0  0.12973  0.67692  0.78904  1.0000
  S   S76       1.0  0.12282  0.71705  0.79705  1.0000
  S   S77       1.0  0.14086  0.64815  0.82129  1.0000
  Fe  Fe43      1.0  0.09263  0.71373  0.76481  1.0000
  S   S78       1.0  0.05438  0.73200  0.76819  1.0000
  Fe  Fe44      1.0  0.14827  0.72318  0.76081  1.0000
  S   S79       1.0  0.18525  0.74226  0.76178  1.0000
  S   S80       1.0  0.09808  0.67316  0.75924  1.0000
  S   S81       1.0  0.15635  0.68285  0.75422  1.0000
  Fe  Fe45      1.0  0.18739  0.64014  0.97917  1.0000
  S   S82       1.0  0.22423  0.62196  0.97181  1.0000
  S   S83       1.0  0.16719  0.66609  0.94915  1.0000
  H   H432      1.0  0.14239  0.65636  0.00135  1.0000
  H   H433      1.0  0.15785  0.55187  0.62251  1.0000
  S   S84       1.0  0.19493  0.66313  0.58122  1.0000
  H   H434      1.0  0.26857  0.96175  0.76642  1.0000
  H   H435      1.0  0.08563  0.69679  0.64799  1.0000
  H   H436      1.0  0.07756  0.69293  0.69632  1.0000
  H   H437      1.0  0.20939  0.65314  0.82140  1.0000
  H   H438      1.0  0.20174  0.80104  0.71199  1.0000
  H   H439      1.0  0.19657  0.87382  0.69359  1.0000
  H   H440      1.0  0.23352  0.73866  0.56238  1.0000
  C   C249      1.0  0.30342  0.97177  0.74960  1.0000
  C   C250      1.0  0.27514  0.69511  0.60263  1.0000
  H   H441      1.0  0.21987  0.61715  0.63030  1.0000
  H   H442      1.0  0.29253  0.69161  0.53392  1.0000
  C   C251      1.0  0.14081  0.66424  0.65478  1.0000
  C   C252      1.0  0.16386  0.67465  0.65723  1.0000
  C   C253      1.0  0.18004  0.67439  0.63439  1.0000
  C   C254      1.0  0.17334  0.66386  0.60882  1.0000
  C   C255      1.0  0.15010  0.65386  0.60619  1.0000
  C   C256      1.0  0.13401  0.65386  0.62914  1.0000
  H   H443      1.0  0.16933  0.68268  0.67682  1.0000
  H   H444      1.0  0.19788  0.68231  0.63667  1.0000
  H   H445      1.0  0.14454  0.64619  0.58648  1.0000
  H   H446      1.0  0.11622  0.64576  0.62702  1.0000
  C   C257      1.0  0.14671  0.65306  0.85723  1.0000
  C   C258      1.0  0.14126  0.67548  0.87036  1.0000
  C   C259      1.0  0.14719  0.67891  0.89866  1.0000
  C   C260      1.0  0.15882  0.66014  0.91409  1.0000
  C   C261      1.0  0.16406  0.63766  0.90105  1.0000
  C   C262      1.0  0.15791  0.63413  0.87282  1.0000
  H   H447      1.0  0.13252  0.69014  0.85872  1.0000
  H   H448      1.0  0.14294  0.69632  0.90859  1.0000
  H   H449      1.0  0.17294  0.62302  0.91264  1.0000
  H   H450      1.0  0.16214  0.61670  0.86292  1.0000
  C   C263      1.0  0.02498  0.71850  0.76513  1.0000
  H   H451      1.0  0.14786  0.57515  0.65938  1.0000
  C   C264      1.0  0.02202  0.69307  0.76483  1.0000
  C   C265      1.0  0.12219  0.65525  0.00234  1.0000
  H   H452      1.0  0.03783  0.68104  0.76745  1.0000
  C   C266      1.0  0.28052  0.97672  0.76164  1.0000
  H   H453      1.0  0.27215  0.71174  0.61583  1.0000
  H   H454      1.0  0.17786  0.68614  0.82714  1.0000
  H   H455      1.0  0.17761  0.80993  0.68826  1.0000
  S   S85       1.0  0.21847  0.55087  0.98065  1.0000
  H   H456      1.0  0.00145  0.69046  0.84037  1.0000
  N   N19       1.0  0.18460  0.58002  0.61365  1.0000
  H   H457      1.0  0.31259  0.86652  0.85343  1.0000
  C   C267      1.0  0.29871  0.75303  0.88950  1.0000
  C   C268      1.0  0.21411  0.82079  0.77046  1.0000
  C   C269      1.0  0.23006  0.80044  0.76893  1.0000
  C   C270      1.0  0.22078  0.77666  0.76639  1.0000
  C   C271      1.0  0.19542  0.77278  0.76583  1.0000
  C   C272      1.0  0.17937  0.79303  0.76805  1.0000
  C   C273      1.0  0.18871  0.81693  0.77031  1.0000
  H   H458      1.0  0.24958  0.80304  0.76946  1.0000
  H   H459      1.0  0.23337  0.76117  0.76461  1.0000
  H   H460      1.0  0.15981  0.79034  0.76773  1.0000
  H   H461      1.0  0.17618  0.83253  0.77166  1.0000
  H   H462      1.0  0.03975  0.71250  0.64261  1.0000
  H   H463      1.0  0.24321  0.77835  0.70429  1.0000
  H   H464      1.0  0.26722  0.79261  0.72300  1.0000
  H   H465      1.0  0.22627  0.81175  0.61223  1.0000
  H   H466      1.0  0.27100  0.78776  0.68686  1.0000
  H   H467      1.0  0.22210  0.86276  0.71305  1.0000
  S   S86       1.0  0.31409  0.94138  0.74160  1.0000
  H   H468      1.0  0.31022  0.72955  0.85369  1.0000
  H   H469      1.0  0.28075  0.80394  0.84664  1.0000
  C   C274      1.0  0.17495  0.59000  0.58646  1.0000
  C   C275      1.0  0.28629  0.67837  0.00735  1.0000
  H   H470      1.0  0.23156  0.72245  0.59506  1.0000
  C   C276      1.0  0.28817  0.78613  0.83877  1.0000
  H   H471      1.0  0.26009  0.68182  0.97418  1.0000
  H   H472      1.0  0.13660  0.60313  0.58502  1.0000
  H   H473      1.0  0.29499  0.64825  0.53701  1.0000
  H   H474      1.0  0.28407  0.79935  0.89278  1.0000
  H   H475      1.0  0.31560  0.87133  0.90492  1.0000
  C   C277      1.0  0.18416  0.53555  0.59493  1.0000
  H   H476      1.0  0.17797  0.61006  0.58511  1.0000
  H   H477      1.0  0.14595  0.60747  0.66419  1.0000
  C   C278      1.0  0.28318  0.72717  0.56816  1.0000
  H   H478      1.0  0.27887  0.75707  0.88627  1.0000
  H   H479      1.0  0.28273  0.71456  0.94984  1.0000
  C   C279      1.0  0.15001  0.59289  0.64851  1.0000
  C   C280      1.0  0.99858  0.68316  0.76096  1.0000
  H   H480      1.0  0.31273  0.81362  0.88900  1.0000
  C   C281      1.0  0.17769  0.55374  0.61862  1.0000
  S   S87       1.0  0.16432  0.62361  0.51602  1.0000
  H   H481      1.0  0.17720  0.51717  0.60031  1.0000
  H   H482      1.0  0.18845  0.59277  0.65617  1.0000
  C   C282      1.0  0.22377  0.60604  0.61138  1.0000
  H   H483      1.0  0.00587  0.72452  0.66398  1.0000
  C   C283      1.0  0.30684  0.79716  0.92883  1.0000
  C   C284      1.0  0.06236  0.72872  0.68859  1.0000
  C   C285      1.0  0.05885  0.70138  0.69593  1.0000
  H   H484      1.0  0.29935  0.81489  0.93699  1.0000
  C   C286      1.0  0.30401  0.79681  0.89686  1.0000
  H   H485      1.0  0.06327  0.73953  0.70819  1.0000
  H   H486      1.0  0.04769  0.73740  0.67607  1.0000
  H   H487      1.0  0.08031  0.73127  0.67828  1.0000
  C   C287      1.0  0.21772  0.68867  0.89875  1.0000
  H   H488      1.0  0.18869  0.77862  0.69090  1.0000
  H   H489      1.0  0.23041  0.50295  0.95864  1.0000
  H   H490      1.0  0.17198  0.75581  0.85196  1.0000
  H   H491      1.0  0.23571  0.69760  0.89987  1.0000
  H   H492      1.0  0.22912  0.67389  0.80252  1.0000
  N   N20       1.0  0.23140  0.82194  0.67183  1.0000
  C   C288      1.0  0.24974  0.82049  0.64830  1.0000
  C   C289      1.0  0.24558  0.81844  0.69847  1.0000
  C   C290      1.0  0.21935  0.84717  0.67107  1.0000
  C   C291      1.0  0.21284  0.80223  0.66738  1.0000
  C   C292      1.0  0.23959  0.82565  0.61888  1.0000
  C   C293      1.0  0.25723  0.79270  0.70292  1.0000
  C   C294      1.0  0.20773  0.85707  0.69822  1.0000
  C   C295      1.0  0.19424  0.79811  0.69098  1.0000
  H   H493      1.0  0.26473  0.83373  0.65182  1.0000
  H   H494      1.0  0.25885  0.80211  0.64713  1.0000
  H   H495      1.0  0.23421  0.82222  0.71703  1.0000
  H   H496      1.0  0.26033  0.83211  0.69996  1.0000
  H   H497      1.0  0.23290  0.86123  0.66502  1.0000
  H   H498      1.0  0.20161  0.80624  0.64860  1.0000
  H   H499      1.0  0.22189  0.78424  0.66240  1.0000
  H   H500      1.0  0.23135  0.84433  0.61706  1.0000
  H   H501      1.0  0.20417  0.53326  0.59179  1.0000
  H   H502      1.0  0.05229  0.70059  0.71776  1.0000
  C   C296      1.0  0.32502  0.92820  0.84195  1.0000
  C   C297      1.0  0.18512  0.50545  0.52121  1.0000
  H   H503      1.0  0.20480  0.84799  0.65488  1.0000
  H   H504      1.0  0.19557  0.84398  0.70851  1.0000
  H   H505      1.0  0.07223  0.69846  0.61410  1.0000
  H   H506      1.0  0.18651  0.54673  0.63800  1.0000
  H   H507      1.0  0.32130  0.76457  0.83853  1.0000
  H   H508      1.0  0.03244  0.68230  0.63390  1.0000
  C   C298      1.0  0.04922  0.65983  0.67987  1.0000
  C   C299      1.0  0.07112  0.68921  0.63458  1.0000
  H   H509      1.0  0.25504  0.82463  0.60383  1.0000
  H   H510      1.0  0.30924  0.68355  0.56406  1.0000
  H   H511      1.0  0.31121  0.79797  0.63150  1.0000
  H   H512      1.0  0.28487  0.64737  0.57197  1.0000
  C   C300      1.0  0.28259  0.65756  0.55226  1.0000
  H   H513      1.0  0.24224  0.71892  0.86135  1.0000
  H   H514      1.0  0.23576  0.74851  0.82728  1.0000
  C   C301      1.0  0.19316  0.72238  0.86016  1.0000
  C   C302      1.0  0.04520  0.69323  0.64684  1.0000
  C   C303      1.0  0.31359  0.77992  0.85113  1.0000
  H   H515      1.0  0.17138  0.50820  0.53716  1.0000
  H   H516      1.0  0.13610  0.59502  0.63203  1.0000
  C   C304      1.0  0.21226  0.58044  0.61256  1.0000
  H   H517      1.0  0.11745  0.63804  0.99132  1.0000
  H   H518      1.0  0.21911  0.67174  0.91154  1.0000
  H   H519      1.0  0.19304  0.67181  0.87016  1.0000
  N   N21       1.0  0.04246  0.68674  0.67713  1.0000
  H   H520      1.0  0.32239  0.72273  0.55814  1.0000
  H   H521      1.0  0.32624  0.79614  0.93547  1.0000
  C   C305      1.0  0.23455  0.71047  0.84229  1.0000
  C   C306      1.0  0.23803  0.72952  0.81910  1.0000
  H   H522      1.0  0.24736  0.69473  0.83807  1.0000
  H   H523      1.0  0.16670  0.73217  0.82730  1.0000
  H   H524      1.0  0.25679  0.72736  0.81037  1.0000
  Fe  Fe46      1.0  0.19347  0.64415  0.53872  1.0000
  H   H525      1.0  0.20373  0.73316  0.87557  1.0000
  H   H526      1.0  0.22585  0.72710  0.80105  1.0000
  C   C307      1.0  0.31171  0.71613  0.98018  1.0000
  H   H527      1.0  0.26389  0.65568  0.54372  1.0000
  Fe  Fe47      1.0  0.31761  0.85664  0.78239  1.0000
  H   H528      1.0  0.07519  0.66945  0.63082  1.0000
  H   H529      1.0  0.31787  0.90933  0.84414  1.0000
  C   C308      1.0  0.23034  0.72059  0.57216  1.0000
  C   C309      1.0  0.18117  0.74088  0.83984  1.0000
  H   H530      1.0  0.19430  0.74962  0.82578  1.0000
  H   H531      1.0  0.21130  0.71544  0.56692  1.0000
  H   H532      1.0  0.06882  0.65644  0.67460  1.0000
  H   H533      1.0  0.05427  0.65939  0.72555  1.0000
  N   N22       1.0  0.20891  0.70198  0.84779  1.0000
  C   C310      1.0  0.00491  0.71602  0.68479  1.0000
  C   C311      1.0  0.21068  0.68141  0.86874  1.0000
  H   H534      1.0  0.22429  0.66707  0.86210  1.0000
  H   H535      1.0  0.19413  0.70586  0.80576  1.0000
  H   H536      1.0  0.17758  0.71458  0.87193  1.0000
  H   H537      1.0  0.20342  0.70044  0.90879  1.0000
  C   C312      1.0  0.04577  0.64841  0.70891  1.0000
  H   H538      1.0  0.29379  0.68819  0.60832  1.0000
  C   C313      1.0  0.21736  0.50043  0.97525  1.0000
  C   C314      1.0  0.19679  0.69186  0.82212  1.0000
  H   H539      1.0  0.03862  0.64860  0.66485  1.0000
  H   H540      1.0  0.02617  0.64557  0.71374  1.0000
  C   C315      1.0  0.17636  0.59598  0.63780  1.0000
  C   C316      1.0  0.21000  0.66977  0.80822  1.0000
  H   H541      1.0  0.27493  0.77139  0.84243  1.0000
  H   H542      1.0  0.20024  0.66515  0.78869  1.0000
  H   H543      1.0  0.05489  0.63001  0.70926  1.0000
  H   H544      1.0  0.23988  0.68285  0.56380  1.0000
  H   H545      1.0  0.24859  0.70314  0.53760  1.0000
  H   H546      1.0  0.26151  0.67121  0.63510  1.0000
  H   H547      1.0  0.27286  0.74052  0.58152  1.0000
  H   H548      1.0  0.28006  0.73344  0.54639  1.0000
  C   C317      1.0  0.29040  0.68440  0.55528  1.0000
  H   H549      1.0  0.23784  0.68397  0.61391  1.0000
  H   H550      1.0  0.28780  0.94070  0.83347  1.0000
  N   N23       1.0  0.31429  0.77447  0.88188  1.0000
  N   N24       1.0  0.27398  0.70146  0.57207  1.0000
  C   C318      1.0  0.24833  0.70089  0.56054  1.0000
  C   C319      1.0  0.27704  0.68846  0.98272  1.0000
  C   C320      1.0  0.25673  0.67620  0.61337  1.0000
  H   H551      1.0  0.13926  0.57049  0.58981  1.0000
  H   H552      1.0  0.01308  0.68370  0.70709  1.0000
  H   H553      1.0  0.00599  0.75349  0.76287  1.0000
  H   H554      1.0  0.24398  0.60376  0.60993  1.0000
  H   H555      1.0  0.29981  0.74956  0.91222  1.0000
  H   H556      1.0  0.30528  0.93665  0.80267  1.0000
  H   H557      1.0  0.29001  0.78821  0.81588  1.0000
  H   H558      1.0  0.22039  0.57088  0.63093  1.0000
  H   H559      1.0  0.21937  0.57035  0.59397  1.0000
  C   C321      1.0  0.31052  0.73093  0.57464  1.0000
  C   C322      1.0  0.00400  0.73379  0.76245  1.0000
  C   C323      1.0  0.20755  0.52119  0.98925  1.0000
  H   H560      1.0  0.17534  0.54096  0.57508  1.0000
  H   H561      1.0  0.17810  0.61572  0.63262  1.0000
  H   H562      1.0  0.29651  0.78243  0.93904  1.0000
  H   H563      1.0  0.21783  0.61631  0.59270  1.0000
  H   H564      1.0  0.31582  0.72352  0.59525  1.0000
  H   H565      1.0  0.18570  0.58250  0.56858  1.0000
  C   C324      1.0  0.32377  0.81285  0.62894  1.0000
  H   H566      1.0  0.14556  0.58296  0.55708  1.0000
  H   H567      1.0  0.30994  0.96296  0.82530  1.0000
  Fe  Fe48      1.0  0.20935  0.59001  0.99639  1.0000
  C   C325      1.0  0.28985  0.70708  0.96905  1.0000
  C   C326      1.0  0.14758  0.58641  0.57976  1.0000
  S   S88       1.0  0.17176  0.60749  0.00116  1.0000
  C   C327      1.0  0.01594  0.68984  0.68544  1.0000
  C   C328      1.0  0.30524  0.72815  0.87587  1.0000
  S   S89       1.0  0.18430  0.55600  0.51768  1.0000
  H   H568      1.0  0.32397  0.93668  0.86298  1.0000
  H   H569      1.0  0.11365  0.67066  0.99064  1.0000
  H   H570      1.0  0.00417  0.67804  0.67226  1.0000
  S   S90       1.0  0.30961  0.82625  0.68171  1.0000
  S   S91       1.0  0.22279  0.61544  0.53048  1.0000
  C   C329      1.0  0.30634  0.94303  0.82448  1.0000
  S   S92       1.0  0.32748  0.73909  0.96189  1.0000
  H   H571      1.0  0.99666  0.66346  0.76031  1.0000
  H   H572      1.0  0.32021  0.71864  0.88753  1.0000
  C   C330      1.0  0.31865  0.99162  0.74361  1.0000
  C   C331      1.0  0.32086  0.70616  0.00489  1.0000
  H   H573      1.0  0.01338  0.72782  0.70081  1.0000
  H   H574      1.0  0.31420  0.75090  0.57474  1.0000
  C   C332      1.0  0.32665  0.82995  0.65064  1.0000
  C   C333      1.0  0.32748  0.85776  0.86467  1.0000
  H   H575      1.0  0.32558  0.79568  0.84644  1.0000
  Fe  Fe49      1.0  0.37124  0.17590  0.02837  1.0000
  S   S93       1.0  0.37829  0.21639  0.02786  1.0000
  S   S94       1.0  0.36297  0.15078  0.06505  1.0000
  Fe  Fe50      1.0  0.37378  0.17590  0.47821  1.0000
  S   S95       1.0  0.38082  0.21635  0.47613  1.0000
  S   S96       1.0  0.35318  0.15454  0.44481  1.0000
  S   S97       1.0  0.64748  0.14405  0.19436  1.0000
  H   H576      1.0  0.54501  0.16534  0.08136  1.0000
  H   H577      1.0  0.38679  0.12865  0.26209  1.0000
  H   H578      1.0  0.57346  0.21833  0.39954  1.0000
  C   C334      1.0  0.57121  0.12532  0.14629  1.0000
  H   H579      1.0  0.51403  0.10219  0.09258  1.0000
  Fe  Fe51      1.0  0.63831  0.17553  0.03346  1.0000
  S   S98       1.0  0.61843  0.20922  0.04831  1.0000
  C   C335      1.0  0.58693  0.21605  0.41640  1.0000
  Fe  Fe52      1.0  0.64756  0.20694  0.46876  1.0000
  S   S99       1.0  0.61713  0.23422  0.47813  1.0000
  C   C336      1.0  0.34424  0.13893  0.11613  1.0000
  Fe  Fe53      1.0  0.41367  0.20757  0.50371  1.0000
  H   H580      1.0  0.36406  0.19558  0.09913  1.0000
  S   S100      1.0  0.40788  0.16678  0.50336  1.0000
  H   H581      1.0  0.55643  0.11179  0.14625  1.0000
  C   C337      1.0  0.48822  0.19118  0.49449  1.0000
  C   C338      1.0  0.55637  0.15965  0.09954  1.0000
  H   H582      1.0  0.38099  0.19568  0.27962  1.0000
  H   H583      1.0  0.54074  0.15336  0.41653  1.0000
  C   C339      1.0  0.58886  0.14505  0.42017  1.0000
  C   C340      1.0  0.35398  0.15769  0.09975  1.0000
  H   H584      1.0  0.61357  0.10885  0.07438  1.0000
  C   C341      1.0  0.63881  0.16400  0.14279  1.0000
  Fe  Fe54      1.0  0.60122  0.20513  0.50547  1.0000
  C   C342      1.0  0.47590  0.19369  0.01569  1.0000
  C   C343      1.0  0.35628  0.18109  0.11138  1.0000
  H   H585      1.0  0.40791  0.16084  0.29089  1.0000
  C   C344      1.0  0.33635  0.14354  0.14361  1.0000
  C   C345      1.0  0.35436  0.15394  0.40782  1.0000
  C   C346      1.0  0.37300  0.16498  0.39269  1.0000
  C   C347      1.0  0.37355  0.16300  0.36339  1.0000
  C   C348      1.0  0.52562  0.22478  0.50409  1.0000
  H   H586      1.0  0.40658  0.15824  0.19004  1.0000
  H   H587      1.0  0.38730  0.17449  0.40359  1.0000
  H   H588      1.0  0.38839  0.17106  0.35196  1.0000
  H   H589      1.0  0.56438  0.18742  0.37538  1.0000
  S   S101      1.0  0.54940  0.19242  0.03149  1.0000
  H   H590      1.0  0.60033  0.13809  0.12078  1.0000
  C   C349      1.0  0.53477  0.19237  0.42160  1.0000
  H   H591      1.0  0.56423  0.14355  0.15329  1.0000
  H   H592      1.0  0.51431  0.13473  0.08910  1.0000
  C   C350      1.0  0.50077  0.23259  0.50373  1.0000
  C   C351      1.0  0.51305  0.18339  0.49482  1.0000
  H   H593      1.0  0.56536  0.15549  0.37359  1.0000
  H   H594      1.0  0.34283  0.23617  0.39800  1.0000
  H   H595      1.0  0.57586  0.14675  0.05132  1.0000
  H   H596      1.0  0.58808  0.18993  0.44985  1.0000
  Fe  Fe55      1.0  0.58872  0.20029  0.01758  1.0000
  H   H597      1.0  0.58567  0.17706  0.12406  1.0000
  H   H598      1.0  0.61033  0.11993  0.03995  1.0000
  H   H599      1.0  0.60452  0.22365  0.40910  1.0000
  H   H600      1.0  0.51617  0.18874  0.42978  1.0000
  N   N25       1.0  0.57650  0.16948  0.41374  1.0000
  H   H601      1.0  0.59184  0.10768  0.11399  1.0000
  C   C352      1.0  0.64067  0.16522  0.11358  1.0000
  H   H602      1.0  0.58478  0.11913  0.16216  1.0000
  H   H603      1.0  0.49615  0.25174  0.50727  1.0000
  C   C353      1.0  0.65449  0.14750  0.09902  1.0000
  C   C354      1.0  0.52001  0.20138  0.01845  1.0000
  H   H604      1.0  0.60853  0.14514  0.41415  1.0000
  H   H605      1.0  0.60058  0.15207  0.07437  1.0000
  H   H606      1.0  0.40762  0.18993  0.17913  1.0000
  C   C355      1.0  0.59984  0.11542  0.05898  1.0000
  C   C356      1.0  0.35524  0.21389  0.23858  1.0000
  C   C357      1.0  0.35527  0.15041  0.34884  1.0000
  H   H607      1.0  0.58046  0.22801  0.43378  1.0000
  H   H608      1.0  0.57009  0.12953  0.45645  1.0000
  H   H609      1.0  0.58741  0.10041  0.05334  1.0000
  H   H610      1.0  0.43521  0.17249  0.18388  1.0000
  C   C358      1.0  0.33625  0.14001  0.36394  1.0000
  H   H611      1.0  0.53984  0.23788  0.50796  1.0000
  C   C359      1.0  0.41579  0.17892  0.28623  1.0000
  H   H612      1.0  0.43451  0.17682  0.27765  1.0000
  C   C360      1.0  0.39517  0.13826  0.24422  1.0000
  H   H613      1.0  0.54330  0.15840  0.11710  1.0000
  H   H614      1.0  0.54718  0.11682  0.06232  1.0000
  C   C361      1.0  0.49962  0.18720  0.02524  1.0000
  C   C362      1.0  0.65986  0.15897  0.40617  1.0000
  H   H615      1.0  0.42761  0.20201  0.22326  1.0000
  H   H616      1.0  0.55123  0.16623  0.44829  1.0000
  H   H617      1.0  0.34406  0.22525  0.22402  1.0000
  H   H618      1.0  0.58065  0.13000  0.40773  1.0000
  H   H619      1.0  0.59718  0.17568  0.34500  1.0000
  C   C363      1.0  0.57311  0.18123  0.10656  1.0000
  C   C364      1.0  0.58416  0.12642  0.11796  1.0000
  H   H620      1.0  0.53241  0.19778  0.39961  1.0000
  C   C365      1.0  0.60025  0.17239  0.36752  1.0000
  S   S102      1.0  0.65802  0.26174  0.02812  1.0000
  C   C366      1.0  0.52453  0.11877  0.09801  1.0000
  C   C367      1.0  0.37903  0.20540  0.22382  1.0000
  H   H621      1.0  0.34395  0.19825  0.24464  1.0000
  C   C368      1.0  0.55044  0.11637  0.08523  1.0000
  C   C369      1.0  0.41648  0.17567  0.19234  1.0000
  C   C370      1.0  0.55087  0.16909  0.42543  1.0000
  H   H622      1.0  0.61070  0.15480  0.36910  1.0000
  C   C371      1.0  0.65126  0.14548  0.15779  1.0000
  H   H623      1.0  0.41766  0.18823  0.30669  1.0000
  C   C372      1.0  0.59121  0.18950  0.42704  1.0000
  H   H624      1.0  0.58357  0.18717  0.08813  1.0000
  H   H625      1.0  0.39400  0.12560  0.22612  1.0000
  H   H626      1.0  0.54164  0.20785  0.43418  1.0000
  S   S103      1.0  0.65655  0.14745  0.06225  1.0000
  S   S104      1.0  0.35754  0.14723  0.31203  1.0000
  C   C373      1.0  0.53192  0.20004  0.49992  1.0000
  S   S105      1.0  0.56275  0.18860  0.50159  1.0000
  H   H627      1.0  0.55748  0.09745  0.08960  1.0000
  C   C374      1.0  0.57530  0.17136  0.38246  1.0000
  H   H628      1.0  0.60185  0.12150  0.45385  1.0000
  H   H629      1.0  0.59302  0.15155  0.46545  1.0000
  C   C375      1.0  0.58607  0.13878  0.06933  1.0000
  N   N26       1.0  0.56900  0.13530  0.09365  1.0000
  H   H630      1.0  0.61119  0.18541  0.42496  1.0000
  H   H631      1.0  0.52460  0.12040  0.12090  1.0000
  C   C376      1.0  0.33596  0.14158  0.39323  1.0000
  C   C377      1.0  0.33855  0.24444  0.41857  1.0000
  C   C378      1.0  0.58828  0.13672  0.45080  1.0000
  H   H632      1.0  0.37135  0.15962  0.21777  1.0000
  H   H633      1.0  0.43165  0.17138  0.23306  1.0000
  S   S106      1.0  0.33561  0.11694  0.24127  1.0000
  N   N27       1.0  0.39433  0.18593  0.23847  1.0000
  H   H634      1.0  0.51766  0.16423  0.49140  1.0000
  H   H635      1.0  0.56153  0.19730  0.11288  1.0000
  H   H636      1.0  0.35902  0.22548  0.25704  1.0000
  H   H637      1.0  0.36510  0.16333  0.25341  1.0000
  H   H638      1.0  0.61154  0.18757  0.37536  1.0000
  C   C379      1.0  0.38047  0.16230  0.23823  1.0000
  H   H639      1.0  0.38983  0.22221  0.22020  1.0000
  S   S107      1.0  0.63091  0.17719  0.49423  1.0000
  H   H640      1.0  0.47399  0.17812  0.49058  1.0000
  C   C380      1.0  0.41833  0.18400  0.22300  1.0000
  H   H641      1.0  0.37336  0.19896  0.20283  1.0000
  H   H642      1.0  0.40588  0.21358  0.26777  1.0000
  H   H643      1.0  0.41465  0.14028  0.24941  1.0000
  C   C381      1.0  0.39857  0.19465  0.26788  1.0000
  H   H644      1.0  0.62770  0.17750  0.15385  1.0000
  H   H645      1.0  0.34253  0.12074  0.10736  1.0000
  H   H646      1.0  0.50212  0.17108  0.03802  1.0000
  H   H647      1.0  0.34539  0.27955  0.49266  1.0000
  H   H648      1.0  0.63124  0.17971  0.10233  1.0000
  C   C382      1.0  0.33824  0.16700  0.15507  1.0000
  H   H649      1.0  0.46042  0.18262  0.02112  1.0000
  H   H650      1.0  0.35636  0.24917  0.42814  1.0000
  Fe  Fe56      1.0  0.63761  0.22806  0.01284  1.0000
  H   H651      1.0  0.65732  0.15415  0.42776  1.0000
  C   C383      1.0  0.48185  0.21584  0.49931  1.0000
  S   S108      1.0  0.45074  0.22668  0.50038  1.0000
  H   H652      1.0  0.33512  0.22852  0.06992  1.0000
  H   H653      1.0  0.35010  0.20389  0.14765  1.0000
  H   H654      1.0  0.34394  0.02908  0.19959  1.0000
  C   C384      1.0  0.34849  0.18568  0.13894  1.0000
  H   H655      1.0  0.34970  0.01446  0.16673  1.0000
  C   C385      1.0  0.33951  0.01289  0.18655  1.0000
  C   C386      1.0  0.66158  0.18361  0.39868  1.0000
  H   H656      1.0  0.66083  0.12142  0.39165  1.0000
  H   H657      1.0  0.33728  0.20929  0.43770  1.0000
  S   S109      1.0  0.66060  0.20767  0.42353  1.0000
  C   C387      1.0  0.66197  0.14047  0.38567  1.0000
  Fe  Fe57      1.0  0.38485  0.17398  0.54178  1.0000
  S   S110      1.0  0.39205  0.21428  0.54325  1.0000
  S   S111      1.0  0.38999  0.15179  0.58175  1.0000
  Fe  Fe58      1.0  0.36990  0.17242  0.96362  1.0000
  S   S112      1.0  0.37656  0.21264  0.95885  1.0000
  S   S113      1.0  0.35742  0.14468  0.93118  1.0000
  H   H658      1.0  0.44316  0.21076  0.59739  1.0000
  H   H659      1.0  0.36789  0.22054  0.75675  1.0000
  Fe  Fe59      1.0  0.64007  0.24482  0.51497  1.0000
  H   H660      1.0  0.50377  0.20478  0.55799  1.0000
  C   C388      1.0  0.35197  0.12966  0.64997  1.0000
  C   C389      1.0  0.47221  0.21466  0.99940  1.0000
  H   H661      1.0  0.64779  0.13569  0.83844  1.0000
  S   S114      1.0  0.62142  0.21819  0.54373  1.0000
  C   C390      1.0  0.34701  0.12819  0.84976  1.0000
  Fe  Fe60      1.0  0.62628  0.18714  0.97168  1.0000
  S   S115      1.0  0.60580  0.22226  0.98323  1.0000
  S   S116      1.0  0.60788  0.16525  0.00480  1.0000
  Fe  Fe61      1.0  0.65181  0.19215  0.53089  1.0000
  C   C391      1.0  0.37047  0.13307  0.62990  1.0000
  H   H662      1.0  0.47200  0.21845  0.58182  1.0000
  H   H663      1.0  0.33722  0.05511  0.70549  1.0000
  C   C392      1.0  0.46169  0.13289  0.54050  1.0000
  H   H664      1.0  0.44424  0.22352  0.56344  1.0000
  C   C393      1.0  0.51111  0.18987  0.57140  1.0000
  Fe  Fe62      1.0  0.40500  0.20676  0.99296  1.0000
  N   N28       1.0  0.36826  0.19481  0.70233  1.0000
  C   C394      1.0  0.36605  0.14752  0.60616  1.0000
  H   H665      1.0  0.45503  0.14772  0.52660  1.0000
  H   H666      1.0  0.46054  0.18739  0.54230  1.0000
  H   H667      1.0  0.35555  0.11829  0.66794  1.0000
  S   S117      1.0  0.35764  0.14868  0.79879  1.0000
  H   H668      1.0  0.61977  0.14024  0.87898  1.0000
  H   H669      1.0  0.39501  0.19406  0.63564  1.0000
  C   C395      1.0  0.49695  0.16608  0.56699  1.0000
  C   C396      1.0  0.35923  0.14575  0.89442  1.0000
  C   C397      1.0  0.37094  0.16458  0.88027  1.0000
  C   C398      1.0  0.37068  0.16513  0.85093  1.0000
  H   H670      1.0  0.34232  0.23003  0.73505  1.0000
  H   H671      1.0  0.53170  0.23373  0.99731  1.0000
  H   H672      1.0  0.38006  0.17872  0.89193  1.0000
  H   H673      1.0  0.63528  0.18446  0.65108  1.0000
  H   H674      1.0  0.65822  0.43064  0.94530  1.0000
  H   H675      1.0  0.48548  0.15519  0.61833  1.0000
  H   H676      1.0  0.39256  0.17926  0.73386  1.0000
  H   H677      1.0  0.47800  0.18668  0.61564  1.0000
  C   C399      1.0  0.64920  0.17395  0.63999  1.0000
  C   C400      1.0  0.45498  0.18491  0.56427  1.0000
  C   C401      1.0  0.34288  0.15844  0.60263  1.0000
  S   S118      1.0  0.62149  0.16867  0.92927  1.0000
  H   H678      1.0  0.64081  0.19080  0.60032  1.0000
  S   S119      1.0  0.39953  0.16601  0.99563  1.0000
  H   H679      1.0  0.49001  0.24518  0.98022  1.0000
  H   H680      1.0  0.51183  0.19578  0.59341  1.0000
  C   C402      1.0  0.35847  0.14710  0.83558  1.0000
  H   H681      1.0  0.36344  0.19969  0.64125  1.0000
  H   H682      1.0  0.34312  0.22825  0.66929  1.0000
  H   H683      1.0  0.39603  0.21950  0.71682  1.0000
  S   S120      1.0  0.65889  0.19422  0.99920  1.0000
  C   C403      1.0  0.36995  0.14982  0.72000  1.0000
  C   C404      1.0  0.65253  0.14756  0.85560  1.0000
  S   S121      1.0  0.35070  0.17906  0.51690  1.0000
  H   H684      1.0  0.49731  0.16298  0.54418  1.0000
  C   C405      1.0  0.37345  0.17734  0.72610  1.0000
  C   C406      1.0  0.44721  0.16395  0.62423  1.0000
  C   C407      1.0  0.47175  0.16828  0.60924  1.0000
  C   C408      1.0  0.38168  0.20165  0.65104  1.0000
  Fe  Fe63      1.0  0.35897  0.21915  0.51572  1.0000
  H   H685      1.0  0.33684  0.30091  0.55820  1.0000
  H   H686      1.0  0.65715  0.33530  0.53274  1.0000
  H   H687      1.0  0.33736  0.17682  0.68397  1.0000
  H   H688      1.0  0.44952  0.11702  0.53742  1.0000
  H   H689      1.0  0.38611  0.22119  0.65398  1.0000
  H   H690      1.0  0.44355  0.14405  0.62583  1.0000
  H   H691      1.0  0.44809  0.17132  0.64576  1.0000
  H   H692      1.0  0.50817  0.15080  0.57610  1.0000
  H   H693      1.0  0.37427  0.23375  0.69519  1.0000
  H   H694      1.0  0.47116  0.12605  0.58334  1.0000
  H   H695      1.0  0.53038  0.18668  0.56456  1.0000
  C   C409      1.0  0.36248  0.23037  0.73746  1.0000
  H   H696      1.0  0.38828  0.12439  0.63273  1.0000
  H   H697      1.0  0.43563  0.17893  0.56299  1.0000
  H   H698      1.0  0.48035  0.12678  0.53400  1.0000
  C   C410      1.0  0.34758  0.12744  0.87898  1.0000
  H   H699      1.0  0.36140  0.18164  0.74425  1.0000
  C   C411      1.0  0.63666  0.15021  0.87864  1.0000
  C   C412      1.0  0.45386  0.21067  0.57782  1.0000
  H   H700      1.0  0.37975  0.17973  0.84012  1.0000
  H   H701      1.0  0.33038  0.19297  0.71485  1.0000
  H   H702      1.0  0.33862  0.06523  0.67044  1.0000
  N   N29       1.0  0.53990  0.17634  0.93100  1.0000
  C   C413      1.0  0.55063  0.15192  0.94028  1.0000
  C   C414      1.0  0.54077  0.17650  0.89965  1.0000
  C   C415      1.0  0.51366  0.17791  0.94097  1.0000
  C   C416      1.0  0.55494  0.19629  0.94391  1.0000
  C   C417      1.0  0.54807  0.14597  0.97150  1.0000
  C   C418      1.0  0.56662  0.17526  0.88667  1.0000
  C   C419      1.0  0.49643  0.19685  0.92687  1.0000
  C   C420      1.0  0.55057  0.22280  0.93357  1.0000
  H   H703      1.0  0.54220  0.13654  0.92862  1.0000
  H   H704      1.0  0.57060  0.15059  0.93570  1.0000
  H   H705      1.0  0.53151  0.19293  0.89079  1.0000
  H   H706      1.0  0.53031  0.16083  0.89111  1.0000
  H   H707      1.0  0.50467  0.15989  0.93822  1.0000
  H   H708      1.0  0.51292  0.18186  0.96366  1.0000
  H   H709      1.0  0.55209  0.19698  0.96678  1.0000
  H   H710      1.0  0.57489  0.19206  0.94200  1.0000
  H   H711      1.0  0.55766  0.12823  0.97578  1.0000
  H   H712      1.0  0.55680  0.15988  0.98474  1.0000
  H   H713      1.0  0.52871  0.14394  0.97788  1.0000
  H   H714      1.0  0.56505  0.17701  0.86374  1.0000
  H   H715      1.0  0.57824  0.19041  0.89399  1.0000
  H   H716      1.0  0.57608  0.15743  0.89066  1.0000
  H   H717      1.0  0.50344  0.21566  0.92749  1.0000
  H   H718      1.0  0.47870  0.19742  0.93826  1.0000
  H   H719      1.0  0.49216  0.19149  0.90515  1.0000
  H   H720      1.0  0.53712  0.23277  0.94697  1.0000
  H   H721      1.0  0.54472  0.22430  0.91170  1.0000
  H   H722      1.0  0.56811  0.23273  0.93454  1.0000
  C   C421      1.0  0.37610  0.21986  0.71177  1.0000
  H   H723      1.0  0.43154  0.17304  0.61354  1.0000
  H   H724      1.0  0.37117  0.13952  0.73985  1.0000
  H   H725      1.0  0.36756  0.24982  0.74048  1.0000
  H   H726      1.0  0.35178  0.14613  0.71089  1.0000
  C   C422      1.0  0.34135  0.19395  0.69544  1.0000
  N   N30       1.0  0.47109  0.16561  0.57804  1.0000
  H   H727      1.0  0.37918  0.16770  0.67147  1.0000
  H   H728      1.0  0.33878  0.32901  0.57700  1.0000
  C   C423      1.0  0.65229  0.17759  0.61118  1.0000
  H   H729      1.0  0.33917  0.16955  0.58445  1.0000
  C   C424      1.0  0.38382  0.18655  0.67796  1.0000
  H   H730      1.0  0.40352  0.18577  0.68400  1.0000
  H   H731      1.0  0.33783  0.11403  0.83820  1.0000
  C   C425      1.0  0.46113  0.14060  0.57143  1.0000
  C   C426      1.0  0.64254  0.16552  0.90121  1.0000
  S   S122      1.0  0.64742  0.28424  0.52783  1.0000
  H   H732      1.0  0.38468  0.14210  0.70648  1.0000
  H   H733      1.0  0.44164  0.13946  0.57793  1.0000
  Fe  Fe64      1.0  0.34972  0.21893  0.99393  1.0000
  S   S123      1.0  0.65896  0.15299  0.69085  1.0000
  C   C427      1.0  0.49263  0.22883  0.99262  1.0000
  S   S124      1.0  0.44271  0.22398  0.98689  1.0000
  C   C428      1.0  0.51635  0.22229  0.00210  1.0000
  S   S125      1.0  0.34159  0.17885  0.99652  1.0000
  H   H734      1.0  0.33763  0.28480  0.98499  1.0000
  H   H735      1.0  0.33869  0.11269  0.88974  1.0000
  C   C429      1.0  0.33005  0.21551  0.67855  1.0000
  H   H736      1.0  0.64314  0.99774  0.64379  1.0000
  C   C430      1.0  0.32882  0.14066  0.64638  1.0000
  Fe  Fe65      1.0  0.34510  0.77277  0.49600  1.0000
  H   H737      1.0  0.36203  0.80311  0.39758  1.0000
  C   C431      1.0  0.47092  0.80285  0.49621  1.0000
  Fe  Fe66      1.0  0.62906  0.79940  0.45983  1.0000
  S   S126      1.0  0.60205  0.77047  0.47177  1.0000
  S   S127      1.0  0.33714  0.81337  0.50055  1.0000
  H   H738      1.0  0.64734  0.75013  0.43456  1.0000
  S   S128      1.0  0.61649  0.77673  0.03873  1.0000
  H   H739      1.0  0.33405  0.70656  0.48107  1.0000
  H   H740      1.0  0.37121  0.95989  0.24127  1.0000
  H   H741      1.0  0.48993  0.77252  0.11376  1.0000
  S   S129      1.0  0.55378  0.81368  0.01349  1.0000
  Fe  Fe67      1.0  0.58522  0.79894  0.50044  1.0000
  C   C432      1.0  0.36077  0.86101  0.12067  1.0000
  Fe  Fe68      1.0  0.36550  0.79886  0.03143  1.0000
  S   S130      1.0  0.38135  0.76282  0.01599  1.0000
  S   S131      1.0  0.35471  0.79674  0.07722  1.0000
  Fe  Fe69      1.0  0.36471  0.81786  0.46646  1.0000
  S   S132      1.0  0.37098  0.77747  0.45989  1.0000
  S   S133      1.0  0.35915  0.84687  0.43305  1.0000
  C   C433      1.0  0.34067  0.85844  0.35218  1.0000
  H   H742      1.0  0.63785  0.93290  0.14942  1.0000
  S   S134      1.0  0.54469  0.81129  0.50465  1.0000
  C   C434      1.0  0.34478  0.86146  0.38090  1.0000
  C   C435      1.0  0.34656  0.98930  0.20256  1.0000
  C   C436      1.0  0.65835  0.95092  0.28259  1.0000
  H   H743      1.0  0.33300  0.79708  0.13135  1.0000
  C   C437      1.0  0.33897  0.83266  0.14959  1.0000
  H   H744      1.0  0.34210  0.87938  0.39030  1.0000
  H   H745      1.0  0.62929  0.87747  0.17159  1.0000
  C   C438      1.0  0.36519  0.96592  0.16401  1.0000
  C   C439      1.0  0.65369  0.73109  0.43906  1.0000
  S   S135      1.0  0.62025  0.83089  0.01025  1.0000
  S   S136      1.0  0.64133  0.79722  0.41435  1.0000
  H   H746      1.0  0.63233  0.89584  0.12646  1.0000
  H   H747      1.0  0.66117  0.74719  0.36481  1.0000
  H   H748      1.0  0.38019  0.94280  0.13084  1.0000
  C   C440      1.0  0.64827  0.81595  0.12197  1.0000
  H   H749      1.0  0.33006  0.82831  0.16900  1.0000
  H   H750      1.0  0.65899  0.96687  0.26841  1.0000
  Fe  Fe70      1.0  0.64396  0.80708  0.03756  1.0000
  H   H751      1.0  0.65357  0.69805  0.39372  1.0000
  H   H752      1.0  0.43010  0.75476  0.03808  1.0000
  H   H753      1.0  0.48793  0.74329  0.48595  1.0000
  H   H754      1.0  0.63949  0.88488  0.20545  1.0000
  H   H755      1.0  0.63569  0.95085  0.35894  1.0000
  C   C441      1.0  0.35245  0.84157  0.39749  1.0000
  C   C442      1.0  0.46834  0.77770  0.49150  1.0000
  C   C443      1.0  0.36210  0.84344  0.09904  1.0000
  C   C444      1.0  0.35211  0.82027  0.10277  1.0000
  S   S137      1.0  0.34856  0.87817  0.17296  1.0000
  C   C445      1.0  0.35245  0.81563  0.35623  1.0000
  H   H756      1.0  0.37109  0.84773  0.07967  1.0000
  C   C446      1.0  0.48962  0.76275  0.48977  1.0000
  H   H757      1.0  0.35864  0.97680  0.14582  1.0000
  C   C447      1.0  0.63860  0.89183  0.18380  1.0000
  N   N31       1.0  0.34572  0.96552  0.18633  1.0000
  C   C448      1.0  0.65280  0.82041  0.39238  1.0000
  S   S138      1.0  0.34033  0.89040  0.25301  1.0000
  C   C449      1.0  0.51571  0.79772  0.49856  1.0000
  H   H758      1.0  0.38166  0.97542  0.17194  1.0000
  H   H759      1.0  0.33481  0.87393  0.33967  1.0000
  H   H760      1.0  0.64489  0.87931  0.08246  1.0000
  Fe  Fe71      1.0  0.62823  0.76155  0.50671  1.0000
  C   C450      1.0  0.34952  0.94495  0.20689  1.0000
  Fe  Fe72      1.0  0.40065  0.78127  0.49258  1.0000
  H   H761      1.0  0.63245  0.81161  0.16279  1.0000
  S   S139      1.0  0.61104  0.82859  0.48659  1.0000
  C   C451      1.0  0.35601  0.81852  0.38508  1.0000
  C   C452      1.0  0.34475  0.83555  0.33965  1.0000
  H   H762      1.0  0.37658  0.92808  0.23445  1.0000
  N   N32       1.0  0.44193  0.81687  0.40662  1.0000
  C   C453      1.0  0.45085  0.79087  0.41192  1.0000
  C   C454      1.0  0.46420  0.83222  0.40195  1.0000
  C   C455      1.0  0.42677  0.81658  0.38038  1.0000
  C   C456      1.0  0.42668  0.82553  0.43116  1.0000
  C   C457      1.0  0.43089  0.77137  0.41374  1.0000
  C   C458      1.0  0.48379  0.83077  0.42508  1.0000
  C   C459      1.0  0.41688  0.84148  0.36979  1.0000
  C   C460      1.0  0.42600  0.85338  0.43746  1.0000
  H   H763      1.0  0.46406  0.78470  0.39551  1.0000
  H   H764      1.0  0.46105  0.78964  0.43194  1.0000
  H   H765      1.0  0.45920  0.85189  0.39925  1.0000
  H   H766      1.0  0.47346  0.82677  0.38213  1.0000
  H   H767      1.0  0.43742  0.80788  0.36304  1.0000
  H   H768      1.0  0.41022  0.80528  0.38311  1.0000
  H   H769      1.0  0.40734  0.81979  0.42875  1.0000
  H   H770      1.0  0.43299  0.81657  0.45073  1.0000
  H   H771      1.0  0.41592  0.77712  0.42797  1.0000
  H   H772      1.0  0.42337  0.76685  0.39296  1.0000
  H   H773      1.0  0.43909  0.75413  0.42223  1.0000
  H   H774      1.0  0.49491  0.81352  0.42348  1.0000
  H   H775      1.0  0.49663  0.84616  0.42281  1.0000
  H   H776      1.0  0.47568  0.83196  0.44615  1.0000
  H   H777      1.0  0.43138  0.85500  0.36633  1.0000
  H   H778      1.0  0.40242  0.84908  0.38370  1.0000
  H   H779      1.0  0.40779  0.83861  0.34938  1.0000
  H   H780      1.0  0.44357  0.85965  0.44618  1.0000
  H   H781      1.0  0.41179  0.85733  0.45348  1.0000
  H   H782      1.0  0.42110  0.86476  0.41930  1.0000
  N   N33       1.0  0.44431  0.78479  0.08324  1.0000
  C   C461      1.0  0.47085  0.78225  0.07474  1.0000
  C   C462      1.0  0.43145  0.80118  0.06239  1.0000
  C   C463      1.0  0.43208  0.76027  0.08348  1.0000
  C   C464      1.0  0.44288  0.79549  0.11214  1.0000
  C   C465      1.0  0.48698  0.76494  0.09263  1.0000
  C   C466      1.0  0.43680  0.82881  0.06488  1.0000
  C   C467      1.0  0.43551  0.74457  0.05698  1.0000
  C   C468      1.0  0.41675  0.80013  0.12373  1.0000
  H   H783      1.0  0.47254  0.77593  0.05276  1.0000
  H   H784      1.0  0.47985  0.80034  0.07514  1.0000
  H   H785      1.0  0.41122  0.79924  0.06321  1.0000
  H   H786      1.0  0.43636  0.79558  0.04080  1.0000
  H   H787      1.0  0.43839  0.74897  0.10142  1.0000
  H   H788      1.0  0.41194  0.76274  0.08664  1.0000
  H   H789      1.0  0.45199  0.78297  0.12732  1.0000
  H   H790      1.0  0.45346  0.81266  0.11396  1.0000
  H   H791      1.0  0.50534  0.76312  0.08275  1.0000
  S   S140      1.0  0.34098  0.83105  0.30338  1.0000
  H   H792      1.0  0.47963  0.74622  0.09407  1.0000
  H   H793      1.0  0.42835  0.83698  0.08384  1.0000
  H   H794      1.0  0.45665  0.83249  0.06453  1.0000
  H   H795      1.0  0.42857  0.83864  0.04691  1.0000
  H   H796      1.0  0.45463  0.73767  0.05452  1.0000
  H   H797      1.0  0.39185  0.93504  0.16402  1.0000
  H   H798      1.0  0.42368  0.72830  0.05824  1.0000
  H   H799      1.0  0.41036  0.78395  0.13543  1.0000
  H   H800      1.0  0.40305  0.80443  0.10750  1.0000
  H   H801      1.0  0.41660  0.81636  0.13779  1.0000
  H   H802      1.0  0.35577  0.79789  0.34666  1.0000
  H   H803      1.0  0.36162  0.92585  0.15362  1.0000
  H   H804      1.0  0.61557  0.72478  0.42660  1.0000
  S   S141      1.0  0.39564  0.82182  0.49693  1.0000
  H   H805      1.0  0.63253  0.80897  0.11109  1.0000
  H   H806      1.0  0.36875  0.87879  0.11773  1.0000
  C   C469      1.0  0.49442  0.81272  0.49985  1.0000
  H   H807      1.0  0.38943  0.95011  0.21150  1.0000
  H   H808      1.0  0.63275  0.69636  0.43168  1.0000
  H   H809      1.0  0.64186  0.95217  0.29598  1.0000
  C   C470      1.0  0.34916  0.85574  0.14604  1.0000
  C   C471      1.0  0.51315  0.77265  0.49324  1.0000
  H   H810      1.0  0.52928  0.76083  0.49215  1.0000
  C   C472      1.0  0.37317  0.94609  0.22432  1.0000
  H   H811      1.0  0.64840  0.85011  0.42164  1.0000
  C   C473      1.0  0.34064  0.81498  0.12817  1.0000
  H   H812      1.0  0.64464  0.94472  0.10379  1.0000
  S   S142      1.0  0.43909  0.76412  0.48740  1.0000
  C   C474      1.0  0.63030  0.71550  0.43881  1.0000
  C   C475      1.0  0.65576  0.94860  0.35584  1.0000
  C   C476      1.0  0.37484  0.94082  0.15299  1.0000
  C   C477      1.0  0.65425  0.84487  0.40092  1.0000
  H   H813      1.0  0.45485  0.81471  0.49718  1.0000
  C   C478      1.0  0.50328  0.81660  0.01109  1.0000
  H   H814      1.0  0.64967  0.98073  0.33037  1.0000
  H   H815      1.0  0.62301  0.71453  0.46033  1.0000
  H   H816      1.0  0.34957  0.92671  0.19680  1.0000
  H   H817      1.0  0.50545  0.83477  0.01973  1.0000
  H   H818      1.0  0.65626  0.93456  0.26909  1.0000
  C   C479      1.0  0.64827  0.81753  0.15126  1.0000
  C   C480      1.0  0.65206  0.89043  0.12509  1.0000
  H   H819      1.0  0.63951  0.72391  0.35795  1.0000
  H   H820      1.0  0.63547  0.74330  0.38781  1.0000
  H   H821      1.0  0.62730  0.90892  0.18428  1.0000
  H   H822      1.0  0.65801  0.93121  0.34419  1.0000
  H   H823      1.0  0.65305  0.87090  0.13171  1.0000
  H   H824      1.0  0.49616  0.83215  0.50376  1.0000
  S   S143      1.0  0.65584  0.78860  0.49320  1.0000
  C   C481      1.0  0.64936  0.73349  0.37488  1.0000
  H   H825      1.0  0.36523  0.99233  0.21100  1.0000
  H   H826      1.0  0.33786  0.71269  0.01341  1.0000
  C   C482      1.0  0.65889  0.88984  0.09395  1.0000
  C   C483      1.0  0.65776  0.93227  0.14465  1.0000
  H   H827      1.0  0.66054  0.73167  0.46075  1.0000
  H   H828      1.0  0.65953  0.90821  0.08450  1.0000
  H   H829      1.0  0.33449  0.98860  0.22112  1.0000
  H   H830      1.0  0.33388  0.94446  0.22179  1.0000
  H   H831      1.0  0.66171  0.96698  0.12323  1.0000
  C   C484      1.0  0.66047  0.81392  0.36534  1.0000
  H   H832      1.0  0.65925  0.79510  0.35847  1.0000
  C   C485      1.0  0.66059  0.94722  0.11775  1.0000
  Fe  Fe73      1.0  0.59378  0.79962  0.00855  1.0000
  H   H833      1.0  0.49547  0.82131  0.57427  1.0000
  C   C486      1.0  0.35355  0.83383  0.60049  1.0000
  C   C487      1.0  0.46618  0.80370  0.59802  1.0000
  Fe  Fe74      1.0  0.63611  0.76247  0.00022  1.0000
  S   S144      1.0  0.61159  0.78327  0.97004  1.0000
  H   H834      1.0  0.58770  0.86679  0.86423  1.0000
  Fe  Fe75      1.0  0.63566  0.81509  0.52136  1.0000
  S   S145      1.0  0.60912  0.78743  0.53683  1.0000
  C   C488      1.0  0.35652  0.85086  0.62223  1.0000
  H   H835      1.0  0.50127  0.78959  0.58267  1.0000
  H   H836      1.0  0.53171  0.83002  0.95772  1.0000
  S   S146      1.0  0.33685  0.80042  0.99800  1.0000
  C   C489      1.0  0.36184  0.95235  0.83058  1.0000
  H   H837      1.0  0.55961  0.79859  0.93687  1.0000
  Fe  Fe76      1.0  0.36844  0.81343  0.53057  1.0000
  S   S147      1.0  0.37517  0.77268  0.52828  1.0000
  S   S148      1.0  0.37136  0.83671  0.56986  1.0000
  Fe  Fe77      1.0  0.36450  0.81998  0.97208  1.0000
  S   S149      1.0  0.38066  0.78553  0.95355  1.0000
  S   S150      1.0  0.34932  0.85126  0.94540  1.0000
  H   H838      1.0  0.52922  0.86010  0.97360  1.0000
  H   H839      1.0  0.55728  0.86009  0.87416  1.0000
  C   C490      1.0  0.34305  0.84903  0.64714  1.0000
  H   H840      1.0  0.62872  0.74810  0.57109  1.0000
  H   H841      1.0  0.38695  0.89369  0.80223  1.0000
  H   H842      1.0  0.48118  0.79661  0.55549  1.0000
  C   C491      1.0  0.64890  0.75223  0.61060  1.0000
  C   C492      1.0  0.54238  0.86008  0.92998  1.0000
  H   H843      1.0  0.65035  0.99308  0.67955  1.0000
  H   H844      1.0  0.36810  0.93866  0.88565  1.0000
  H   H845      1.0  0.44386  0.82237  0.64720  1.0000
  C   C493      1.0  0.62864  0.74095  0.59256  1.0000
  C   C494      1.0  0.57555  0.87495  0.95859  1.0000
  H   H846      1.0  0.45069  0.84903  0.59653  1.0000
  C   C495      1.0  0.63695  0.90477  0.64480  1.0000
  H   H847      1.0  0.42784  0.75928  0.54808  1.0000
  S   S151      1.0  0.66056  0.83777  0.54909  1.0000
  H   H848      1.0  0.38573  0.91134  0.84575  1.0000
  C   C496      1.0  0.48690  0.80311  0.57620  1.0000
  C   C497      1.0  0.36542  0.83418  0.89427  1.0000
  C   C498      1.0  0.34795  0.84826  0.90878  1.0000
  C   C499      1.0  0.64837  0.84760  0.84718  1.0000
  H   H849      1.0  0.42086  0.84316  0.63260  1.0000
  H   H850      1.0  0.41340  0.80194  0.55799  1.0000
  H   H851      1.0  0.38015  0.82509  0.90549  1.0000
  H   H852      1.0  0.61448  0.86369  0.96283  1.0000
  C   C500      1.0  0.44796  0.84593  0.55206  1.0000
  H   H853      1.0  0.34701  0.91388  0.89188  1.0000
  H   H854      1.0  0.62394  0.96037  0.70678  1.0000
  S   S152      1.0  0.34481  0.84055  0.81358  1.0000
  C   C501      1.0  0.43974  0.83833  0.58140  1.0000
  H   H855      1.0  0.36245  0.76841  0.85300  1.0000
  C   C502      1.0  0.63621  0.82739  0.89025  1.0000
  H   H856      1.0  0.57809  0.88912  0.90700  1.0000
  H   H857      1.0  0.49523  0.75187  0.97981  1.0000
  C   C503      1.0  0.64377  0.95921  0.65554  1.0000
  H   H858      1.0  0.53638  0.85055  0.91094  1.0000
  H   H859      1.0  0.44891  0.86624  0.55120  1.0000
  H   H860      1.0  0.46619  0.83846  0.54629  1.0000
  H   H861      1.0  0.55584  0.81681  0.90633  1.0000
  C   C504      1.0  0.63969  0.82966  0.60077  1.0000
  S   S153      1.0  0.64654  0.72251  0.99101  1.0000
  Fe  Fe78      1.0  0.63921  0.81312  0.97372  1.0000
  C   C505      1.0  0.57929  0.83313  0.94016  1.0000
  H   H862      1.0  0.62461  0.82154  0.58972  1.0000
  H   H863      1.0  0.34546  0.86229  0.66366  1.0000
  C   C506      1.0  0.42318  0.80687  0.61183  1.0000
  N   N34       1.0  0.65769  0.93973  0.67166  1.0000
  H   H864      1.0  0.47246  0.81626  0.61470  1.0000
  H   H865      1.0  0.36922  0.86565  0.61975  1.0000
  H   H866      1.0  0.35572  0.96335  0.84897  1.0000
  H   H867      1.0  0.41202  0.81803  0.65346  1.0000
  H   H868      1.0  0.35406  0.98747  0.81047  1.0000
  C   C507      1.0  0.65932  0.83911  0.58590  1.0000
  H   H869      1.0  0.65111  0.90290  0.68671  1.0000
  H   H870      1.0  0.37257  0.96740  0.79001  1.0000
  C   C508      1.0  0.35178  0.91405  0.80375  1.0000
  H   H871      1.0  0.62403  0.95983  0.66122  1.0000
  C   C509      1.0  0.43299  0.76825  0.56795  1.0000
  C   C510      1.0  0.34045  0.77028  0.89135  1.0000
  C   C511      1.0  0.36409  0.83209  0.86516  1.0000
  H   H872      1.0  0.37907  0.90839  0.89403  1.0000
  H   H873      1.0  0.46618  0.78551  0.60848  1.0000
  S   S154      1.0  0.64409  0.85173  0.81103  1.0000
  H   H874      1.0  0.37788  0.82132  0.85415  1.0000
  H   H875      1.0  0.60267  0.86742  0.91102  1.0000
  H   H876      1.0  0.62532  0.81401  0.90081  1.0000
  C   C512      1.0  0.36598  0.91144  0.85144  1.0000
  H   H877      1.0  0.63539  0.93926  0.73244  1.0000
  H   H878      1.0  0.50740  0.85065  0.94842  1.0000
  C   C513      1.0  0.35658  0.96792  0.80428  1.0000
  H   H879      1.0  0.56901  0.86670  0.97834  1.0000
  C   C514      1.0  0.34515  0.84380  0.85021  1.0000
  H   H880      1.0  0.63023  0.72063  0.59194  1.0000
  S   S155      1.0  0.33210  0.87420  0.74362  1.0000
  H   H881      1.0  0.35133  0.73891  0.86407  1.0000
  Fe  Fe79      1.0  0.40664  0.78587  0.99020  1.0000
  Fe  Fe80      1.0  0.35418  0.76589  0.98119  1.0000
  N   N35       1.0  0.44089  0.81129  0.58828  1.0000
  H   H882      1.0  0.44325  0.79968  0.54486  1.0000
  H   H883      1.0  0.42064  0.84569  0.58340  1.0000
  N   N36       1.0  0.35107  0.92707  0.83149  1.0000
  C   C515      1.0  0.52713  0.84961  0.95399  1.0000
  H   H884      1.0  0.58230  0.83792  0.87940  1.0000
  S   S156      1.0  0.44692  0.77304  0.98563  1.0000
  H   H885      1.0  0.42504  0.78775  0.61967  1.0000
  H   H886      1.0  0.40389  0.80883  0.60451  1.0000
  C   C516      1.0  0.37752  0.90920  0.79147  1.0000
  H   H887      1.0  0.61046  0.74570  0.60170  1.0000
  H   H888      1.0  0.57590  0.82852  0.96234  1.0000
  H   H889      1.0  0.56581  0.89306  0.95693  1.0000
  H   H890      1.0  0.60969  0.89367  0.94770  1.0000
  C   C517      1.0  0.49736  0.77004  0.98852  1.0000
  C   C518      1.0  0.63934  0.83109  0.63002  1.0000
  H   H891      1.0  0.62445  0.92116  0.68292  1.0000
  H   H892      1.0  0.64268  0.77144  0.61509  1.0000
  C   C519      1.0  0.33708  0.81480  0.60395  1.0000
  H   H893      1.0  0.38217  0.95096  0.83217  1.0000
  S   S157      1.0  0.65703  0.84261  0.68157  1.0000
  H   H894      1.0  0.64447  0.97089  0.73236  1.0000
  H   H895      1.0  0.62392  0.82396  0.64130  1.0000
  H   H896      1.0  0.38904  0.92564  0.79220  1.0000
  H   H897      1.0  0.37575  0.75309  0.88216  1.0000
  H   H898      1.0  0.37571  0.90370  0.76930  1.0000
  H   H899      1.0  0.41949  0.76245  0.58368  1.0000
  H   H900      1.0  0.53617  0.87947  0.92678  1.0000
  N   N37       1.0  0.56977  0.85871  0.93394  1.0000
  C   C520      1.0  0.47640  0.78492  0.99348  1.0000
  H   H901      1.0  0.34931  0.78803  0.89574  1.0000
  H   H902      1.0  0.62046  0.82037  0.84989  1.0000
  H   H903      1.0  0.59958  0.83218  0.93815  1.0000
  C   C521      1.0  0.60283  0.88049  0.96326  1.0000
  H   H904      1.0  0.43430  0.84053  0.53622  1.0000
  C   C522      1.0  0.57668  0.85750  0.88036  1.0000
  C   C523      1.0  0.42548  0.82375  0.63753  1.0000
  C   C524      1.0  0.63370  0.83087  0.86138  1.0000
  C   C525      1.0  0.52111  0.77837  0.99459  1.0000
  H   H905      1.0  0.58412  0.80115  0.91283  1.0000
  C   C526      1.0  0.35815  0.75678  0.87120  1.0000
  C   C527      1.0  0.58240  0.86911  0.90881  1.0000
  C   C528      1.0  0.56888  0.81167  0.92288  1.0000
  C   C529      1.0  0.64031  0.95489  0.71892  1.0000
  H   H906      1.0  0.45156  0.76116  0.57325  1.0000
  C   C530      1.0  0.43242  0.79629  0.56382  1.0000
  C   C531      1.0  0.65339  0.98552  0.65832  1.0000
  H   H907      1.0  0.34107  0.92390  0.78772  1.0000
  H   H908      1.0  0.53696  0.76668  0.99048  1.0000
  S   S158      1.0  0.64062  0.72254  0.51796  1.0000
  H   H909      1.0  0.36058  0.89194  0.85012  1.0000
  H   H910      1.0  0.33647  0.98804  0.73447  1.0000
  H   H911      1.0  0.34107  0.76017  0.91136  1.0000
  C   C532      1.0  0.36475  0.91888  0.88241  1.0000
  C   C533      1.0  0.47955  0.80836  0.00475  1.0000
  H   H912      1.0  0.34282  0.89592  0.80535  1.0000
  H   H913      1.0  0.65690  0.79329  0.82645  1.0000
  C   C534      1.0  0.52426  0.80173  0.00599  1.0000
  H   H914      1.0  0.34003  0.96312  0.79254  1.0000
  H   H915      1.0  0.33469  0.80155  0.58742  1.0000
  H   H916      1.0  0.60513  0.88907  0.98406  1.0000
  H   H917      1.0  0.64868  0.74255  0.63097  1.0000
  H   H918      1.0  0.65380  0.89857  0.63378  1.0000
  C   C535      1.0  0.65297  0.84120  0.90529  1.0000
  C   C536      1.0  0.64249  0.91701  0.67301  1.0000
  S   S159      1.0  0.65693  0.83787  0.94156  1.0000
  H   H919      1.0  0.62606  0.88810  0.64853  1.0000
  H   H920      1.0  0.64384  0.95477  0.63291  1.0000
  H   H921      1.0  0.62587  0.91697  0.63111  1.0000
  C   C537      1.0  0.65873  0.84164  0.64477  1.0000
  C   C538      1.0  0.32919  0.86038  0.89381  1.0000
  H   H922      1.0  0.46374  0.82019  0.00839  1.0000
  S   S160      1.0  0.39203  0.82190  0.00730  1.0000
  Fe  Fe81      1.0  0.71296  0.09165  0.24807  1.0000
  H   H923      1.0  0.74324  0.20085  0.40689  1.0000
  S   S161      1.0  0.73262  0.05394  0.24788  1.0000
  Fe  Fe82      1.0  0.72379  0.14719  0.25087  1.0000
  S   S162      1.0  0.68417  0.15641  0.25935  1.0000
  S   S163      1.0  0.74363  0.18343  0.24636  1.0000
  Fe  Fe83      1.0  0.68442  0.12475  0.28873  1.0000
  H   H924      1.0  0.92114  0.40118  0.40247  1.0000
  Fe  Fe84      1.0  0.67607  0.12946  0.22521  1.0000
  H   H925      1.0  0.84613  0.26787  0.05843  1.0000
  S   S164      1.0  0.72461  0.11706  0.28274  1.0000
  S   S165      1.0  0.71569  0.12149  0.21536  1.0000
  H   H926      1.0  0.90561  0.18176  0.20794  1.0000
  H   H927      1.0  0.68597  0.03446  0.22768  1.0000
  C   C539      1.0  0.69797  0.19398  0.13032  1.0000
  C   C540      1.0  0.89255  0.37806  0.32065  1.0000
  H   H928      1.0  0.74927  0.17132  0.16439  1.0000
  H   H929      1.0  0.71172  0.23172  0.30417  1.0000
  H   H930      1.0  0.71725  0.16593  0.36606  1.0000
  C   C541      1.0  0.85069  0.28657  0.06549  1.0000
  Fe  Fe85      1.0  0.79889  0.35396  0.04098  1.0000
  S   S166      1.0  0.80029  0.33543  0.08365  1.0000
  Fe  Fe86      1.0  0.81802  0.35894  0.48244  1.0000
  S   S167      1.0  0.84372  0.33676  0.45406  1.0000
  S   S168      1.0  0.76707  0.37891  0.02841  1.0000
  S   S169      1.0  0.79011  0.38598  0.46643  1.0000
  Fe  Fe87      1.0  0.90793  0.29250  0.27450  1.0000
  S   S170      1.0  0.88771  0.32805  0.26637  1.0000
  S   S171      1.0  0.94602  0.28873  0.29426  1.0000
  Fe  Fe88      1.0  0.86182  0.26253  0.26241  1.0000
  S   S172      1.0  0.83842  0.29602  0.25303  1.0000
  S   S173      1.0  0.85172  0.22224  0.26457  1.0000
  Fe  Fe89      1.0  0.87126  0.30898  0.22911  1.0000
  S   S174      1.0  0.87322  0.32967  0.18777  1.0000
  Fe  Fe90      1.0  0.85657  0.31247  0.29083  1.0000
  S   S175      1.0  0.83513  0.33654  0.32179  1.0000
  S   S176      1.0  0.89368  0.27421  0.23596  1.0000
  S   S177      1.0  0.87769  0.27822  0.30155  1.0000
  H   H931      1.0  0.88880  0.34042  0.33063  1.0000
  C   C542      1.0  0.97565  0.29254  0.27958  1.0000
  C   C543      1.0  0.97900  0.29943  0.25189  1.0000
  H   H932      1.0  0.91453  0.16822  0.24033  1.0000
  H   H933      1.0  0.96324  0.30288  0.23875  1.0000
  C   C544      1.0  0.82031  0.33513  0.11290  1.0000
  C   C545      1.0  0.84090  0.34989  0.11456  1.0000
  C   C546      1.0  0.85676  0.34805  0.13769  1.0000
  C   C547      1.0  0.85211  0.33171  0.15960  1.0000
  C   C548      1.0  0.83135  0.31719  0.15809  1.0000
  C   C549      1.0  0.81561  0.31889  0.13487  1.0000
  H   H934      1.0  0.84460  0.36276  0.09812  1.0000
  H   H935      1.0  0.87269  0.35946  0.13871  1.0000
  H   H936      1.0  0.82749  0.30456  0.17473  1.0000
  H   H937      1.0  0.79969  0.30746  0.13388  1.0000
  C   C550      1.0  0.84141  0.33707  0.41730  1.0000
  C   C551      1.0  0.85159  0.31743  0.40180  1.0000
  C   C552      1.0  0.84968  0.31686  0.37256  1.0000
  C   C553      1.0  0.83785  0.33613  0.35851  1.0000
  C   C554      1.0  0.82790  0.35587  0.37399  1.0000
  C   C555      1.0  0.82970  0.35638  0.40321  1.0000
  H   H938      1.0  0.86070  0.30242  0.41253  1.0000
  H   H939      1.0  0.85711  0.30141  0.36094  1.0000
  H   H940      1.0  0.81885  0.37095  0.36330  1.0000
  H   H941      1.0  0.82212  0.37178  0.41482  1.0000
  H   H942      1.0  0.89025  0.19122  0.23886  1.0000
  C   C556      1.0  0.74312  0.22091  0.18344  1.0000
  H   H943      1.0  0.88040  0.24951  0.04772  1.0000
  H   H944      1.0  0.66986  0.17585  0.32849  1.0000
  C   C557      1.0  0.66726  0.17106  0.35008  1.0000
  H   H945      1.0  0.71438  0.39414  0.01763  1.0000
  H   H946      1.0  0.69550  0.16645  0.17609  1.0000
  H   H947      1.0  0.76806  0.13794  0.31112  1.0000
  C   C558      1.0  0.72874  0.14833  0.13724  1.0000
  H   H948      1.0  0.89417  0.39011  0.38633  1.0000
  H   H949      1.0  0.75616  0.00668  0.25430  1.0000
  H   H950      1.0  0.96740  0.37197  0.33171  1.0000
  C   C559      1.0  0.69787  0.01368  0.32230  1.0000
  H   H951      1.0  0.89736  0.39603  0.32970  1.0000
  H   H952      1.0  0.68336  0.20781  0.13550  1.0000
  C   C560      1.0  0.77388  0.19344  0.25193  1.0000
  C   C561      1.0  0.79320  0.17736  0.25875  1.0000
  C   C562      1.0  0.81695  0.18645  0.26268  1.0000
  C   C563      1.0  0.82153  0.21164  0.25994  1.0000
  C   C564      1.0  0.80210  0.22770  0.25352  1.0000
  C   C565      1.0  0.77844  0.21862  0.24949  1.0000
  H   H953      1.0  0.78993  0.15794  0.26068  1.0000
  H   H954      1.0  0.83188  0.17388  0.26764  1.0000
  H   H955      1.0  0.80536  0.24710  0.25134  1.0000
  H   H956      1.0  0.76359  0.23122  0.24432  1.0000
  H   H957      1.0  0.90267  0.29159  0.06584  1.0000
  H   H958      1.0  0.77321  0.22767  0.32179  1.0000
  H   H959      1.0  0.74524  0.13653  0.13350  1.0000
  C   C566      1.0  0.70431  0.18440  0.17932  1.0000
  H   H960      1.0  0.77444  0.45867  0.04082  1.0000
  H   H961      1.0  0.71800  0.13921  0.15359  1.0000
  H   H962      1.0  0.90385  0.22425  0.32346  1.0000
  H   H963      1.0  0.86375  0.30115  0.10594  1.0000
  C   C567      1.0  0.91279  0.38455  0.39340  1.0000
  C   C568      1.0  0.73697  0.17412  0.14617  1.0000
  C   C569      1.0  0.72195  0.02367  0.24173  1.0000
  C   C570      1.0  0.96574  0.17167  0.25377  1.0000
  C   C571      1.0  0.69841  0.01918  0.23171  1.0000
  N   N38       1.0  0.92021  0.35265  0.35407  1.0000
  C   C572      1.0  0.91821  0.33228  0.37515  1.0000
  C   C573      1.0  0.92907  0.37506  0.36921  1.0000
  C   C574      1.0  0.93840  0.34458  0.33191  1.0000
  C   C575      1.0  0.91478  0.30617  0.36331  1.0000
  S   S178      1.0  0.67133  0.21947  0.50413  1.0000
  C   C576      1.0  0.95333  0.36462  0.31745  1.0000
  H   H964      1.0  0.93483  0.33133  0.38859  1.0000
  H   H965      1.0  0.90246  0.33578  0.38946  1.0000
  H   H966      1.0  0.93116  0.39080  0.35493  1.0000
  H   H967      1.0  0.94770  0.37134  0.37789  1.0000
  H   H968      1.0  0.95265  0.33186  0.34064  1.0000
  H   H969      1.0  0.92909  0.33398  0.31532  1.0000
  H   H970      1.0  0.93188  0.29859  0.35388  1.0000
  H   H971      1.0  0.90992  0.29369  0.38056  1.0000
  H   H972      1.0  0.84575  0.27458  0.10813  1.0000
  H   H973      1.0  0.71349  0.20761  0.39170  1.0000
  C   C577      1.0  0.77996  0.47385  0.02804  1.0000
  H   H974      1.0  0.82555  0.27513  0.01738  1.0000
  H   H975      1.0  0.95619  0.15466  0.24777  1.0000
  S   S179      1.0  0.82707  0.37466  0.01658  1.0000
  H   H976      1.0  0.68827  0.17642  0.12841  1.0000
  H   H977      1.0  0.96166  0.19230  0.29209  1.0000
  C   C578      1.0  0.89310  0.28801  0.04581  1.0000
  H   H978      1.0  0.69216  0.20035  0.08625  1.0000
  C   C579      1.0  0.66599  0.14639  0.35760  1.0000
  H   H979      1.0  0.75234  0.23886  0.18260  1.0000
  H   H980      1.0  0.74066  0.22120  0.13897  1.0000
  C   C580      1.0  0.73385  0.17634  0.37190  1.0000
  H   H981      1.0  0.71825  0.14866  0.11751  1.0000
  H   H982      1.0  0.96044  0.23562  0.28397  1.0000
  C   C581      1.0  0.89542  0.26040  0.03912  1.0000
  H   H983      1.0  0.67622  0.37352  0.01398  1.0000
  H   H984      1.0  0.71407  0.23237  0.15566  1.0000
  H   H985      1.0  0.71622  0.01089  0.33175  1.0000
  S   S180      1.0  0.72885  0.35179  0.47468  1.0000
  H   H986      1.0  0.87307  0.37958  0.31407  1.0000
  H   H987      1.0  0.72140  0.29918  0.47156  1.0000
  H   H988      1.0  0.75694  0.13598  0.34580  1.0000
  C   C582      1.0  0.70765  0.20066  0.10125  1.0000
  H   H989      1.0  0.72917  0.46880  0.02854  1.0000
  H   H990      1.0  0.90329  0.37421  0.30155  1.0000
  H   H991      1.0  0.99016  0.21489  0.25358  1.0000
  H   H992      1.0  0.88141  0.36060  0.35830  1.0000
  H   H993      1.0  0.71765  0.18041  0.19620  1.0000
  H   H994      1.0  0.83269  0.29653  0.06638  1.0000
  H   H995      1.0  0.68676  0.22127  0.18630  1.0000
  H   H996      1.0  0.98267  0.16540  0.26466  1.0000
  C   C583      1.0  0.69701  0.29272  0.02681  1.0000
  C   C584      1.0  0.94981  0.18726  0.27418  1.0000
  H   H997      1.0  0.75438  0.17882  0.30479  1.0000
  H   H998      1.0  0.89992  0.30534  0.34783  1.0000
  H   H999      1.0  0.93014  0.24073  0.31379  1.0000
  C   C585      1.0  0.76495  0.14871  0.33051  1.0000
  H   H1000     1.0  0.74142  0.21894  0.29709  1.0000
  C   C586      1.0  0.95389  0.23145  0.26262  1.0000
  H   H1001     1.0  0.78320  0.15466  0.33751  1.0000
  H   H1002     1.0  0.78503  0.48833  0.43935  1.0000
  H   H1003     1.0  0.75760  0.20656  0.18605  1.0000
  C   C587      1.0  0.72690  0.19283  0.39703  1.0000
  H   H1004     1.0  0.80018  0.21920  0.34040  1.0000
  N   N39       1.0  0.71681  0.19250  0.15309  1.0000
  H   H1005     1.0  0.97369  0.22567  0.22273  1.0000
  H   H1006     1.0  0.66584  0.20860  0.36456  1.0000
  H   H1007     1.0  0.71387  0.44309  0.04232  1.0000
  H   H1008     1.0  0.91152  0.37107  0.41052  1.0000
  H   H1009     1.0  0.71503  0.21944  0.10085  1.0000
  C   C588      1.0  0.66498  0.18954  0.37054  1.0000
  C   C589      1.0  0.72363  0.21515  0.30691  1.0000
  N   N40       1.0  0.86767  0.29921  0.04562  1.0000
  Fe  Fe91      1.0  0.76380  0.36607  0.49422  1.0000
  C   C590      1.0  0.71275  0.30984  0.01470  1.0000
  C   C591      1.0  0.76787  0.20066  0.35516  1.0000
  H   H1010     1.0  0.94382  0.24824  0.25539  1.0000
  N   N41       1.0  0.74398  0.18935  0.34685  1.0000
  C   C592      1.0  0.72813  0.21733  0.15661  1.0000
  N   N42       1.0  0.75822  0.31576  0.38736  1.0000
  C   C593      1.0  0.76761  0.32148  0.35856  1.0000
  C   C594      1.0  0.74461  0.33838  0.39773  1.0000
  C   C595      1.0  0.74054  0.29501  0.38449  1.0000
  C   C596      1.0  0.77971  0.30841  0.40550  1.0000
  C   C597      1.0  0.78072  0.30017  0.34292  1.0000
  C   C598      1.0  0.75971  0.36191  0.39945  1.0000
  C   C599      1.0  0.72717  0.28706  0.41105  1.0000
  C   C600      1.0  0.77677  0.31203  0.43727  1.0000
  H   H1011     1.0  0.75244  0.32837  0.34498  1.0000
  H   H1012     1.0  0.78110  0.33648  0.35931  1.0000
  H   H1013     1.0  0.73664  0.33571  0.41859  1.0000
  H   H1014     1.0  0.72847  0.34252  0.38423  1.0000
  H   H1015     1.0  0.72618  0.29975  0.36880  1.0000
  H   H1016     1.0  0.75005  0.27811  0.37673  1.0000
  H   H1017     1.0  0.78521  0.28891  0.40171  1.0000
  H   H1018     1.0  0.79592  0.31922  0.39967  1.0000
  H   H1019     1.0  0.76788  0.28576  0.33644  1.0000
  H   H1020     1.0  0.78877  0.30743  0.32345  1.0000
  H   H1021     1.0  0.79610  0.29209  0.35509  1.0000
  H   H1022     1.0  0.76259  0.36996  0.37858  1.0000
  H   H1023     1.0  0.74947  0.37588  0.41202  1.0000
  H   H1024     1.0  0.77760  0.35876  0.40968  1.0000
  H   H1025     1.0  0.71416  0.27240  0.40558  1.0000
  H   H1026     1.0  0.71597  0.30208  0.42052  1.0000
  H   H1027     1.0  0.74004  0.27892  0.42642  1.0000
  H   H1028     1.0  0.78716  0.29719  0.44815  1.0000
  H   H1029     1.0  0.75786  0.31165  0.44519  1.0000
  H   H1030     1.0  0.78548  0.32925  0.44411  1.0000
  H   H1031     1.0  0.69891  0.46307  0.01705  1.0000
  H   H1032     1.0  0.90235  0.20118  0.28198  1.0000
  H   H1033     1.0  0.90482  0.29712  0.03018  1.0000
  S   S181      1.0  0.67267  0.09804  0.25553  1.0000
  H   H1034     1.0  0.85063  0.33401  0.05719  1.0000
  H   H1035     1.0  0.67784  0.11534  0.10298  1.0000
  H   H1036     1.0  0.72161  0.18727  0.09352  1.0000
  C   C601      1.0  0.66702  0.12908  0.11405  1.0000
  H   H1037     1.0  0.87782  0.32691  0.07603  1.0000
  C   C602      1.0  0.90841  0.18557  0.23041  1.0000
  H   H1038     1.0  0.90499  0.23240  0.27251  1.0000
  H   H1039     1.0  0.69875  0.28853  0.04869  1.0000
  C   C603      1.0  0.91551  0.21646  0.28111  1.0000
  C   C604      1.0  0.70791  0.33227  0.49144  1.0000
  N   N43       1.0  0.93708  0.20986  0.26264  1.0000
  H   H1040     1.0  0.78850  0.19826  0.31561  1.0000
  C   C605      1.0  0.89515  0.35702  0.34167  1.0000
  C   C606      1.0  0.70752  0.30711  0.48500  1.0000
  H   H1041     1.0  0.93602  0.17455  0.28279  1.0000
  H   H1042     1.0  0.67518  0.11376  0.15455  1.0000
  H   H1043     1.0  0.73122  0.22135  0.20213  1.0000
  C   C607      1.0  0.92135  0.22268  0.31172  1.0000
  H   H1044     1.0  0.74717  0.16242  0.38001  1.0000
  H   H1045     1.0  0.71477  0.20006  0.29534  1.0000
  H   H1046     1.0  0.94199  0.37999  0.30934  1.0000
  C   C608      1.0  0.78296  0.21198  0.33159  1.0000
  H   H1047     1.0  0.71800  0.18140  0.41308  1.0000
  H   H1048     1.0  0.94174  0.20255  0.21824  1.0000
  H   H1049     1.0  0.74898  0.18102  0.12935  1.0000
  H   H1050     1.0  0.77993  0.18695  0.36581  1.0000
  H   H1051     1.0  0.87699  0.34342  0.01461  1.0000
  H   H1052     1.0  0.68960  0.41536  0.02266  1.0000
  C   C609      1.0  0.72553  0.20900  0.33815  1.0000
  C   C610      1.0  0.92711  0.20621  0.23368  1.0000
  H   H1053     1.0  0.76473  0.21555  0.37071  1.0000
  H   H1054     1.0  0.91798  0.22345  0.22622  1.0000
  C   C611      1.0  0.74737  0.17048  0.32407  1.0000
  H   H1055     1.0  0.97176  0.18115  0.23482  1.0000
  H   H1056     1.0  0.72853  0.22648  0.34959  1.0000
  H   H1057     1.0  0.70667  0.20366  0.34377  1.0000
  C   C612      1.0  0.88411  0.34269  0.03620  1.0000
  H   H1058     1.0  0.72933  0.16272  0.31828  1.0000
  C   C613      1.0  0.68385  0.20169  0.19071  1.0000
  H   H1059     1.0  0.84380  0.31483  0.01395  1.0000
  C   C614      1.0  0.97738  0.22900  0.24503  1.0000
  C   C615      1.0  0.86012  0.28347  0.09556  1.0000
  H   H1060     1.0  0.87671  0.27145  0.09652  1.0000
  S   S182      1.0  0.81197  0.44889  0.50363  1.0000
  H   H1061     1.0  0.69937  0.02963  0.30807  1.0000
  H   H1062     1.0  0.93270  0.20827  0.32194  1.0000
  C   C616      1.0  0.71640  0.45397  0.02312  1.0000
  H   H1063     1.0  0.72654  0.31855  0.02725  1.0000
  C   C617      1.0  0.86932  0.32558  0.05511  1.0000
  C   C618      1.0  0.73787  0.00348  0.24668  1.0000
  H   H1064     1.0  0.68426  0.01896  0.33845  1.0000
  C   C619      1.0  0.66562  0.12819  0.14329  1.0000
  H   H1065     1.0  0.68322  0.20017  0.21373  1.0000
  H   H1066     1.0  0.96330  0.35623  0.29949  1.0000
  H   H1067     1.0  0.91227  0.25278  0.04908  1.0000
  H   H1068     1.0  0.99412  0.28275  0.31771  1.0000
  H   H1069     1.0  0.66577  0.19660  0.18216  1.0000
  H   H1070     1.0  0.74357  0.42764  0.00854  1.0000
  C   C620      1.0  0.79875  0.47886  0.50821  1.0000
  H   H1071     1.0  0.90387  0.33767  0.03597  1.0000
  H   H1072     1.0  0.68873  0.27282  0.49041  1.0000
  C   C621      1.0  0.68893  0.29213  0.49559  1.0000
  C   C622      1.0  0.67889  0.28117  0.01097  1.0000
  H   H1073     1.0  0.89671  0.25728  0.01631  1.0000
  S   S183      1.0  0.66877  0.12244  0.33272  1.0000
  H   H1074     1.0  0.88257  0.36168  0.04462  1.0000
  Fe  Fe92      1.0  0.79898  0.40901  0.50415  1.0000
  C   C623      1.0  0.85722  0.29935  0.01649  1.0000
  H   H1075     1.0  0.67278  0.99701  0.29430  1.0000
  H   H1076     1.0  0.98725  0.24658  0.24616  1.0000
  H   H1077     1.0  0.76110  0.46829  0.50578  1.0000
  S   S184      1.0  0.79140  0.33802  0.50847  1.0000
  C   C624      1.0  0.77345  0.48340  0.50813  1.0000
  H   H1078     1.0  0.85424  0.25923  0.00942  1.0000
  Fe  Fe93      1.0  0.69854  0.08597  0.75370  1.0000
  H   H1079     1.0  0.80182  0.45476  0.63736  1.0000
  S   S185      1.0  0.68674  0.04605  0.76066  1.0000
  Fe  Fe94      1.0  0.73561  0.12680  0.74294  1.0000
  S   S186      1.0  0.70735  0.15645  0.74911  1.0000
  S   S187      1.0  0.77500  0.13742  0.73348  1.0000
  Fe  Fe95      1.0  0.69516  0.13513  0.78630  1.0000
  C   C625      1.0  0.94331  0.26710  0.69095  1.0000
  Fe  Fe96      1.0  0.68309  0.13309  0.72287  1.0000
  C   C626      1.0  0.79195  0.46919  0.00280  1.0000
  S   S188      1.0  0.72490  0.10614  0.78136  1.0000
  S   S189      1.0  0.71202  0.10406  0.71443  1.0000
  C   C627      1.0  0.68483  0.14690  0.61105  1.0000
  S   S190      1.0  0.66798  0.11421  0.76075  1.0000
  H   H1080     1.0  0.71990  0.30400  0.91330  1.0000
  C   C628      1.0  0.81948  0.40407  0.64157  1.0000
  C   C629      1.0  0.78984  0.30615  0.87283  1.0000
  H   H1081     1.0  0.80568  0.31789  0.87752  1.0000
  H   H1082     1.0  0.76960  0.31628  0.94018  1.0000
  H   H1083     1.0  0.78378  0.35905  0.90527  1.0000
  Fe  Fe97      1.0  0.79965  0.36438  0.54318  1.0000
  S   S191      1.0  0.79759  0.35272  0.58881  1.0000
  Fe  Fe98      1.0  0.81798  0.34961  0.98068  1.0000
  S   S192      1.0  0.84492  0.32776  0.95349  1.0000
  S   S193      1.0  0.76996  0.39159  0.53050  1.0000
  S   S194      1.0  0.78796  0.37399  0.96462  1.0000
  Fe  Fe99      1.0  0.90331  0.27694  0.76333  1.0000
  S   S195      1.0  0.89702  0.31757  0.75932  1.0000
  S   S196      1.0  0.94171  0.25872  0.76478  1.0000
  Fe  Fe100     1.0  0.84793  0.26660  0.75763  1.0000
  S   S197      1.0  0.83897  0.30689  0.75249  1.0000
  S   S198      1.0  0.81236  0.24517  0.75991  1.0000
  Fe  Fe101     1.0  0.87149  0.30822  0.72409  1.0000
  S   S199      1.0  0.87724  0.32750  0.68232  1.0000
  Fe  Fe102     1.0  0.86492  0.31242  0.78824  1.0000
  S   S200      1.0  0.85247  0.34009  0.82158  1.0000
  S   S201      1.0  0.87901  0.26758  0.72677  1.0000
  S   S202      1.0  0.87265  0.27222  0.79467  1.0000
  H   H1084     1.0  0.67645  0.44217  0.98561  1.0000
  C   C630      1.0  0.97109  0.27249  0.76672  1.0000
  C   C631      1.0  0.97414  0.29651  0.77632  1.0000
  H   H1085     1.0  0.73687  0.27561  0.53249  1.0000
  H   H1086     1.0  0.95831  0.30726  0.78298  1.0000
  C   C632      1.0  0.82032  0.34442  0.61372  1.0000
  C   C633      1.0  0.84535  0.34701  0.60871  1.0000
  C   C634      1.0  0.86251  0.34159  0.62987  1.0000
  C   C635      1.0  0.85492  0.33316  0.65608  1.0000
  C   C636      1.0  0.82991  0.33022  0.66089  1.0000
  C   C637      1.0  0.81274  0.33598  0.63990  1.0000
  H   H1087     1.0  0.85149  0.35348  0.58871  1.0000
  H   H1088     1.0  0.88181  0.34396  0.62593  1.0000
  H   H1089     1.0  0.82379  0.32392  0.68099  1.0000
  H   H1090     1.0  0.79344  0.33412  0.64415  1.0000
  C   C638      1.0  0.84718  0.33152  0.91685  1.0000
  C   C639      1.0  0.83837  0.35274  0.90365  1.0000
  C   C640      1.0  0.84045  0.35511  0.87456  1.0000
  C   C641      1.0  0.85101  0.33620  0.85822  1.0000
  C   C642      1.0  0.85966  0.31488  0.87139  1.0000
  C   C643      1.0  0.85791  0.31266  0.90057  1.0000
  H   H1091     1.0  0.83035  0.36753  0.91588  1.0000
  H   H1092     1.0  0.83384  0.37173  0.86461  1.0000
  H   H1093     1.0  0.86790  0.30023  0.85911  1.0000
  H   H1094     1.0  0.86488  0.29620  0.91054  1.0000
  H   H1095     1.0  0.69880  0.45339  0.96226  1.0000
  H   H1096     1.0  0.73991  0.28751  0.93719  1.0000
  S   S203      1.0  0.72835  0.33900  0.97120  1.0000
  H   H1097     1.0  0.77776  0.44819  0.56001  1.0000
  H   H1098     1.0  0.80785  0.27075  0.88452  1.0000
  H   H1099     1.0  0.78301  0.35467  0.86800  1.0000
  S   S204      1.0  0.69502  0.15825  0.82625  1.0000
  H   H1100     1.0  0.85879  0.45352  0.55268  1.0000
  H   H1101     1.0  0.78726  0.26940  0.92907  1.0000
  H   H1102     1.0  0.83356  0.45787  0.63048  1.0000
  H   H1103     1.0  0.69671  0.30986  0.58472  1.0000
  C   C644      1.0  0.66381  0.15675  0.65453  1.0000
  H   H1104     1.0  0.69855  0.13619  0.59988  1.0000
  H   H1105     1.0  0.98476  0.30480  0.72054  1.0000
  H   H1106     1.0  0.69693  0.18603  0.87682  1.0000
  C   C645      1.0  0.78544  0.16754  0.74009  1.0000
  C   C646      1.0  0.81011  0.17317  0.73537  1.0000
  C   C647      1.0  0.81885  0.19689  0.74097  1.0000
  C   C648      1.0  0.80287  0.21522  0.75117  1.0000
  C   C649      1.0  0.77818  0.20964  0.75535  1.0000
  C   C650      1.0  0.76959  0.18596  0.75017  1.0000
  H   H1107     1.0  0.82259  0.15907  0.72760  1.0000
  H   H1108     1.0  0.83793  0.20095  0.73764  1.0000
  H   H1109     1.0  0.76568  0.22365  0.76329  1.0000
  H   H1110     1.0  0.75072  0.18200  0.75435  1.0000
  H   H1111     1.0  0.72866  0.43412  0.93238  1.0000
  H   H1112     1.0  0.79588  0.28706  0.95784  1.0000
  H   H1113     1.0  0.81687  0.45527  0.56208  1.0000
  H   H1114     1.0  0.72537  0.26091  0.58253  1.0000
  H   H1115     1.0  0.86521  0.42935  0.57660  1.0000
  H   H1116     1.0  0.81552  0.28611  0.92784  1.0000
  C   C651      1.0  0.67768  0.42426  0.94542  1.0000
  H   H1117     1.0  0.78948  0.40829  0.58545  1.0000
  Fe  Fe103     1.0  0.76277  0.35293  0.99222  1.0000
  H   H1118     1.0  0.97184  0.32173  0.64590  1.0000
  C   C652      1.0  0.69788  0.01539  0.75491  1.0000
  C   C653      1.0  0.82625  0.43996  0.57298  1.0000
  H   H1119     1.0  0.69767  0.34870  0.57200  1.0000
  H   H1120     1.0  0.72136  0.27137  0.91304  1.0000
  H   H1121     1.0  0.83326  0.39107  0.65057  1.0000
  H   H1122     1.0  0.80265  0.39338  0.63828  1.0000
  N   N44       1.0  0.77284  0.15378  0.83745  1.0000
  C   C654      1.0  0.75554  0.13387  0.84596  1.0000
  C   C655      1.0  0.78137  0.14772  0.80833  1.0000
  C   C656      1.0  0.75837  0.17766  0.83677  1.0000
  C   C657      1.0  0.79349  0.15472  0.85825  1.0000
  C   C658      1.0  0.74360  0.13655  0.87497  1.0000
  C   C659      1.0  0.79512  0.12290  0.80470  1.0000
  C   C660      1.0  0.77279  0.20096  0.83055  1.0000
  C   C661      1.0  0.81786  0.16584  0.84829  1.0000
  H   H1123     1.0  0.74045  0.13227  0.83060  1.0000
  H   H1124     1.0  0.76505  0.11564  0.84609  1.0000
  H   H1125     1.0  0.79329  0.16196  0.79970  1.0000
  H   H1126     1.0  0.76541  0.14751  0.79387  1.0000
  H   H1127     1.0  0.74340  0.17664  0.82108  1.0000
  H   H1128     1.0  0.74921  0.18146  0.85697  1.0000
  H   H1129     1.0  0.78744  0.16502  0.87718  1.0000
  H   H1130     1.0  0.79832  0.13582  0.86543  1.0000
  H   H1131     1.0  0.75718  0.13910  0.89176  1.0000
  H   H1132     1.0  0.72955  0.15149  0.87559  1.0000
  H   H1133     1.0  0.73365  0.11948  0.87965  1.0000
  H   H1134     1.0  0.78212  0.10753  0.80407  1.0000
  H   H1135     1.0  0.80477  0.12271  0.78434  1.0000
  H   H1136     1.0  0.80899  0.11946  0.82105  1.0000
  H   H1137     1.0  0.78528  0.20551  0.84790  1.0000
  H   H1138     1.0  0.75965  0.21667  0.82843  1.0000
  H   H1139     1.0  0.78305  0.19976  0.81078  1.0000
  H   H1140     1.0  0.82593  0.17643  0.86568  1.0000
  H   H1141     1.0  0.81642  0.17855  0.83054  1.0000
  H   H1142     1.0  0.83155  0.15111  0.84335  1.0000
  N   N45       1.0  0.73712  0.19343  0.67074  1.0000
  C   C662      1.0  0.73335  0.16754  0.68061  1.0000
  C   C663      1.0  0.72523  0.21045  0.69185  1.0000
  C   C664      1.0  0.76442  0.19750  0.66952  1.0000
  C   C665      1.0  0.72568  0.19579  0.64233  1.0000
  C   C666      1.0  0.74640  0.14702  0.66357  1.0000
  C   C667      1.0  0.69723  0.20861  0.69494  1.0000
  C   C668      1.0  0.77318  0.22411  0.67226  1.0000
  C   C669      1.0  0.72493  0.22148  0.62919  1.0000
  H   H1143     1.0  0.73969  0.16551  0.70244  1.0000
  H   H1144     1.0  0.71363  0.16300  0.68083  1.0000
  H   H1145     1.0  0.72870  0.22997  0.68740  1.0000
  H   H1146     1.0  0.73344  0.20728  0.71277  1.0000
  H   H1147     1.0  0.77402  0.18736  0.68657  1.0000
  H   H1148     1.0  0.77232  0.18987  0.64987  1.0000
  H   H1149     1.0  0.73559  0.18386  0.62705  1.0000
  H   H1150     1.0  0.70681  0.18850  0.64191  1.0000
  H   H1151     1.0  0.76655  0.14896  0.66317  1.0000
  H   H1152     1.0  0.74299  0.12914  0.67362  1.0000
  H   H1153     1.0  0.73912  0.14568  0.64212  1.0000
  H   H1154     1.0  0.68740  0.21123  0.67498  1.0000
  H   H1155     1.0  0.72357  0.32196  0.61911  1.0000
  H   H1156     1.0  0.69050  0.22322  0.70937  1.0000
  H   H1157     1.0  0.79315  0.22446  0.66790  1.0000
  H   H1158     1.0  0.77080  0.23100  0.69391  1.0000
  H   H1159     1.0  0.76401  0.23681  0.65757  1.0000
  H   H1160     1.0  0.74226  0.22509  0.61801  1.0000
  H   H1161     1.0  0.72089  0.23639  0.64420  1.0000
  H   H1162     1.0  0.70954  0.22237  0.61408  1.0000
  N   N46       1.0  0.95931  0.31122  0.68666  1.0000
  H   H1163     1.0  0.82828  0.49173  0.60322  1.0000
  C   C670      1.0  0.94147  0.29421  0.70015  1.0000
  C   C671      1.0  0.95174  0.33727  0.69364  1.0000
  C   C672      1.0  0.95936  0.30832  0.65552  1.0000
  H   H1164     1.0  0.71465  0.39199  0.95355  1.0000
  C   C673      1.0  0.67124  0.32731  0.51949  1.0000
  C   C674      1.0  0.93447  0.31255  0.64088  1.0000
  C   C675      1.0  0.71692  0.35451  0.57385  1.0000
  C   C676      1.0  0.72769  0.43806  0.99953  1.0000
  H   H1165     1.0  0.98998  0.24016  0.75112  1.0000
  S   S205      1.0  0.82901  0.38279  0.51867  1.0000
  S   S206      1.0  0.79785  0.43883  0.98993  1.0000
  H   H1166     1.0  0.74282  0.27788  0.62426  1.0000
  H   H1167     1.0  0.68922  0.36173  0.51315  1.0000
  H   H1168     1.0  0.73075  0.02480  0.73322  1.0000
  C   C677      1.0  0.71004  0.31621  0.98673  1.0000
  H   H1169     1.0  0.91900  0.30436  0.65209  1.0000
  H   H1170     1.0  0.68916  0.30993  0.94941  1.0000
  C   C678      1.0  0.95456  0.34483  0.72442  1.0000
  H   H1171     1.0  0.75373  0.43379  0.57805  1.0000
  H   H1172     1.0  0.96203  0.35057  0.68089  1.0000
  H   H1173     1.0  0.92970  0.25651  0.70284  1.0000
  H   H1174     1.0  0.96146  0.25870  0.69571  1.0000
  H   H1175     1.0  0.82407  0.42390  0.55888  1.0000
  C   C679      1.0  0.67059  0.30224  0.51281  1.0000
  H   H1176     1.0  0.78017  0.42262  0.61708  1.0000
  H   H1177     1.0  0.66917  0.19019  0.91760  1.0000
  N   N47       1.0  0.71044  0.42099  0.98480  1.0000
  C   C680      1.0  0.67008  0.16400  0.59649  1.0000
  C   C681      1.0  0.75257  0.29535  0.62593  1.0000
  C   C682      1.0  0.75313  0.28724  0.53508  1.0000
  H   H1178     1.0  0.93040  0.33242  0.63798  1.0000
  H   H1179     1.0  0.78651  0.26880  0.85574  1.0000
  H   H1180     1.0  0.81570  0.28213  0.85114  1.0000
  C   C683      1.0  0.81531  0.45688  0.62021  1.0000
  H   H1181     1.0  0.75917  0.37156  0.88527  1.0000
  C   C684      1.0  0.80034  0.28031  0.86614  1.0000
  H   H1182     1.0  0.93884  0.26468  0.66865  1.0000
  C   C685      1.0  0.82948  0.41410  0.61391  1.0000
  H   H1183     1.0  0.73586  0.45121  0.98467  1.0000
  H   H1184     1.0  0.80853  0.48600  0.96713  1.0000
  C   C686      1.0  0.69081  0.43620  0.97044  1.0000
  N   N48       1.0  0.73593  0.31064  0.57801  1.0000
  H   H1185     1.0  0.84856  0.41964  0.61845  1.0000
  H   H1186     1.0  0.76674  0.46011  0.59341  1.0000
  H   H1187     1.0  0.94380  0.29439  0.72304  1.0000
  N   N49       1.0  0.77087  0.30846  0.89565  1.0000
  C   C687      1.0  0.75653  0.33214  0.89116  1.0000
  C   C688      1.0  0.75303  0.28780  0.89362  1.0000
  C   C689      1.0  0.78278  0.30992  0.92389  1.0000
  C   C690      1.0  0.77180  0.35543  0.88725  1.0000
  C   C691      1.0  0.73255  0.28799  0.91570  1.0000
  C   C692      1.0  0.79612  0.28669  0.93475  1.0000
  H   H1188     1.0  0.74454  0.33070  0.87249  1.0000
  H   H1189     1.0  0.74405  0.33615  0.90901  1.0000
  H   H1190     1.0  0.76226  0.26957  0.89498  1.0000
  H   H1191     1.0  0.74411  0.28786  0.87277  1.0000
  H   H1192     1.0  0.78226  0.31305  0.85273  1.0000
  H   H1193     1.0  0.79666  0.32447  0.92416  1.0000
  H   H1194     1.0  0.83114  0.39829  0.59917  1.0000
  C   C693      1.0  0.68166  0.14319  0.63987  1.0000
  H   H1195     1.0  0.99038  0.28613  0.69124  1.0000
  C   C694      1.0  0.77126  0.44341  0.58109  1.0000
  H   H1196     1.0  0.94689  0.36370  0.72731  1.0000
  H   H1197     1.0  0.94434  0.33278  0.73853  1.0000
  H   H1198     1.0  0.75337  0.33177  0.61058  1.0000
  H   H1199     1.0  0.77411  0.30563  0.56684  1.0000
  H   H1200     1.0  0.81608  0.41873  0.65720  1.0000
  C   C695      1.0  0.79921  0.48931  0.98669  1.0000
  H   H1201     1.0  0.68826  0.37340  0.97978  1.0000
  C   C696      1.0  0.69181  0.30482  0.97088  1.0000
  H   H1202     1.0  0.75633  0.42858  0.95219  1.0000
  H   H1203     1.0  0.83403  0.49561  0.51163  1.0000
  H   H1204     1.0  0.71854  0.37125  0.56094  1.0000
  C   C697      1.0  0.84351  0.27643  0.00671  1.0000
  C   C698      1.0  0.99203  0.25878  0.75846  1.0000
  C   C699      1.0  0.73518  0.33479  0.56274  1.0000
  N   N50       1.0  0.81489  0.43495  0.60091  1.0000
  S   S207      1.0  0.79241  0.32708  0.00614  1.0000
  H   H1205     1.0  0.69442  0.26324  0.57292  1.0000
  H   H1206     1.0  0.75190  0.30290  0.52055  1.0000
  H   H1207     1.0  0.73059  0.33214  0.54057  1.0000
  C   C700      1.0  0.67658  0.28709  0.98278  1.0000
  H   H1208     1.0  0.87181  0.30272  0.00083  1.0000
  C   C701      1.0  0.70877  0.27256  0.58526  1.0000
  H   H1209     1.0  0.96730  0.29025  0.64886  1.0000
  H   H1210     1.0  0.70572  0.29897  0.55215  1.0000
  C   C702      1.0  0.78913  0.42618  0.59677  1.0000
  C   C703      1.0  0.68096  0.38564  0.99633  1.0000
  C   C704      1.0  0.75664  0.29544  0.56557  1.0000
  Fe  Fe104     1.0  0.79487  0.39820  0.00192  1.0000
  C   C705      1.0  0.72564  0.40558  0.96489  1.0000
  H   H1211     1.0  0.69203  0.19102  0.70439  1.0000
  C   C706      1.0  0.74078  0.31605  0.60837  1.0000
  H   H1212     1.0  0.70309  0.27275  0.60744  1.0000
  C   C707      1.0  0.85367  0.44608  0.57332  1.0000
  H   H1213     1.0  0.93479  0.30320  0.62033  1.0000
  C   C708      1.0  0.71144  0.29885  0.57429  1.0000
  H   H1214     1.0  0.85802  0.46008  0.58922  1.0000
  C   C709      1.0  0.67437  0.16044  0.85478  1.0000
  H   H1215     1.0  0.76029  0.27835  0.57735  1.0000
  H   H1216     1.0  0.76934  0.27599  0.52855  1.0000
  H   H1217     1.0  0.75353  0.34320  0.56261  1.0000
  H   H1218     1.0  0.68545  0.43076  0.92548  1.0000
  C   C710      1.0  0.71981  0.00998  0.74089  1.0000
  H   H1219     1.0  0.75227  0.30094  0.64817  1.0000
  H   H1220     1.0  0.74704  0.40693  0.92675  1.0000
  H   H1221     1.0  0.66241  0.27873  0.97049  1.0000
  C   C711      1.0  0.68020  0.17581  0.87732  1.0000
  H   H1222     1.0  0.83949  0.27825  0.98414  1.0000
  H   H1223     1.0  0.93213  0.34068  0.68814  1.0000
  H   H1224     1.0  0.92220  0.30058  0.69716  1.0000
  H   H1225     1.0  0.77216  0.29244  0.62028  1.0000
  H   H1226     1.0  0.69277  0.12961  0.65064  1.0000
  H   H1227     1.0  0.72094  0.35995  0.59558  1.0000
  C   C712      1.0  0.98459  0.30503  0.69748  1.0000
  C   C713      1.0  0.74004  0.41991  0.94289  1.0000
  H   H1228     1.0  0.97398  0.34511  0.73104  1.0000
  C   C714      1.0  0.81069  0.48247  0.60707  1.0000
  C   C715      1.0  0.68958  0.34227  0.50865  1.0000
  H   H1229     1.0  0.73918  0.39417  0.97661  1.0000
  H   H1230     1.0  0.80072  0.49437  0.62232  1.0000
  C   C716      1.0  0.66448  0.17825  0.90049  1.0000
  H   H1231     1.0  0.67742  0.40403  0.94541  1.0000
  H   H1232     1.0  0.79963  0.48281  0.58786  1.0000
  S   S208      1.0  0.67480  0.16793  0.56016  1.0000
  H   H1233     1.0  0.66699  0.99966  0.77565  1.0000
  C   C717      1.0  0.69958  0.40449  0.00650  1.0000
  H   H1234     1.0  0.66364  0.39475  0.98955  1.0000
  Fe  Fe105     1.0  0.74179  0.86181  0.25436  1.0000
  S   S209      1.0  0.71009  0.83896  0.26778  1.0000
  S   S210      1.0  0.78025  0.84764  0.26485  1.0000
  Fe  Fe106     1.0  0.70865  0.90648  0.23907  1.0000
  H   H1235     1.0  0.86218  0.53731  0.04371  1.0000
  S   S211      1.0  0.69708  0.94466  0.22285  1.0000
  Fe  Fe107     1.0  0.69602  0.87319  0.28898  1.0000
  H   H1236     1.0  0.67493  0.82653  0.32608  1.0000
  Fe  Fe108     1.0  0.69206  0.85358  0.22880  1.0000
  C   C718      1.0  0.98174  0.72236  0.26308  1.0000
  S   S212      1.0  0.72870  0.89555  0.27798  1.0000
  S   S213      1.0  0.72454  0.87455  0.21399  1.0000
  H   H1237     1.0  0.83161  0.57598  0.38009  1.0000
  H   H1238     1.0  0.75409  0.79906  0.34648  1.0000
  H   H1239     1.0  0.89353  0.72837  0.33132  1.0000
  H   H1240     1.0  0.81275  0.74266  0.28293  1.0000
  H   H1241     1.0  0.77693  0.77574  0.33856  1.0000
  H   H1242     1.0  0.71575  0.77608  0.27534  1.0000
  H   H1243     1.0  0.79439  0.56467  0.12515  1.0000
  Fe  Fe109     1.0  0.82394  0.62625  0.03495  1.0000
  S   S214      1.0  0.85372  0.63870  0.06477  1.0000
  Fe  Fe110     1.0  0.81610  0.62667  0.47243  1.0000
  S   S215      1.0  0.83687  0.62188  0.43108  1.0000
  S   S216      1.0  0.78653  0.61728  0.04988  1.0000
  S   S217      1.0  0.77572  0.61991  0.47480  1.0000
  Fe  Fe111     1.0  0.90708  0.69553  0.25132  1.0000
  S   S218      1.0  0.88222  0.66480  0.26446  1.0000
  S   S219      1.0  0.94806  0.68460  0.25604  1.0000
  Fe  Fe112     1.0  0.86232  0.72817  0.23466  1.0000
  S   S220      1.0  0.83579  0.69967  0.24739  1.0000
  S   S221      1.0  0.84403  0.76009  0.21159  1.0000
  Fe  Fe113     1.0  0.85927  0.69422  0.28530  1.0000
  S   S222      1.0  0.84126  0.69618  0.32843  1.0000
  Fe  Fe114     1.0  0.86099  0.67303  0.22518  1.0000
  S   S223      1.0  0.84235  0.64530  0.19686  1.0000
  S   S224      1.0  0.88473  0.72479  0.27393  1.0000
  S   S225      1.0  0.88684  0.70162  0.21070  1.0000
  H   H1244     1.0  0.71568  0.74190  0.34271  1.0000
  C   C719      1.0  0.97792  0.69762  0.25689  1.0000
  H   H1245     1.0  0.73036  0.91739  0.14538  1.0000
  C   C720      1.0  0.89633  0.73225  0.35358  1.0000
  H   H1246     1.0  0.96617  0.73455  0.26664  1.0000
  C   C721      1.0  0.83706  0.64246  0.40239  1.0000
  C   C722      1.0  0.82645  0.66599  0.40393  1.0000
  C   C723      1.0  0.82764  0.68194  0.38094  1.0000
  C   C724      1.0  0.83926  0.67459  0.35604  1.0000
  C   C725      1.0  0.84965  0.65094  0.35437  1.0000
  C   C726      1.0  0.84867  0.63506  0.37747  1.0000
  H   H1247     1.0  0.81752  0.67200  0.42294  1.0000
  H   H1248     1.0  0.81960  0.70019  0.38256  1.0000
  H   H1249     1.0  0.85849  0.64490  0.33534  1.0000
  H   H1250     1.0  0.85695  0.61692  0.37601  1.0000
  C   C727      1.0  0.84587  0.64372  0.16015  1.0000
  C   C728      1.0  0.86582  0.65401  0.14657  1.0000
  C   C729      1.0  0.86802  0.65220  0.11740  1.0000
  C   C730      1.0  0.85008  0.64058  0.10141  1.0000
  C   C731      1.0  0.82998  0.63054  0.11496  1.0000
  C   C732      1.0  0.82805  0.63187  0.14418  1.0000
  H   H1251     1.0  0.87975  0.66307  0.15858  1.0000
  H   H1252     1.0  0.88370  0.65994  0.10717  1.0000
  H   H1253     1.0  0.81595  0.62169  0.10296  1.0000
  H   H1254     1.0  0.81249  0.62396  0.15446  1.0000
  H   H1255     1.0  0.76273  0.55120  0.42250  1.0000
  N   N51       1.0  0.66725  0.90611  0.14421  1.0000
  S   S226      1.0  0.81382  0.65926  0.50088  1.0000
  H   H1256     1.0  0.87630  0.57664  0.04016  1.0000
  H   H1257     1.0  0.85439  0.58562  0.09740  1.0000
  H   H1258     1.0  0.67309  0.99179  0.21790  1.0000
  C   C733      1.0  0.81437  0.56178  0.12181  1.0000
  C   C734      1.0  0.66550  0.97140  0.34079  1.0000
  C   C735      1.0  0.87314  0.54930  0.12571  1.0000
  S   S227      1.0  0.82558  0.60096  0.50781  1.0000
  H   H1259     1.0  0.82076  0.54869  0.13798  1.0000
  H   H1260     1.0  0.69861  0.71070  0.45174  1.0000
  C   C736      1.0  0.68962  0.74560  0.41355  1.0000
  C   C737      1.0  0.66845  0.82390  0.10683  1.0000
  H   H1261     1.0  0.77181  0.51717  0.44865  1.0000
  C   C738      1.0  0.79707  0.82274  0.24978  1.0000
  C   C739      1.0  0.81584  0.81135  0.26540  1.0000
  C   C740      1.0  0.82977  0.79156  0.25436  1.0000
  C   C741      1.0  0.82547  0.78335  0.22726  1.0000
  C   C742      1.0  0.80672  0.79475  0.21159  1.0000
  C   C743      1.0  0.79237  0.81414  0.22290  1.0000
  H   H1262     1.0  0.81971  0.81797  0.28614  1.0000
  H   H1263     1.0  0.84436  0.78319  0.26648  1.0000
  H   H1264     1.0  0.80346  0.78873  0.19050  1.0000
  H   H1265     1.0  0.77814  0.82288  0.21057  1.0000
  H   H1266     1.0  0.83820  0.50212  0.03280  1.0000
  H   H1267     1.0  0.72859  0.72430  0.03336  1.0000
  H   H1268     1.0  0.79379  0.73707  0.31204  1.0000
  H   H1269     1.0  0.71038  0.77481  0.43260  1.0000
  H   H1270     1.0  0.81930  0.50571  0.06254  1.0000
  H   H1271     1.0  0.78230  0.76866  0.26052  1.0000
  C   C744      1.0  0.70710  0.97475  0.23108  1.0000
  H   H1272     1.0  0.95687  0.69934  0.32066  1.0000
  H   H1273     1.0  0.74307  0.96394  0.24526  1.0000
  H   H1274     1.0  0.78200  0.80693  0.33040  1.0000
  C   C745      1.0  0.71526  0.71313  0.02290  1.0000
  H   H1275     1.0  0.70680  0.93976  0.15235  1.0000
  H   H1276     1.0  0.80465  0.76784  0.30455  1.0000
  Fe  Fe115     1.0  0.78784  0.58671  0.01779  1.0000
  H   H1277     1.0  0.80999  0.53282  0.09296  1.0000
  C   C746      1.0  0.81848  0.55109  0.09250  1.0000
  H   H1278     1.0  0.71876  0.77349  0.33379  1.0000
  C   C747      1.0  0.69051  0.70410  0.43203  1.0000
  H   H1279     1.0  0.70452  0.84145  0.16140  1.0000
  H   H1280     1.0  0.68038  0.70857  0.37817  1.0000
  H   H1281     1.0  0.77186  0.73829  0.26499  1.0000
  N   N52       1.0  0.81639  0.71622  0.13453  1.0000
  C   C748      1.0  0.84198  0.72071  0.12400  1.0000
  C   C749      1.0  0.80581  0.69632  0.11657  1.0000
  C   C750      1.0  0.81874  0.70726  0.16409  1.0000
  C   C751      1.0  0.80180  0.74004  0.13336  1.0000
  C   C752      1.0  0.85749  0.73833  0.14155  1.0000
  C   C753      1.0  0.80531  0.70144  0.08504  1.0000
  C   C754      1.0  0.79543  0.69806  0.17824  1.0000
  C   C755      1.0  0.77359  0.73822  0.13208  1.0000
  H   H1282     1.0  0.85264  0.70310  0.12223  1.0000
  H   H1283     1.0  0.84152  0.72854  0.10266  1.0000
  H   H1284     1.0  0.78688  0.69187  0.12254  1.0000
  H   H1285     1.0  0.81635  0.67890  0.11956  1.0000
  H   H1286     1.0  0.83268  0.69216  0.16534  1.0000
  H   H1287     1.0  0.82557  0.72194  0.17794  1.0000
  H   H1288     1.0  0.80636  0.75198  0.15143  1.0000
  H   H1289     1.0  0.80704  0.75056  0.11453  1.0000
  H   H1290     1.0  0.84781  0.75601  0.14587  1.0000
  H   H1291     1.0  0.86337  0.72977  0.16141  1.0000
  H   H1292     1.0  0.87451  0.74253  0.13002  1.0000
  H   H1293     1.0  0.79781  0.71997  0.08020  1.0000
  H   H1294     1.0  0.82382  0.69901  0.07575  1.0000
  H   H1295     1.0  0.79346  0.68786  0.07459  1.0000
  H   H1296     1.0  0.78682  0.68288  0.16673  1.0000
  H   H1297     1.0  0.78223  0.71333  0.18243  1.0000
  H   H1298     1.0  0.80059  0.69039  0.19883  1.0000
  H   H1299     1.0  0.76525  0.75405  0.14355  1.0000
  H   H1300     1.0  0.76592  0.72156  0.14130  1.0000
  H   H1301     1.0  0.76703  0.74015  0.11031  1.0000
  N   N53       1.0  0.84458  0.54953  0.08215  1.0000
  S   S228      1.0  0.77583  0.54878  0.03304  1.0000
  C   C756      1.0  0.86088  0.53504  0.10176  1.0000
  C   C757      1.0  0.81183  0.57243  0.38284  1.0000
  C   C758      1.0  0.87847  0.57727  0.06312  1.0000
  H   H1302     1.0  0.85053  0.51978  0.11121  1.0000
  C   C759      1.0  0.66935  0.83170  0.34691  1.0000
  H   H1303     1.0  0.70057  0.88475  0.13765  1.0000
  H   H1304     1.0  0.71206  0.91419  0.17561  1.0000
  H   H1305     1.0  0.87630  0.52598  0.09021  1.0000
  H   H1306     1.0  0.72795  0.74890  0.25955  1.0000
  C   C760      1.0  0.85333  0.57524  0.07759  1.0000
  H   H1307     1.0  0.69960  0.92859  0.35935  1.0000
  H   H1308     1.0  0.88651  0.59529  0.06822  1.0000
  H   H1309     1.0  0.89173  0.56276  0.06959  1.0000
  H   H1310     1.0  0.76820  0.58374  0.42448  1.0000
  H   H1311     1.0  0.72295  0.78552  0.22830  1.0000
  H   H1312     1.0  0.88254  0.53598  0.13973  1.0000
  H   H1313     1.0  0.95648  0.68482  0.36887  1.0000
  N   N54       1.0  0.81325  0.54454  0.42610  1.0000
  C   C761      1.0  0.83993  0.55057  0.42994  1.0000
  H   H1314     1.0  0.77634  0.50881  0.41214  1.0000
  C   C762      1.0  0.81016  0.51826  0.43493  1.0000
  C   C763      1.0  0.79787  0.56184  0.44379  1.0000
  C   C764      1.0  0.85045  0.54722  0.45951  1.0000
  H   H1315     1.0  0.67014  0.67050  0.42174  1.0000
  H   H1316     1.0  0.75328  0.77284  0.22792  1.0000
  C   C765      1.0  0.68211  0.94781  0.29968  1.0000
  H   H1317     1.0  0.85173  0.53939  0.41558  1.0000
  H   H1318     1.0  0.84323  0.57002  0.42452  1.0000
  H   H1319     1.0  0.87992  0.74301  0.36054  1.0000
  H   H1320     1.0  0.71836  0.92291  0.32903  1.0000
  H   H1321     1.0  0.82249  0.50582  0.42260  1.0000
  H   H1322     1.0  0.81558  0.51574  0.45695  1.0000
  H   H1323     1.0  0.67839  0.76085  0.40456  1.0000
  H   H1324     1.0  0.70628  0.69975  0.41801  1.0000
  H   H1325     1.0  0.85353  0.52758  0.46465  1.0000
  H   H1326     1.0  0.86859  0.55601  0.46063  1.0000
  H   H1327     1.0  0.83876  0.55613  0.47556  1.0000
  C   C766      1.0  0.84409  0.53672  0.05420  1.0000
  C   C767      1.0  0.77484  0.49826  0.03665  1.0000
  H   H1328     1.0  0.83096  0.54622  0.03988  1.0000
  C   C768      1.0  0.70278  0.75689  0.43877  1.0000
  H   H1329     1.0  0.79812  0.55582  0.46583  1.0000
  N   N55       1.0  0.68665  0.96762  0.32095  1.0000
  H   H1330     1.0  0.67513  0.87843  0.17546  1.0000
  N   N56       1.0  0.67405  0.72358  0.41933  1.0000
  C   C769      1.0  0.69395  0.90418  0.13627  1.0000
  H   H1331     1.0  0.80696  0.56228  0.07799  1.0000
  Fe  Fe116     1.0  0.77285  0.64209  0.01569  1.0000
  C   C770      1.0  0.73049  0.97917  0.24159  1.0000
  H   H1332     1.0  0.71848  0.74525  0.44578  1.0000
  C   C771      1.0  0.68993  0.99123  0.30512  1.0000
  C   C772      1.0  0.78220  0.51839  0.02058  1.0000
  H   H1333     1.0  0.80341  0.57330  0.36184  1.0000
  H   H1334     1.0  0.74633  0.80102  0.24676  1.0000
  C   C773      1.0  0.72101  0.68844  0.01683  1.0000
  H   H1335     1.0  0.94425  0.71295  0.38155  1.0000
  C   C774      1.0  0.71147  0.91991  0.15360  1.0000
  H   H1336     1.0  0.81925  0.53346  0.38334  1.0000
  H   H1337     1.0  0.91227  0.74418  0.35679  1.0000
  H   H1338     1.0  0.69714  0.90925  0.11432  1.0000
  H   H1339     1.0  0.91854  0.64094  0.33247  1.0000
  H   H1340     1.0  0.66386  0.88161  0.38913  1.0000
  C   C775      1.0  0.76780  0.79261  0.33087  1.0000
  H   H1341     1.0  0.67047  0.98451  0.35754  1.0000
  C   C776      1.0  0.67863  0.67972  0.43975  1.0000
  H   H1342     1.0  0.88741  0.56171  0.11793  1.0000
  H   H1343     1.0  0.94573  0.65904  0.32846  1.0000
  H   H1344     1.0  0.92451  0.65606  0.30049  1.0000
  H   H1345     1.0  0.85143  0.49803  0.06635  1.0000
  H   H1346     1.0  0.72628  0.96627  0.32304  1.0000
  H   H1347     1.0  0.67655  0.87983  0.09044  1.0000
  H   H1348     1.0  0.94076  0.72724  0.32977  1.0000
  H   H1349     1.0  0.70307  0.75269  0.31076  1.0000
  C   C777      1.0  0.80775  0.54682  0.39547  1.0000
  C   C778      1.0  0.67053  0.85623  0.35533  1.0000
  H   H1350     1.0  0.76534  0.50160  0.05608  1.0000
  H   H1351     1.0  0.82286  0.57981  0.12475  1.0000
  N   N57       1.0  0.91730  0.68978  0.36211  1.0000
  C   C779      1.0  0.91516  0.66828  0.38165  1.0000
  C   C780      1.0  0.91116  0.68075  0.33330  1.0000
  C   C781      1.0  0.89846  0.70885  0.37113  1.0000
  C   C782      1.0  0.94290  0.69970  0.36396  1.0000
  C   C783      1.0  0.91767  0.67408  0.41295  1.0000
  C   C784      1.0  0.68877  0.83446  0.15057  1.0000
  H   H1352     1.0  0.78874  0.54182  0.39044  1.0000
  H   H1353     1.0  0.74100  0.72919  0.30092  1.0000
  H   H1354     1.0  0.89721  0.65920  0.37880  1.0000
  H   H1355     1.0  0.92940  0.65394  0.37703  1.0000
  H   H1356     1.0  0.91348  0.69516  0.31737  1.0000
  H   H1357     1.0  0.89146  0.67611  0.33195  1.0000
  H   H1358     1.0  0.87997  0.70068  0.37188  1.0000
  H   H1359     1.0  0.90214  0.71546  0.39259  1.0000
  H   H1360     1.0  0.73800  0.80105  0.30329  1.0000
  C   C785      1.0  0.95301  0.71253  0.33781  1.0000
  H   H1361     1.0  0.92000  0.65661  0.42458  1.0000
  H   H1362     1.0  0.93376  0.68547  0.41750  1.0000
  H   H1363     1.0  0.90076  0.68311  0.42124  1.0000
  H   H1364     1.0  0.70450  0.83902  0.10978  1.0000
  C   C786      1.0  0.92601  0.65792  0.32340  1.0000
  C   C787      1.0  0.77074  0.56586  0.43520  1.0000
  H   H1365     1.0  0.80348  0.58745  0.39546  1.0000
  H   H1366     1.0  0.75673  0.74411  0.32758  1.0000
  C   C788      1.0  0.71467  0.93565  0.34661  1.0000
  S   S229      1.0  0.67516  0.88583  0.25142  1.0000
  C   C789      1.0  0.71019  0.96215  0.33643  1.0000
  H   H1367     1.0  0.73135  0.93504  0.35980  1.0000
  H   H1368     1.0  0.69312  0.66699  0.44777  1.0000
  C   C790      1.0  0.66836  0.82709  0.16568  1.0000
  H   H1369     1.0  0.97070  0.72111  0.34302  1.0000
  S   S230      1.0  0.68085  0.87947  0.33268  1.0000
  H   H1370     1.0  0.75932  0.56733  0.45429  1.0000
  H   H1371     1.0  0.83986  0.58593  0.06486  1.0000
  C   C791      1.0  0.68875  0.83296  0.12132  1.0000
  H   H1372     1.0  0.76699  0.80192  0.28743  1.0000
  N   N58       1.0  0.75225  0.76562  0.28967  1.0000
  C   C792      1.0  0.73297  0.76748  0.26714  1.0000
  C   C793      1.0  0.74327  0.74754  0.31081  1.0000
  C   C794      1.0  0.77548  0.75570  0.27635  1.0000
  C   C795      1.0  0.75586  0.79088  0.30174  1.0000
  C   C796      1.0  0.73961  0.78262  0.24124  1.0000
  C   C797      1.0  0.71880  0.75461  0.32514  1.0000
  C   C798      1.0  0.79752  0.75066  0.29560  1.0000
  H   H1373     1.0  0.80603  0.58037  0.44397  1.0000
  H   H1374     1.0  0.86014  0.56012  0.13865  1.0000
  H   H1375     1.0  0.70388  0.98859  0.28852  1.0000
  H   H1376     1.0  0.70392  0.74106  0.39770  1.0000
  S   S231      1.0  0.75074  0.67707  0.02525  1.0000
  H   H1377     1.0  0.67769  0.94305  0.10626  1.0000
  H   H1378     1.0  0.67340  0.90859  0.18882  1.0000
  C   C799      1.0  0.69250  0.72367  0.01534  1.0000
  H   H1379     1.0  0.68152  0.92934  0.30905  1.0000
  C   C800      1.0  0.69117  0.99492  0.22617  1.0000
  H   H1380     1.0  0.71169  0.97423  0.35505  1.0000
  C   C801      1.0  0.83784  0.50918  0.05451  1.0000
  H   H1381     1.0  0.69771  0.94646  0.28477  1.0000
  H   H1382     1.0  0.66580  0.94293  0.16213  1.0000
  H   H1383     1.0  0.68841  0.74270  0.02018  1.0000
  H   H1384     1.0  0.66530  0.68227  0.45698  1.0000
  H   H1385     1.0  0.69012  0.76063  0.45630  1.0000
  C   C802      1.0  0.66301  0.86269  0.38243  1.0000
  H   H1386     1.0  0.68557  0.74828  0.50608  1.0000
  C   C803      1.0  0.71430  0.72080  0.50470  1.0000
  S   S232      1.0  0.66691  0.83014  0.20241  1.0000
  C   C804      1.0  0.66493  0.89617  0.17338  1.0000
  C   C805      1.0  0.66476  0.71461  0.39164  1.0000
  Fe  Fe117     1.0  0.77374  0.65118  0.50552  1.0000
  C   C806      1.0  0.78419  0.50800  0.43334  1.0000
  H   H1387     1.0  0.72834  0.73385  0.49993  1.0000
  S   S233      1.0  0.75160  0.68700  0.50168  1.0000
  S   S234      1.0  0.66867  0.82489  0.06998  1.0000
  H   H1388     1.0  0.66442  0.94645  0.37661  1.0000
  C   C807      1.0  0.68996  0.72906  0.50807  1.0000
  C   C808      1.0  0.72066  0.69585  0.50734  1.0000
  Fe  Fe118     1.0  0.72345  0.84464  0.75786  1.0000
  S   S235      1.0  0.68546  0.83059  0.75317  1.0000
  S   S236      1.0  0.75267  0.81883  0.77573  1.0000
  Fe  Fe119     1.0  0.70633  0.89782  0.74797  1.0000
  H   H1389     1.0  0.81797  0.92703  0.79964  1.0000
  S   S237      1.0  0.72427  0.93496  0.74050  1.0000
  H   H1390     1.0  0.94832  0.67492  0.88813  1.0000
  C   C809      1.0  0.69919  0.77885  0.56397  1.0000
  Fe  Fe120     1.0  0.68127  0.85612  0.71685  1.0000
  H   H1391     1.0  0.77097  0.86588  0.80963  1.0000
  S   S238      1.0  0.71172  0.87524  0.78684  1.0000
  S   S239      1.0  0.72058  0.86764  0.71920  1.0000
  H   H1392     1.0  0.78489  0.71588  0.96572  1.0000
  H   H1393     1.0  0.76859  0.74763  0.62059  1.0000
  C   C810      1.0  0.67344  0.78628  0.81532  1.0000
  H   H1394     1.0  0.76724  0.73004  0.65239  1.0000
  H   H1395     1.0  0.76645  0.76256  0.65328  1.0000
  C   C811      1.0  0.92360  0.66526  0.82299  1.0000
  H   H1396     1.0  0.90405  0.66966  0.82762  1.0000
  Fe  Fe121     1.0  0.81955  0.63336  0.53675  1.0000
  S   S240      1.0  0.84680  0.64603  0.56978  1.0000
  Fe  Fe122     1.0  0.80925  0.62019  0.97319  1.0000
  S   S241      1.0  0.81801  0.61888  0.92654  1.0000
  S   S242      1.0  0.77940  0.62680  0.54287  1.0000
  S   S243      1.0  0.77040  0.61097  0.98485  1.0000
  Fe  Fe123     1.0  0.90827  0.69674  0.75127  1.0000
  S   S244      1.0  0.88369  0.66651  0.76595  1.0000
  S   S245      1.0  0.94902  0.68461  0.75058  1.0000
  Fe  Fe124     1.0  0.86342  0.73173  0.74274  1.0000
  S   S246      1.0  0.83694  0.70407  0.75801  1.0000
  S   S247      1.0  0.84815  0.76733  0.72410  1.0000
  Fe  Fe125     1.0  0.86450  0.69560  0.79173  1.0000
  S   S248      1.0  0.85862  0.69640  0.83907  1.0000
  Fe  Fe126     1.0  0.85852  0.67760  0.73074  1.0000
  S   S249      1.0  0.83687  0.65228  0.70227  1.0000
  S   S250      1.0  0.88984  0.72556  0.77819  1.0000
  S   S251      1.0  0.88414  0.70556  0.71427  1.0000
  S   S252      1.0  0.76687  0.55811  0.51472  1.0000
  C   C812      1.0  0.97771  0.69844  0.75745  1.0000
  C   C813      1.0  0.81443  0.49886  0.51132  1.0000
  H   H1397     1.0  0.96471  0.73592  0.75606  1.0000
  H   H1398     1.0  0.69150  0.74621  0.63832  1.0000
  C   C814      1.0  0.82991  0.64057  0.90276  1.0000
  C   C815      1.0  0.83872  0.66327  0.91137  1.0000
  C   C816      1.0  0.84734  0.68009  0.89157  1.0000
  C   C817      1.0  0.84748  0.67439  0.86296  1.0000
  C   C818      1.0  0.83897  0.65158  0.85439  1.0000
  C   C819      1.0  0.83022  0.63482  0.87418  1.0000
  H   H1399     1.0  0.83899  0.66779  0.93327  1.0000
  H   H1400     1.0  0.85401  0.69762  0.89849  1.0000
  H   H1401     1.0  0.83901  0.64685  0.83252  1.0000
  H   H1402     1.0  0.82356  0.61727  0.86728  1.0000
  C   C820      1.0  0.84036  0.64981  0.66554  1.0000
  C   C821      1.0  0.82238  0.63791  0.64979  1.0000
  C   C822      1.0  0.82400  0.63649  0.62050  1.0000
  C   C823      1.0  0.84386  0.64671  0.60663  1.0000
  C   C824      1.0  0.86200  0.65829  0.62243  1.0000
  C   C825      1.0  0.86023  0.65996  0.65165  1.0000
  H   H1403     1.0  0.80698  0.62991  0.66030  1.0000
  H   H1404     1.0  0.80996  0.62743  0.60867  1.0000
  H   H1405     1.0  0.87752  0.66610  0.61196  1.0000
  H   H1406     1.0  0.87433  0.66896  0.66344  1.0000
  H   H1407     1.0  0.78366  0.72326  0.69392  1.0000
  C   C826      1.0  0.66549  0.86102  0.86213  1.0000
  H   H1408     1.0  0.93445  0.73844  0.82393  1.0000
  C   C827      1.0  0.66753  0.85803  0.89111  1.0000
  H   H1409     1.0  0.96915  0.67862  0.81307  1.0000
  H   H1410     1.0  0.70812  0.69969  0.57509  1.0000
  C   C828      1.0  0.71215  0.71182  0.93492  1.0000
  N   N59       1.0  0.71052  0.79127  0.84882  1.0000
  H   H1411     1.0  0.78772  0.69243  0.67894  1.0000
  H   H1412     1.0  0.71097  0.75936  0.61368  1.0000
  H   H1413     1.0  0.78722  0.66627  0.93589  1.0000
  H   H1414     1.0  0.71177  0.72958  0.56190  1.0000
  C   C829      1.0  0.82082  0.85357  0.77146  1.0000
  H   H1415     1.0  0.71385  0.91056  0.65490  1.0000
  H   H1416     1.0  0.78983  0.89217  0.81413  1.0000
  C   C830      1.0  0.77817  0.80386  0.75981  1.0000
  C   C831      1.0  0.79188  0.78687  0.77560  1.0000
  C   C832      1.0  0.81285  0.77505  0.76452  1.0000
  C   C833      1.0  0.82077  0.78060  0.73771  1.0000
  C   C834      1.0  0.80715  0.79770  0.72183  1.0000
  C   C835      1.0  0.78574  0.80911  0.73271  1.0000
  H   H1417     1.0  0.78649  0.78296  0.79670  1.0000
  H   H1418     1.0  0.82328  0.76211  0.77703  1.0000
  H   H1419     1.0  0.81324  0.80215  0.70109  1.0000
  H   H1420     1.0  0.77537  0.82218  0.72036  1.0000
  H   H1421     1.0  0.87561  0.75129  0.64034  1.0000
  H   H1422     1.0  0.76156  0.90058  0.71734  1.0000
  H   H1423     1.0  0.83771  0.88751  0.76020  1.0000
  H   H1424     1.0  0.79465  0.68748  0.89204  1.0000
  H   H1425     1.0  0.77237  0.67416  0.96725  1.0000
  C   C836      1.0  0.69173  0.97110  0.76063  1.0000
  C   C837      1.0  0.71361  0.96572  0.74657  1.0000
  Fe  Fe127     1.0  0.67346  0.86231  0.77992  1.0000
  C   C838      1.0  0.73337  0.80625  0.85136  1.0000
  H   H1426     1.0  0.72025  0.72232  0.59761  1.0000
  N   N60       1.0  0.75182  0.68496  0.93077  1.0000
  H   H1427     1.0  0.71971  0.83715  0.87775  1.0000
  C   C839      1.0  0.72937  0.83385  0.85775  1.0000
  C   C840      1.0  0.73654  0.66248  0.93449  1.0000
  C   C841      1.0  0.75501  0.69093  0.90032  1.0000
  C   C842      1.0  0.69623  0.80060  0.82405  1.0000
  H   H1428     1.0  0.66383  0.67454  0.52194  1.0000
  C   C843      1.0  0.74647  0.63853  0.92123  1.0000
  H   H1429     1.0  0.67033  0.78883  0.79268  1.0000
  C   C844      1.0  0.73366  0.75856  0.81924  1.0000
  H   H1430     1.0  0.96307  0.72199  0.82307  1.0000
  S   S253      1.0  0.81066  0.65245  0.00208  1.0000
  H   H1431     1.0  0.66431  0.77115  0.86647  1.0000
  H   H1432     1.0  0.69916  0.69802  0.94259  1.0000
  H   H1433     1.0  0.71799  0.66515  0.92543  1.0000
  H   H1434     1.0  0.70814  0.80262  0.80545  1.0000
  H   H1435     1.0  0.91190  0.63108  0.80447  1.0000
  H   H1436     1.0  0.73511  0.62310  0.92836  1.0000
  H   H1437     1.0  0.81735  0.53825  0.51623  1.0000
  C   C845      1.0  0.79187  0.70370  0.94878  1.0000
  H   H1438     1.0  0.68944  0.81967  0.82781  1.0000
  H   H1439     1.0  0.98518  0.71519  0.69036  1.0000
  H   H1440     1.0  0.91069  0.65772  0.90498  1.0000
  H   H1441     1.0  0.74486  0.63903  0.89826  1.0000
  H   H1442     1.0  0.76550  0.63394  0.92742  1.0000
  H   H1443     1.0  0.69360  0.95100  0.65825  1.0000
  C   C846      1.0  0.77580  0.68091  0.94579  1.0000
  C   C847      1.0  0.77381  0.88512  0.80300  1.0000
  H   H1444     1.0  0.77894  0.65906  0.88781  1.0000
  C   C848      1.0  0.93360  0.70371  0.84610  1.0000
  C   C849      1.0  0.93712  0.66526  0.87233  1.0000
  C   C850      1.0  0.94294  0.71981  0.82219  1.0000
  C   C851      1.0  0.91066  0.66529  0.88357  1.0000
  H   H1445     1.0  0.94013  0.71192  0.86589  1.0000
  H   H1446     1.0  0.91333  0.70654  0.84678  1.0000
  H   H1447     1.0  0.94429  0.64600  0.87250  1.0000
  H   H1448     1.0  0.67584  0.96366  0.70127  1.0000
  C   C852      1.0  0.67763  0.77483  0.88314  1.0000
  H   H1449     1.0  0.89862  0.65349  0.87094  1.0000
  H   H1450     1.0  0.90254  0.68407  0.88479  1.0000
  C   C853      1.0  0.67791  0.68753  0.51715  1.0000
  H   H1451     1.0  0.70209  0.79059  0.64656  1.0000
  N   N61       1.0  0.94025  0.67671  0.84414  1.0000
  N   N62       1.0  0.81775  0.72462  0.64584  1.0000
  C   C854      1.0  0.84335  0.72894  0.63526  1.0000
  C   C855      1.0  0.80723  0.70434  0.62838  1.0000
  C   C856      1.0  0.82005  0.71621  0.67560  1.0000
  C   C857      1.0  0.80310  0.74836  0.64406  1.0000
  C   C858      1.0  0.85855  0.74745  0.65196  1.0000
  C   C859      1.0  0.80703  0.70865  0.59670  1.0000
  C   C860      1.0  0.79659  0.70770  0.69002  1.0000
  C   C861      1.0  0.77490  0.74642  0.64251  1.0000
  H   H1452     1.0  0.85418  0.71137  0.63444  1.0000
  H   H1453     1.0  0.84295  0.73594  0.61356  1.0000
  H   H1454     1.0  0.78828  0.70000  0.63438  1.0000
  H   H1455     1.0  0.81767  0.68700  0.63198  1.0000
  H   H1456     1.0  0.83375  0.70088  0.67716  1.0000
  H   H1457     1.0  0.82714  0.73103  0.68908  1.0000
  H   H1458     1.0  0.80744  0.76055  0.66200  1.0000
  H   H1459     1.0  0.80848  0.75859  0.62507  1.0000
  H   H1460     1.0  0.86436  0.73982  0.67227  1.0000
  H   H1461     1.0  0.84870  0.76520  0.65527  1.0000
  H   H1462     1.0  0.79520  0.69486  0.58658  1.0000
  H   H1463     1.0  0.79984  0.72713  0.59115  1.0000
  H   H1464     1.0  0.82560  0.70572  0.58770  1.0000
  H   H1465     1.0  0.80161  0.70033  0.71079  1.0000
  H   H1466     1.0  0.92272  0.62718  0.83905  1.0000
  C   C862      1.0  0.96638  0.67260  0.83493  1.0000
  H   H1467     1.0  0.69989  0.77926  0.54088  1.0000
  H   H1468     1.0  0.79304  0.71427  0.92922  1.0000
  C   C863      1.0  0.67868  0.84977  0.60062  1.0000
  H   H1469     1.0  0.78491  0.93257  0.79830  1.0000
  C   C864      1.0  0.92603  0.63717  0.81945  1.0000
  H   H1470     1.0  0.67890  0.93148  0.63437  1.0000
  H   H1471     1.0  0.70044  0.79836  0.57048  1.0000
  H   H1472     1.0  0.80038  0.52889  0.98292  1.0000
  H   H1473     1.0  0.70288  0.75227  0.84539  1.0000
  H   H1474     1.0  0.92678  0.67322  0.80215  1.0000
  H   H1475     1.0  0.94396  0.63154  0.81041  1.0000
  H   H1476     1.0  0.73840  0.68582  0.88838  1.0000
  H   H1477     1.0  0.73369  0.65886  0.95706  1.0000
  H   H1478     1.0  0.69400  0.85701  0.58924  1.0000
  S   S254      1.0  0.66469  0.79122  0.00098  1.0000
  C   C865      1.0  0.79457  0.51371  0.99558  1.0000
  C   C866      1.0  0.71858  0.76478  0.84558  1.0000
  H   H1479     1.0  0.77578  0.68269  0.86256  1.0000
  H   H1480     1.0  0.72407  0.76417  0.79990  1.0000
  H   H1481     1.0  0.79443  0.86584  0.72585  1.0000
  H   H1482     1.0  0.68444  0.79918  0.61677  1.0000
  S   S255      1.0  0.66681  0.88738  0.74331  1.0000
  H   H1483     1.0  0.66692  0.78123  0.90157  1.0000
  H   H1484     1.0  0.70378  0.91626  0.68952  1.0000
  N   N63       1.0  0.67436  0.75165  0.59820  1.0000
  C   C867      1.0  0.72759  0.98532  0.73677  1.0000
  C   C868      1.0  0.78009  0.89907  0.70818  1.0000
  H   H1485     1.0  0.83645  0.84679  0.78427  1.0000
  H   H1486     1.0  0.76919  0.86826  0.76295  1.0000
  H   H1487     1.0  0.78641  0.91766  0.70272  1.0000
  H   H1488     1.0  0.81694  0.88779  0.71801  1.0000
  C   C869      1.0  0.79849  0.88572  0.72755  1.0000
  C   C870      1.0  0.70239  0.67918  0.51375  1.0000
  C   C871      1.0  0.69602  0.79477  0.87537  1.0000
  C   C872      1.0  0.67855  0.85081  0.62994  1.0000
  H   H1489     1.0  0.74750  0.84256  0.85956  1.0000
  H   H1490     1.0  0.77856  0.88863  0.68839  1.0000
  H   H1491     1.0  0.82344  0.88795  0.79270  1.0000
  H   H1492     1.0  0.73780  0.70331  0.96774  1.0000
  H   H1493     1.0  0.67524  0.76625  0.81804  1.0000
  C   C873      1.0  0.80106  0.92142  0.75812  1.0000
  C   C874      1.0  0.80504  0.52312  0.51376  1.0000
  C   C875      1.0  0.77733  0.67916  0.88523  1.0000
  H   H1494     1.0  0.81760  0.92674  0.74616  1.0000
  H   H1495     1.0  0.71571  0.76864  0.57084  1.0000
  H   H1496     1.0  0.74457  0.98146  0.72588  1.0000
  H   H1497     1.0  0.68715  0.75754  0.88941  1.0000
  C   C876      1.0  0.82067  0.88188  0.77102  1.0000
  N   N64       1.0  0.79852  0.89392  0.75765  1.0000
  H   H1498     1.0  0.70708  0.65990  0.51588  1.0000
  C   C877      1.0  0.68172  0.93470  0.65701  1.0000
  C   C878      1.0  0.77468  0.88658  0.77081  1.0000
  C   C879      1.0  0.70357  0.67421  0.00333  1.0000
  H   H1499     1.0  0.75959  0.89930  0.76424  1.0000
  H   H1500     1.0  0.74430  0.80539  0.83189  1.0000
  C   C880      1.0  0.76407  0.50769  0.51051  1.0000
  H   H1501     1.0  0.78511  0.93063  0.74778  1.0000
  C   C881      1.0  0.67155  0.71250  0.51403  1.0000
  S   S256      1.0  0.82648  0.59439  0.00474  1.0000
  H   H1502     1.0  0.75774  0.89593  0.81079  1.0000
  H   H1503     1.0  0.74560  0.79868  0.86793  1.0000
  H   H1504     1.0  0.93798  0.71238  0.80158  1.0000
  H   H1505     1.0  0.82351  0.84562  0.75038  1.0000
  Fe  Fe128     1.0  0.78506  0.59573  0.51165  1.0000
  H   H1506     1.0  0.69380  0.85855  0.64096  1.0000
  H   H1507     1.0  0.75668  0.71105  0.89717  1.0000
  C   C882      1.0  0.69727  0.91291  0.66810  1.0000
  H   H1508     1.0  0.97107  0.65267  0.83417  1.0000
  H   H1509     1.0  0.72969  0.75892  0.86391  1.0000
  C   C883      1.0  0.70674  0.71945  0.58081  1.0000
  H   H1510     1.0  0.68559  0.81240  0.87481  1.0000
  C   C884      1.0  0.73853  0.70619  0.94489  1.0000
  C   C885      1.0  0.68070  0.68477  0.99584  1.0000
  H   H1511     1.0  0.80395  0.84628  0.78081  1.0000
  H   H1512     1.0  0.73675  0.73839  0.81801  1.0000
  C   C886      1.0  0.69171  0.75951  0.62078  1.0000
  H   H1513     1.0  0.70845  0.79617  0.89369  1.0000
  H   H1514     1.0  0.71088  0.71327  0.91200  1.0000
  H   H1515     1.0  0.68749  0.89536  0.66726  1.0000
  H   H1516     1.0  0.97950  0.70048  0.86528  1.0000
  H   H1517     1.0  0.68058  0.86877  0.90261  1.0000
  H   H1518     1.0  0.74447  0.51099  0.51008  1.0000
  H   H1519     1.0  0.80536  0.95379  0.78376  1.0000
  H   H1520     1.0  0.75200  0.76679  0.81992  1.0000
  H   H1521     1.0  0.68084  0.95634  0.76854  1.0000
  H   H1522     1.0  0.71950  0.84350  0.84074  1.0000
  H   H1523     1.0  0.74859  0.72353  0.94206  1.0000
  C   C887      1.0  0.77976  0.52776  0.51302  1.0000
  C   C888      1.0  0.68028  0.72543  0.58999  1.0000
  H   H1524     1.0  0.70579  0.72963  0.94399  1.0000
  C   C889      1.0  0.68653  0.78518  0.63318  1.0000
  C   C890      1.0  0.67510  0.70958  0.00168  1.0000
  H   H1525     1.0  0.81071  0.69781  0.95482  1.0000
  C   C891      1.0  0.80245  0.93387  0.78686  1.0000
  C   C892      1.0  0.67437  0.76830  0.57310  1.0000
  H   H1526     1.0  0.67617  0.71282  0.60750  1.0000
  H   H1527     1.0  0.67673  0.87412  0.85148  1.0000
  H   H1528     1.0  0.67305  0.98660  0.65290  1.0000
  C   C893      1.0  0.98052  0.72387  0.75864  1.0000
  H   H1529     1.0  0.70760  0.65510  0.99888  1.0000
  H   H1530     1.0  0.66726  0.67368  0.98547  1.0000
  H   H1531     1.0  0.66634  0.75891  0.55476  1.0000
  C   C894      1.0  0.98612  0.68415  0.85359  1.0000
  H   H1532     1.0  0.66850  0.71955  0.57242  1.0000
  H   H1533     1.0  0.67305  0.93356  0.71255  1.0000
  H   H1534     1.0  0.67000  0.78549  0.64662  1.0000
  H   H1535     1.0  0.66212  0.78458  0.57681  1.0000
  H   H1536     1.0  0.99341  0.67052  0.86875  1.0000
  C   C895      1.0  0.68393  0.99574  0.76467  1.0000
  C   C896      1.0  0.66294  0.94810  0.70090  1.0000
