data_image0
_chemical_formula_structural       H2SHS2H2CSC6H4C6H6C6H4C6H3CNCH3CHCHCH2CH9CH8C2HCHCH5CH3C2H9SCH2C2H2CNH8CH4CH2C2HCSH2CHSHCHCNHCH2CH3CH4CH2C2HCHCHCH2C2FeH2FeH2CH6C2H3CH3FeS2FeS2HFeS3FeSHFeSFeSFeS3FeHSFeS2HFeS3FeSC2SFeSFeSHS2FeSFeS3HSCFeSH6SCHCHCHSH2CH2CH2C6H4C6H7C3H2CFeH4C7H4C6H4CHSC3HCH3SCH2SH2C3H3NCHC2FeC2H2NHSH4CHC2HC2H3SCNC8H20CH3C3HCH2FeHCH4SH3CH4CHNC8H4CH15NC8H8C2H10NCH4C5H3CHC3H3CHC2H2NC8H20FeH2NH2CHCHCH2C2H2CHSFeH5C2H9CH4CFeC2SHNCHSCH2CHCH2FeHC2H7CH4C2H2SHC3H2CHS2CHN2FeSCHSFeSFeSHSFeSC2SFeSFeSH2FeS2FeS2FeSHS2FeS2FeS2FeSFeS2H2FeHSH5SC2FeSC2NFeHSH4S2FeHSH2CHSCFeSCH2SCHCHC2H4CHFeHSH3C6H4C6H4C4HCH8C2HC2HC6H5CHC6H5NH2C2H2FeCH6NH2C3H2C2H3C2SH3CH2C2HNC2HC3HCH5CH4FeCH4CH2NC8H14C2H5C5H13NC5HC2H9CSHCH7NC4SCHCFeH9CHCSHCH2FeC3HCH2CHCH4CSH2SHCHCHCH2CH6C2H3C2HSCH2CH2SH3CHC2SH2NCH7C2HCNH4C2HCNFeHCHCH5SFeSHFeSFeS2CFeSCHSFeSFeSC2FeS2FeSFeSFeS3FeS2FeS2Fe2S4FeSCHSFeSHSFeSH6SH2C3HC3H3C7H4C6H4CHC2H2CH5CH3C6H4C6H4SH3C2H2SHC2HCH2CHCHCNC5H4CH5CH2CHNSC2HCHCH12CH4CNC4HC3H8CH7CH3NC5H12C4HSH2S3HNCH2CH4CFe2CHSH3NC8H21CH2NHCNHCH2CH3CH3CHC5HNHSH2FeCH2CHC2HCH2SCHC2H2CH3CSCNCHCH6CH7C2HSHCH2C2HCH5C3H5C2H2CHCHCHNH5CSCH3C3H3CH2FeS2HSFeSFeS3FeSFeS2FeSFeS3HSFeSHFeSFeSH2FeCSFeS2HFeHS2HSFeS2H3SFeS2H3C2SHCSHSHFeSHFeHSH5SH2CH2CHCH3FeSH2CH4CHFeHCHC6H4C6H4SH3C2HCH3C2NHCHCHC8H4C3HC6H4CHC5H3CHC2H3CFeC3HCHFeH5NC8H13CH5C5H6CH2SH3CSH2C2HCH5C3NC5H14SH2CSCH6CHCH2SH5C3HCH2CH2CH4NH2C3H2CHC2NH7C2H2CNH7CSCNCH3CHSCHFeCH5CH6CHC2H2C2H2SHCH2CNHSCH6CH3CFeHNH2C2HFeCHCH2C2HFeHC3HC2H2C2H5CH3CHCH2C2HFeH2CH8S2HSH2SC6H4C6H4C6H4C6H7CHCHC2HC2H6CH6CH8NH9SH5CH2CHCH2C3SH5SCH3NC9H3FeHCNH2CH15CSHCHCHCN
_chemical_formula_sum              "H1152 S192 C672 N48 Fe96"
_cell_length_a       58.51
_cell_length_b       58.7237
_cell_length_c       34.9234
_cell_angle_alpha    90.2589
_cell_angle_beta     90.3118
_cell_angle_gamma    89.9823

_space_group_name_H-M_alt    "P 1"
_space_group_IT_number       1

loop_
  _space_group_symop_operation_xyz
  'x, y, z'

loop_
  _atom_site_type_symbol
  _atom_site_label
  _atom_site_symmetry_multiplicity
  _atom_site_fract_x
  _atom_site_fract_y
  _atom_site_fract_z
  _atom_site_occupancy
  H   H1        1.0  0.04710  0.05744  0.32859  1.0000
  H   H2        1.0  0.01233  0.04782  0.25891  1.0000
  S   S1        1.0  0.40152  0.45756  0.17356  1.0000
  H   H3        1.0  0.37583  0.42855  0.06828  1.0000
  S   S2        1.0  0.02781  0.39997  0.12956  1.0000
  S   S3        1.0  0.03038  0.09292  0.15139  1.0000
  H   H4        1.0  0.43615  0.41240  0.05148  1.0000
  H   H5        1.0  0.05374  0.03196  0.06010  1.0000
  C   C1        1.0  0.05887  0.05638  0.27073  1.0000
  S   S4        1.0  0.07801  0.99775  0.19542  1.0000
  C   C2        1.0  0.07207  0.46051  0.17283  1.0000
  C   C3        1.0  0.07482  0.45149  0.13595  1.0000
  C   C4        1.0  0.06119  0.43298  0.12345  1.0000
  C   C5        1.0  0.04427  0.42349  0.14717  1.0000
  C   C6        1.0  0.04126  0.43276  0.18377  1.0000
  C   C7        1.0  0.05519  0.45099  0.19654  1.0000
  H   H6        1.0  0.08777  0.45845  0.11737  1.0000
  H   H7        1.0  0.06386  0.42588  0.09520  1.0000
  H   H8        1.0  0.02844  0.42569  0.20247  1.0000
  H   H9        1.0  0.05293  0.45770  0.22518  1.0000
  C   C8        1.0  0.42907  0.44477  0.16797  1.0000
  C   C9        1.0  0.44838  0.45740  0.15786  1.0000
  C   C10       1.0  0.46957  0.44641  0.15187  1.0000
  C   C11       1.0  0.47202  0.42271  0.15683  1.0000
  C   C12       1.0  0.45290  0.41021  0.16838  1.0000
  C   C13       1.0  0.43160  0.42117  0.17377  1.0000
  H   H10       1.0  0.44696  0.47561  0.15428  1.0000
  H   H11       1.0  0.00327  0.28209  0.21088  1.0000
  H   H12       1.0  0.45440  0.39201  0.17235  1.0000
  H   H13       1.0  0.41690  0.41119  0.18199  1.0000
  H   H14       1.0  0.19924  0.41276  0.19910  1.0000
  H   H15       1.0  0.17115  0.44971  0.27723  1.0000
  C   C14       1.0  0.06505  0.02394  0.18085  1.0000
  C   C15       1.0  0.04152  0.02721  0.18745  1.0000
  C   C16       1.0  0.03051  0.04788  0.17780  1.0000
  C   C17       1.0  0.04297  0.06581  0.16179  1.0000
  C   C18       1.0  0.06641  0.06238  0.15457  1.0000
  C   C19       1.0  0.07738  0.04163  0.16387  1.0000
  H   H16       1.0  0.03172  0.01367  0.20035  1.0000
  H   H17       1.0  0.01244  0.05002  0.18312  1.0000
  H   H18       1.0  0.07626  0.07605  0.14212  1.0000
  H   H19       1.0  0.09546  0.03951  0.15860  1.0000
  C   C20       1.0  0.42070  0.03098  0.18436  1.0000
  C   C21       1.0  0.42276  0.05401  0.19546  1.0000
  C   C22       1.0  0.44370  0.06589  0.19197  1.0000
  C   C23       1.0  0.46307  0.05487  0.17754  1.0000
  C   C24       1.0  0.46104  0.03179  0.16659  1.0000
  C   C25       1.0  0.44006  0.01994  0.16987  1.0000
  H   H20       1.0  0.40798  0.06281  0.20671  1.0000
  H   H21       1.0  0.44484  0.08358  0.20057  1.0000
  H   H22       1.0  0.05379  0.01699  0.10495  1.0000
  C   C26       1.0  0.04659  0.06905  0.30347  1.0000
  N   N1        1.0  0.02239  0.07629  0.29500  1.0000
  C   C27       1.0  0.44876  0.48745  0.06887  1.0000
  H   H23       1.0  0.19507  0.43532  0.23380  1.0000
  H   H24       1.0  0.15815  0.46941  0.16881  1.0000
  H   H25       1.0  0.46766  0.47998  0.22809  1.0000
  C   C28       1.0  0.43203  0.01495  0.29103  1.0000
  H   H26       1.0  0.47582  0.02300  0.15537  1.0000
  C   C29       1.0  0.11154  0.41974  0.19949  1.0000
  H   H27       1.0  0.39700  0.45631  0.27230  1.0000
  C   C30       1.0  0.46661  0.47150  0.25626  1.0000
  H   H28       1.0  0.44799  0.01614  0.27406  1.0000
  H   H29       1.0  0.18273  0.45796  0.18992  1.0000
  C   C31       1.0  0.04412  0.01975  0.07811  1.0000
  H   H30       1.0  0.15909  0.44236  0.11623  1.0000
  H   H31       1.0  0.03428  0.12411  0.28249  1.0000
  H   H32       1.0  0.38343  0.46209  0.02714  1.0000
  H   H33       1.0  0.16149  0.40374  0.19169  1.0000
  H   H34       1.0  0.18759  0.45201  0.12425  1.0000
  H   H35       1.0  0.05975  0.06656  0.24415  1.0000
  H   H36       1.0  0.46287  0.47485  0.06985  1.0000
  H   H37       1.0  0.13316  0.46760  0.22393  1.0000
  H   H38       1.0  0.43886  0.00231  0.16102  1.0000
  C   C32       1.0  0.14371  0.45306  0.23430  1.0000
  H   H39       1.0  0.17484  0.47384  0.24491  1.0000
  H   H40       1.0  0.23949  0.00144  0.14664  1.0000
  H   H41       1.0  0.17963  0.42421  0.14055  1.0000
  H   H42       1.0  0.07510  0.00324  0.01302  1.0000
  H   H43       1.0  0.41188  0.48916  0.06994  1.0000
  H   H44       1.0  0.49044  0.23530  0.19617  1.0000
  H   H45       1.0  0.01514  0.24771  0.14098  1.0000
  H   H46       1.0  0.24798  0.47686  0.17334  1.0000
  C   C33       1.0  0.99692  0.24458  0.14118  1.0000
  C   C34       1.0  0.44198  0.47112  0.27164  1.0000
  H   H47       1.0  0.37434  0.47429  0.28788  1.0000
  C   C35       1.0  0.16664  0.45295  0.17550  1.0000
  H   H48       1.0  0.42543  0.99747  0.34440  1.0000
  C   C36       1.0  0.01762  0.43615  0.03307  1.0000
  H   H49       1.0  0.44200  0.45995  0.29738  1.0000
  H   H50       1.0  0.02882  0.07909  0.38377  1.0000
  H   H51       1.0  0.02762  0.02798  0.08563  1.0000
  H   H52       1.0  0.99660  0.09722  0.32302  1.0000
  H   H53       1.0  0.10236  0.43123  0.21950  1.0000
  C   C37       1.0  0.03967  0.99722  0.05641  1.0000
  H   H54       1.0  0.41720  0.01744  0.27181  1.0000
  H   H55       1.0  0.00783  0.26235  0.25021  1.0000
  H   H56       1.0  0.02398  0.08133  0.23352  1.0000
  C   C38       1.0  0.02109  0.09131  0.26010  1.0000
  C   C39       1.0  0.42514  0.47579  0.06646  1.0000
  H   H57       1.0  0.05586  0.10637  0.25977  1.0000
  H   H58       1.0  0.04599  0.45987  0.04009  1.0000
  H   H59       1.0  0.99656  0.40058  0.06785  1.0000
  H   H60       1.0  0.28816  0.48926  0.16308  1.0000
  H   H61       1.0  0.40983  0.48039  0.32647  1.0000
  H   H62       1.0  0.40485  0.42796  0.08394  1.0000
  H   H63       1.0  0.39635  0.43629  0.01141  1.0000
  H   H64       1.0  0.01894  0.47398  0.03855  1.0000
  H   H65       1.0  0.38700  0.45240  0.09355  1.0000
  S   S5        1.0  0.09021  0.48236  0.19191  1.0000
  C   C40       1.0  0.16239  0.46316  0.26052  1.0000
  H   H66       1.0  0.02781  0.45869  0.08075  1.0000
  H   H67       1.0  0.13244  0.44313  0.25356  1.0000
  C   C41       1.0  0.13055  0.43246  0.17773  1.0000
  C   C42       1.0  0.03770  0.11171  0.25922  1.0000
  H   H68       1.0  0.12269  0.44795  0.16482  1.0000
  H   H69       1.0  0.05730  0.08387  0.31216  1.0000
  C   C43       1.0  0.16304  0.41714  0.21428  1.0000
  N   N2        1.0  0.15156  0.43875  0.20086  1.0000
  H   H70       1.0  0.00076  0.20805  0.14771  1.0000
  H   H71       1.0  0.42363  0.46549  0.09268  1.0000
  H   H72       1.0  0.05074  0.03970  0.26454  1.0000
  H   H73       1.0  0.47904  0.47895  0.27678  1.0000
  H   H74       1.0  0.99818  0.08334  0.38449  1.0000
  H   H75       1.0  0.03415  0.00185  0.02685  1.0000
  H   H76       1.0  0.38894  0.48119  0.24486  1.0000
  H   H77       1.0  0.38637  0.01115  0.31116  1.0000
  C   C44       1.0  0.18888  0.41853  0.22389  1.0000
  H   H78       1.0  0.15417  0.41027  0.23990  1.0000
  H   H79       1.0  0.13506  0.42124  0.15315  1.0000
  H   H80       1.0  0.44926  0.05985  0.05511  1.0000
  H   H81       1.0  0.00950  0.05827  0.36398  1.0000
  C   C45       1.0  0.01269  0.07672  0.36728  1.0000
  H   H82       1.0  0.03522  0.12090  0.23176  1.0000
  H   H83       1.0  0.43238  0.02993  0.31055  1.0000
  C   C46       1.0  0.39141  0.43914  0.07212  1.0000
  C   C47       1.0  0.46694  0.05562  0.06440  1.0000
  H   H84       1.0  0.99872  0.29202  0.29693  1.0000
  C   C48       1.0  0.17349  0.44193  0.13706  1.0000
  S   S6        1.0  0.39368  0.01693  0.18979  1.0000
  H   H85       1.0  0.47037  0.06510  0.09118  1.0000
  H   H86       1.0  0.19280  0.40632  0.24723  1.0000
  C   C49       1.0  0.41893  0.47866  0.99787  1.0000
  H   H87       1.0  0.11806  0.40464  0.21500  1.0000
  S   S7        1.0  0.49012  0.06888  0.17228  1.0000
  H   H88       1.0  0.07677  0.05274  0.27956  1.0000
  C   C50       1.0  0.00759  0.28049  0.24157  1.0000
  H   H89       1.0  0.09854  0.41357  0.17856  1.0000
  C   C51       1.0  0.39770  0.45000  0.03342  1.0000
  N   N3        1.0  0.42051  0.46201  0.03071  1.0000
  H   H90       1.0  0.44391  0.43534  0.08337  1.0000
  C   C52       1.0  0.39139  0.47434  0.27403  1.0000
  H   H91       1.0  0.48423  0.45633  0.14319  1.0000
  H   H92       1.0  0.00360  0.09848  0.25669  1.0000
  C   C53       1.0  0.01366  0.08963  0.32885  1.0000
  H   H93       1.0  0.46454  0.42437  0.05222  1.0000
  H   H94       1.0  0.46687  0.03725  0.07193  1.0000
  H   H95       1.0  0.43195  0.46191  0.24925  1.0000
  C   C54       1.0  0.02782  0.45859  0.04892  1.0000
  H   H96       1.0  0.08579  0.00711  0.06038  1.0000
  H   H97       1.0  0.47220  0.45364  0.25119  1.0000
  H   H98       1.0  0.15409  0.47460  0.28174  1.0000
  H   H99       1.0  0.01525  0.39456  0.00204  1.0000
  C   C55       1.0  0.44603  0.42848  0.05418  1.0000
  H   H100      1.0  0.02758  0.42257  0.04801  1.0000
  H   H101      1.0  0.02542  0.28678  0.24467  1.0000
  C   C56       1.0  0.43945  0.44536  0.02220  1.0000
  C   C57       1.0  0.40795  0.48902  0.29824  1.0000
  H   H102      1.0  0.02461  0.10478  0.33432  1.0000
  C   C58       1.0  0.00811  0.05533  0.28736  1.0000
  H   H103      1.0  0.01209  0.04149  0.30799  1.0000
  C   C59       1.0  0.07991  0.99386  0.03958  1.0000
  H   H104      1.0  0.45659  0.09954  0.04853  1.0000
  C   C60       1.0  0.47234  0.10805  0.05902  1.0000
  H   H105      1.0  0.43491  0.43458  0.99703  1.0000
  H   H106      1.0  0.45527  0.45432  0.01301  1.0000
  C   C61       1.0  0.99676  0.39230  0.00761  1.0000
  C   C62       1.0  0.48408  0.06005  0.03148  1.0000
  Fe  Fe1       1.0  0.99687  0.37764  0.14634  1.0000
  H   H107      1.0  0.46928  0.12666  0.05644  1.0000
  H   H108      1.0  0.38125  0.99794  0.26474  1.0000
  Fe  Fe2       1.0  0.99446  0.10782  0.16208  1.0000
  H   H109      1.0  0.02256  0.43476  0.00240  1.0000
  H   H110      1.0  0.47371  0.06462  0.00580  1.0000
  C   C63       1.0  0.38044  0.99555  0.29609  1.0000
  H   H111      1.0  0.36207  0.99348  0.30318  1.0000
  H   H112      1.0  0.47475  0.10469  0.08993  1.0000
  H   H113      1.0  0.99535  0.31311  0.26086  1.0000
  H   H114      1.0  0.49207  0.04332  0.02437  1.0000
  H   H115      1.0  0.99419  0.37407  0.01478  1.0000
  H   H116      1.0  0.48751  0.10500  0.00445  1.0000
  C   C64       1.0  0.43177  0.99289  0.31535  1.0000
  C   C65       1.0  0.49313  0.10162  0.03425  1.0000
  H   H117      1.0  0.40611  0.49220  0.00425  1.0000
  H   H118      1.0  0.43536  0.48772  0.99349  1.0000
  H   H119      1.0  0.42537  0.45652  0.94758  1.0000
  C   C66       1.0  0.41229  0.46854  0.95846  1.0000
  H   H120      1.0  0.41118  0.48267  0.93743  1.0000
  H   H121      1.0  0.39526  0.46027  0.95874  1.0000
  H   H122      1.0  0.99488  0.47358  0.99123  1.0000
  Fe  Fe3       1.0  0.38065  0.93142  0.20279  1.0000
  S   S8        1.0  0.35898  0.96148  0.21862  1.0000
  S   S9        1.0  0.39679  0.90739  0.24681  1.0000
  Fe  Fe4       1.0  0.37774  0.94189  0.11633  1.0000
  S   S10       1.0  0.35584  0.97295  0.12751  1.0000
  S   S11       1.0  0.38391  0.93533  0.05226  1.0000
  H   H123      1.0  0.43149  0.86596  0.03838  1.0000
  Fe  Fe5       1.0  0.33608  0.95122  0.16907  1.0000
  S   S12       1.0  0.29769  0.94167  0.17257  1.0000
  S   S13       1.0  0.40345  0.95099  0.16223  1.0000
  S   S14       1.0  0.35698  0.91985  0.15552  1.0000
  Fe  Fe6       1.0  0.15998  0.96399  0.16075  1.0000
  S   S15       1.0  0.15304  0.92636  0.16010  1.0000
  H   H124      1.0  0.18669  0.54793  0.32922  1.0000
  Fe  Fe7       1.0  0.11016  0.97607  0.18279  1.0000
  S   S16       1.0  0.10126  0.93875  0.18551  1.0000
  Fe  Fe8       1.0  0.13467  0.93299  0.21571  1.0000
  S   S17       1.0  0.14209  0.90535  0.26035  1.0000
  Fe  Fe9       1.0  0.11996  0.93495  0.12982  1.0000
  S   S18       1.0  0.09835  0.91269  0.08928  1.0000
  S   S19       1.0  0.14261  0.97051  0.21762  1.0000
  S   S20       1.0  0.12797  0.97244  0.12602  1.0000
  Fe  Fe10      1.0  0.39154  0.53098  0.09662  1.0000
  H   H125      1.0  0.40982  0.95615  0.24608  1.0000
  S   S21       1.0  0.41341  0.53444  0.04235  1.0000
  Fe  Fe11      1.0  0.38691  0.54272  0.18315  1.0000
  S   S22       1.0  0.36392  0.51307  0.19459  1.0000
  S   S23       1.0  0.39786  0.56894  0.22800  1.0000
  H   H126      1.0  0.45743  0.78211  0.02283  1.0000
  Fe  Fe12      1.0  0.34570  0.52317  0.14004  1.0000
  S   S24       1.0  0.30746  0.53273  0.13519  1.0000
  S   S25       1.0  0.41236  0.52236  0.14907  1.0000
  S   S26       1.0  0.36815  0.55400  0.13010  1.0000
  Fe  Fe13      1.0  0.16914  0.51616  0.15594  1.0000
  S   S27       1.0  0.16278  0.55268  0.14101  1.0000
  C   C67       1.0  0.34851  0.73418  0.47194  1.0000
  C   C68       1.0  0.31353  0.97131  0.04560  1.0000
  S   S28       1.0  0.10786  0.54373  0.15523  1.0000
  Fe  Fe14      1.0  0.13248  0.54032  0.10619  1.0000
  S   S29       1.0  0.12777  0.55188  0.04379  1.0000
  Fe  Fe15      1.0  0.13866  0.55327  0.19127  1.0000
  S   S30       1.0  0.14204  0.58474  0.22988  1.0000
  H   H127      1.0  0.27246  0.95285  0.04363  1.0000
  S   S31       1.0  0.14641  0.51726  0.20796  1.0000
  S   S32       1.0  0.35742  0.63993  0.42258  1.0000
  Fe  Fe16      1.0  0.37005  0.60633  0.44475  1.0000
  S   S33       1.0  0.37493  0.57484  0.40643  1.0000
  Fe  Fe17      1.0  0.13304  0.62037  0.45346  1.0000
  S   S34       1.0  0.12405  0.59227  0.41027  1.0000
  S   S35       1.0  0.16622  0.63907  0.45053  1.0000
  S   S36       1.0  0.15478  0.83544  0.45902  1.0000
  H   H128      1.0  0.46465  0.51897  0.24575  1.0000
  S   S37       1.0  0.13785  0.90090  0.44300  1.0000
  C   C69       1.0  0.22919  0.63533  0.47429  1.0000
  Fe  Fe18      1.0  0.36532  0.86352  0.46856  1.0000
  S   S38       1.0  0.36278  0.88805  0.41756  1.0000
  H   H129      1.0  0.28723  0.52994  0.22730  1.0000
  H   H130      1.0  0.45236  0.51494  0.19977  1.0000
  H   H131      1.0  0.23834  0.71894  0.41103  1.0000
  H   H132      1.0  0.30466  0.51483  0.26058  1.0000
  H   H133      1.0  0.18990  0.88798  0.28132  1.0000
  H   H134      1.0  0.13281  0.64056  0.05357  1.0000
  S   S39       1.0  0.33329  0.84325  0.47787  1.0000
  C   C70       1.0  0.04628  0.96796  0.12288  1.0000
  H   H135      1.0  0.19956  0.96681  0.33617  1.0000
  C   C71       1.0  0.14378  0.76875  0.47144  1.0000
  H   H136      1.0  0.06897  0.95027  0.02407  1.0000
  C   C72       1.0  0.38381  0.75513  0.48008  1.0000
  H   H137      1.0  0.22098  0.57506  0.47214  1.0000
  S   S40       1.0  0.19539  0.97955  0.14848  1.0000
  H   H138      1.0  0.29883  0.98026  0.05890  1.0000
  H   H139      1.0  0.43232  0.82362  0.00936  1.0000
  C   C73       1.0  0.10710  0.56833  0.01834  1.0000
  H   H140      1.0  0.07823  0.98310  0.10931  1.0000
  H   H141      1.0  0.06377  0.85059  0.44711  1.0000
  C   C74       1.0  0.08773  0.57745  0.03599  1.0000
  H   H142      1.0  0.22790  0.96490  0.29136  1.0000
  H   H143      1.0  0.08463  0.57402  0.06588  1.0000
  C   C75       1.0  0.13765  0.58619  0.28030  1.0000
  C   C76       1.0  0.14362  0.60624  0.30028  1.0000
  C   C77       1.0  0.13980  0.60837  0.34005  1.0000
  C   C78       1.0  0.12970  0.59052  0.36028  1.0000
  C   C79       1.0  0.12392  0.57042  0.34036  1.0000
  C   C80       1.0  0.12798  0.56818  0.30070  1.0000
  H   H144      1.0  0.15107  0.62030  0.28483  1.0000
  H   H145      1.0  0.14433  0.62395  0.35491  1.0000
  H   H146      1.0  0.11606  0.55651  0.35566  1.0000
  H   H147      1.0  0.12319  0.55270  0.28580  1.0000
  C   C81       1.0  0.39037  0.57050  0.27717  1.0000
  C   C82       1.0  0.37959  0.55249  0.29597  1.0000
  C   C83       1.0  0.37486  0.55415  0.33547  1.0000
  C   C84       1.0  0.38016  0.57407  0.35635  1.0000
  C   C85       1.0  0.39033  0.59229  0.33724  1.0000
  C   C86       1.0  0.39567  0.59037  0.29801  1.0000
  H   H148      1.0  0.37520  0.53720  0.28022  1.0000
  H   H149      1.0  0.36701  0.53996  0.35004  1.0000
  H   H150      1.0  0.39463  0.60765  0.35293  1.0000
  H   H151      1.0  0.40397  0.60441  0.28375  1.0000
  H   H152      1.0  0.44970  0.49753  0.09581  1.0000
  H   H153      1.0  0.39866  0.50516  0.30420  1.0000
  H   H154      1.0  0.40665  0.94291  0.36638  1.0000
  C   C87       1.0  0.27896  0.52268  0.14333  1.0000
  C   C88       1.0  0.26043  0.53743  0.13601  1.0000
  C   C89       1.0  0.23756  0.53048  0.14196  1.0000
  H   H155      1.0  0.26376  0.55433  0.12520  1.0000
  H   H156      1.0  0.22362  0.54200  0.13574  1.0000
  C   C90       1.0  0.09449  0.91124  0.03889  1.0000
  Fe  Fe19      1.0  0.38065  0.98072  0.17567  1.0000
  H   H157      1.0  0.23603  0.57285  0.42933  1.0000
  H   H158      1.0  0.26543  0.68789  0.45500  1.0000
  H   H159      1.0  0.05321  0.95890  0.14831  1.0000
  H   H160      1.0  0.08636  0.59189  0.12892  1.0000
  C   C91       1.0  0.44490  0.96662  0.24128  1.0000
  C   C92       1.0  0.14069  0.90476  0.31116  1.0000
  C   C93       1.0  0.13280  0.92322  0.33280  1.0000
  C   C94       1.0  0.13225  0.92184  0.37314  1.0000
  C   C95       1.0  0.13960  0.90208  0.39227  1.0000
  C   C96       1.0  0.14773  0.88374  0.37060  1.0000
  C   C97       1.0  0.14815  0.88506  0.33033  1.0000
  H   H161      1.0  0.12706  0.93852  0.31851  1.0000
  H   H162      1.0  0.12598  0.93616  0.38965  1.0000
  H   H163      1.0  0.15380  0.86860  0.38492  1.0000
  H   H164      1.0  0.15437  0.87069  0.31390  1.0000
  C   C98       1.0  0.38688  0.90186  0.29397  1.0000
  C   C99       1.0  0.39931  0.88686  0.31757  1.0000
  C   C100      1.0  0.39235  0.88242  0.35547  1.0000
  C   C101      1.0  0.37279  0.89295  0.37022  1.0000
  C   C102      1.0  0.36054  0.90812  0.34670  1.0000
  C   C103      1.0  0.36743  0.91248  0.30879  1.0000
  H   H165      1.0  0.41452  0.87872  0.30651  1.0000
  H   H166      1.0  0.40222  0.87106  0.37337  1.0000
  H   H167      1.0  0.34543  0.91642  0.35781  1.0000
  H   H168      1.0  0.35764  0.92400  0.29104  1.0000
  C   C104      1.0  0.26946  0.95291  0.16637  1.0000
  H   H169      1.0  0.24088  0.92982  0.05817  1.0000
  S   S41       1.0  0.40025  0.68825  0.46557  1.0000
  C   C105      1.0  0.22372  0.96872  0.15542  1.0000
  C   C106      1.0  0.22803  0.94573  0.16299  1.0000
  C   C107      1.0  0.25068  0.93794  0.16860  1.0000
  H   H170      1.0  0.48137  0.75168  0.02303  1.0000
  C   C108      1.0  0.15611  0.74865  0.46496  1.0000
  H   H171      1.0  0.21385  0.93394  0.16409  1.0000
  H   H172      1.0  0.25371  0.92010  0.17434  1.0000
  H   H173      1.0  0.16333  0.56116  0.42979  1.0000
  S   S42       1.0  0.11344  0.65143  0.47355  1.0000
  C   C109      1.0  0.24252  0.98364  0.15277  1.0000
  H   H174      1.0  0.38939  0.57707  0.02269  1.0000
  H   H175      1.0  0.43548  0.93366  0.36984  1.0000
  S   S43       1.0  0.29522  0.64755  0.44900  1.0000
  H   H176      1.0  0.33529  0.94303  0.05875  1.0000
  H   H177      1.0  0.43286  0.54103  0.29860  1.0000
  C   C110      1.0  0.41105  0.89631  0.04535  1.0000
  C   C111      1.0  0.40066  0.91481  0.02708  1.0000
  C   C112      1.0  0.27422  0.50085  0.15722  1.0000
  H   H178      1.0  0.25776  0.91217  0.02736  1.0000
  H   H179      1.0  0.40930  0.89435  0.07598  1.0000
  H   H180      1.0  0.07400  0.85419  0.02835  1.0000
  N   N4        1.0  0.21335  0.93113  0.28342  1.0000
  C   C113      1.0  0.21974  0.95434  0.26855  1.0000
  H   H181      1.0  0.03845  0.93510  0.06143  1.0000
  C   C114      1.0  0.19358  0.93258  0.31086  1.0000
  C   C115      1.0  0.20629  0.91630  0.25001  1.0000
  Fe  Fe20      1.0  0.38838  0.49315  0.15684  1.0000
  C   C116      1.0  0.12081  0.72726  0.46140  1.0000
  C   C117      1.0  0.19661  0.94899  0.34513  1.0000
  H   H182      1.0  0.22835  0.60554  0.40216  1.0000
  H   H183      1.0  0.30334  0.91195  0.10585  1.0000
  N   N5        1.0  0.41850  0.97288  0.29939  1.0000
  H   H184      1.0  0.09920  0.97072  0.00186  1.0000
  S   S44       1.0  0.36806  0.50062  0.10298  1.0000
  H   H185      1.0  0.17755  0.93744  0.29561  1.0000
  H   H186      1.0  0.35173  0.69790  0.46359  1.0000
  H   H187      1.0  0.18987  0.92236  0.23737  1.0000
  H   H188      1.0  0.21893  0.91737  0.22650  1.0000
  C   C118      1.0  0.05422  0.96200  0.02721  1.0000
  H   H189      1.0  0.46295  0.50838  0.30309  1.0000
  C   C119      1.0  0.26580  0.70416  0.47150  1.0000
  C   C120      1.0  0.30531  0.90819  0.07470  1.0000
  H   H190      1.0  0.18994  0.91565  0.32356  1.0000
  C   C121      1.0  0.44861  0.52077  0.22939  1.0000
  C   C122      1.0  0.20280  0.89080  0.25879  1.0000
  H   H191      1.0  0.18675  0.97277  0.27208  1.0000
  H   H192      1.0  0.03936  0.98435  0.13363  1.0000
  H   H193      1.0  0.41387  0.52055  0.24938  1.0000
  S   S45       1.0  0.34344  0.78003  0.48011  1.0000
  C   C123      1.0  0.10472  0.84230  0.05537  1.0000
  N   N6        1.0  0.31059  0.57345  0.24275  1.0000
  C   C124      1.0  0.31054  0.59316  0.27058  1.0000
  C   C125      1.0  0.29079  0.57622  0.21538  1.0000
  C   C126      1.0  0.33238  0.57274  0.21991  1.0000
  C   C127      1.0  0.30873  0.55161  0.26512  1.0000
  C   C128      1.0  0.33131  0.59465  0.29789  1.0000
  C   C129      1.0  0.26675  0.57532  0.23330  1.0000
  C   C130      1.0  0.33887  0.59490  0.19900  1.0000
  C   C131      1.0  0.30427  0.52982  0.24132  1.0000
  H   H194      1.0  0.30907  0.60969  0.25529  1.0000
  H   H195      1.0  0.29525  0.59243  0.28935  1.0000
  H   H196      1.0  0.29144  0.56322  0.19219  1.0000
  H   H197      1.0  0.29182  0.59283  0.20031  1.0000
  H   H198      1.0  0.34714  0.56779  0.23821  1.0000
  H   H199      1.0  0.33147  0.55933  0.19737  1.0000
  H   H200      1.0  0.32474  0.54841  0.28164  1.0000
  H   H201      1.0  0.29503  0.55280  0.28703  1.0000
  H   H202      1.0  0.32930  0.60969  0.31701  1.0000
  H   H203      1.0  0.33265  0.57957  0.31674  1.0000
  H   H204      1.0  0.34756  0.59706  0.28233  1.0000
  H   H205      1.0  0.26358  0.55933  0.24909  1.0000
  H   H206      1.0  0.26358  0.59016  0.25229  1.0000
  H   H207      1.0  0.25380  0.57603  0.20991  1.0000
  H   H208      1.0  0.35572  0.59241  0.18506  1.0000
  H   H209      1.0  0.34093  0.60960  0.21866  1.0000
  H   H210      1.0  0.32650  0.59904  0.17589  1.0000
  H   H211      1.0  0.08510  0.79476  0.01132  1.0000
  H   H212      1.0  0.11640  0.99069  0.02779  1.0000
  H   H213      1.0  0.29408  0.90743  0.00271  1.0000
  C   C132      1.0  0.06591  0.97168  0.09416  1.0000
  H   H214      1.0  0.20747  0.70430  0.47742  1.0000
  H   H215      1.0  0.09871  0.84729  0.08437  1.0000
  H   H216      1.0  0.10496  0.96652  0.05222  1.0000
  C   C133      1.0  0.17810  0.56145  0.48599  1.0000
  C   C134      1.0  0.41661  0.55484  0.00497  1.0000
  C   C135      1.0  0.42051  0.97060  0.25652  1.0000
  H   H217      1.0  0.31634  0.95018  0.09555  1.0000
  C   C136      1.0  0.07456  0.90086  0.02434  1.0000
  H   H218      1.0  0.44462  0.53926  0.22758  1.0000
  H   H219      1.0  0.19219  0.95939  0.22618  1.0000
  Fe  Fe21      1.0  0.33067  0.63697  0.46826  1.0000
  H   H220      1.0  0.12618  0.92737  0.02390  1.0000
  C   C137      1.0  0.25134  0.49386  0.16304  1.0000
  H   H221      1.0  0.24867  0.74432  0.48602  1.0000
  H   H222      1.0  0.45042  0.94876  0.24609  1.0000
  H   H223      1.0  0.02442  0.98928  0.06950  1.0000
  H   H224      1.0  0.21048  0.94339  0.36469  1.0000
  S   S46       1.0  0.14045  0.50323  0.11765  1.0000
  H   H225      1.0  0.21897  0.88222  0.26687  1.0000
  H   H226      1.0  0.31749  0.52699  0.21930  1.0000
  H   H227      1.0  0.22913  0.90510  0.31871  1.0000
  C   C138      1.0  0.39613  0.73462  0.47608  1.0000
  H   H228      1.0  0.11193  0.71123  0.45763  1.0000
  H   H229      1.0  0.41361  0.98554  0.24130  1.0000
  H   H230      1.0  0.11519  0.85676  0.04502  1.0000
  H   H231      1.0  0.42033  0.93598  0.30209  1.0000
  C   C139      1.0  0.42363  0.88020  0.02388  1.0000
  H   H232      1.0  0.17664  0.59424  0.40602  1.0000
  N   N7        1.0  0.13249  0.62307  0.10800  1.0000
  C   C140      1.0  0.15793  0.61935  0.10332  1.0000
  C   C141      1.0  0.12971  0.64389  0.13304  1.0000
  C   C142      1.0  0.12252  0.62745  0.06875  1.0000
  C   C143      1.0  0.12239  0.60187  0.12539  1.0000
  C   C144      1.0  0.16516  0.60147  0.07319  1.0000
  C   C145      1.0  0.13888  0.64161  0.17438  1.0000
  C   C146      1.0  0.09743  0.63535  0.06661  1.0000
  C   C147      1.0  0.09835  0.60377  0.14358  1.0000
  H   H233      1.0  0.16667  0.63552  0.09546  1.0000
  H   H234      1.0  0.16592  0.61380  0.13077  1.0000
  H   H235      1.0  0.11170  0.64933  0.13556  1.0000
  H   H236      1.0  0.13835  0.65881  0.11981  1.0000
  C   C148      1.0  0.24928  0.64186  0.45563  1.0000
  H   H237      1.0  0.12336  0.61179  0.05071  1.0000
  H   H238      1.0  0.12159  0.58791  0.10378  1.0000
  H   H239      1.0  0.13389  0.59513  0.14818  1.0000
  H   H240      1.0  0.18387  0.59848  0.07557  1.0000
  H   H241      1.0  0.27936  0.98761  0.15602  1.0000
  H   H242      1.0  0.16180  0.60734  0.04352  1.0000
  H   H243      1.0  0.34325  0.90817  0.07515  1.0000
  H   H244      1.0  0.13066  0.62738  0.18982  1.0000
  H   H245      1.0  0.15770  0.63952  0.17541  1.0000
  H   H246      1.0  0.08554  0.62252  0.07820  1.0000
  H   H247      1.0  0.01799  0.95587  0.04281  1.0000
  H   H248      1.0  0.26850  0.90880  0.29728  1.0000
  H   H249      1.0  0.24822  0.65137  0.42923  1.0000
  H   H250      1.0  0.09040  0.62076  0.14303  1.0000
  H   H251      1.0  0.09916  0.59837  0.17406  1.0000
  N   N8        1.0  0.07976  0.85151  0.39102  1.0000
  C   C149      1.0  0.06627  0.86259  0.42290  1.0000
  C   C150      1.0  0.06487  0.83289  0.37448  1.0000
  C   C151      1.0  0.08424  0.86947  0.36116  1.0000
  C   C152      1.0  0.10184  0.84268  0.40783  1.0000
  C   C153      1.0  0.07678  0.88427  0.44090  1.0000
  C   C154      1.0  0.05968  0.81291  0.40168  1.0000
  C   C155      1.0  0.09300  0.86137  0.32184  1.0000
  C   C156      1.0  0.11593  0.82563  0.38356  1.0000
  H   H252      1.0  0.04879  0.86731  0.41281  1.0000
  H   H253      1.0  0.21536  0.52823  0.45736  1.0000
  H   H254      1.0  0.07219  0.82521  0.34831  1.0000
  H   H255      1.0  0.04821  0.84006  0.36463  1.0000
  H   H256      1.0  0.06839  0.87944  0.35532  1.0000
  H   H257      1.0  0.09706  0.88201  0.37183  1.0000
  H   H258      1.0  0.11349  0.85706  0.41501  1.0000
  H   H259      1.0  0.09881  0.83448  0.43606  1.0000
  C   C157      1.0  0.45442  0.77190  0.99629  1.0000
  C   C158      1.0  0.08370  0.83790  0.02939  1.0000
  H   H260      1.0  0.44497  0.96934  0.20981  1.0000
  H   H261      1.0  0.04992  0.79966  0.38574  1.0000
  H   H262      1.0  0.07548  0.80465  0.41249  1.0000
  H   H263      1.0  0.04891  0.81819  0.42617  1.0000
  H   H264      1.0  0.07995  0.85151  0.30571  1.0000
  H   H265      1.0  0.10919  0.85178  0.32391  1.0000
  H   H266      1.0  0.09679  0.87661  0.30417  1.0000
  H   H267      1.0  0.13154  0.83397  0.37238  1.0000
  H   H268      1.0  0.10685  0.81777  0.35918  1.0000
  H   H269      1.0  0.12159  0.81124  0.40193  1.0000
  N   N9        1.0  0.19971  0.56686  0.42236  1.0000
  C   C159      1.0  0.19431  0.59176  0.41731  1.0000
  H   H270      1.0  0.03213  0.95752  0.11140  1.0000
  H   H271      1.0  0.21840  0.56149  0.36959  1.0000
  H   H272      1.0  0.41917  0.79712  0.02348  1.0000
  H   H273      1.0  0.19460  0.60051  0.44558  1.0000
  C   C160      1.0  0.22329  0.72044  0.43001  1.0000
  C   C161      1.0  0.42453  0.94794  0.35989  1.0000
  C   C162      1.0  0.39355  0.97437  0.30987  1.0000
  C   C163      1.0  0.10841  0.74756  0.46687  1.0000
  C   C164      1.0  0.27072  0.63666  0.47138  1.0000
  H   H274      1.0  0.09467  0.65220  0.08016  1.0000
  H   H275      1.0  0.19626  0.88218  0.23254  1.0000
  H   H276      1.0  0.13487  0.65742  0.19059  1.0000
  C   C165      1.0  0.23279  0.50854  0.15529  1.0000
  H   H277      1.0  0.33025  0.88882  0.04057  1.0000
  C   C166      1.0  0.18247  0.55699  0.35627  1.0000
  C   C167      1.0  0.25506  0.91681  0.27922  1.0000
  C   C168      1.0  0.21054  0.60536  0.39123  1.0000
  H   H278      1.0  0.44862  0.53812  0.34219  1.0000
  H   H279      1.0  0.20601  0.53660  0.38848  1.0000
  H   H280      1.0  0.31099  0.97029  0.01421  1.0000
  C   C169      1.0  0.36076  0.71372  0.46850  1.0000
  H   H281      1.0  0.07506  0.95518  0.09128  1.0000
  C   C170      1.0  0.42794  0.95117  0.31645  1.0000
  C   C171      1.0  0.42098  0.80959  0.99994  1.0000
  H   H282      1.0  0.20702  0.98460  0.23978  1.0000
  H   H283      1.0  0.22561  0.68615  0.45179  1.0000
  N   N10       1.0  0.35880  0.80710  0.36614  1.0000
  C   C172      1.0  0.33742  0.79397  0.37608  1.0000
  C   C173      1.0  0.35412  0.83182  0.37490  1.0000
  C   C174      1.0  0.37771  0.79865  0.39199  1.0000
  C   C175      1.0  0.36439  0.80293  0.32451  1.0000
  C   C176      1.0  0.33908  0.76776  0.37318  1.0000
  C   C177      1.0  0.33326  0.84232  0.35432  1.0000
  C   C178      1.0  0.40105  0.81053  0.38875  1.0000
  C   C179      1.0  0.37894  0.82125  0.30412  1.0000
  H   H284      1.0  0.33174  0.79820  0.40572  1.0000
  H   H285      1.0  0.32294  0.79886  0.35704  1.0000
  H   H286      1.0  0.36885  0.84281  0.36841  1.0000
  H   H287      1.0  0.35158  0.83428  0.40611  1.0000
  H   H288      1.0  0.37240  0.79996  0.42251  1.0000
  H   H289      1.0  0.38130  0.78031  0.38676  1.0000
  H   H290      1.0  0.37323  0.78625  0.32097  1.0000
  H   H291      1.0  0.34828  0.80162  0.30745  1.0000
  H   H292      1.0  0.34562  0.76197  0.34506  1.0000
  H   H293      1.0  0.34968  0.76055  0.39659  1.0000
  H   H294      1.0  0.32174  0.76038  0.37673  1.0000
  H   H295      1.0  0.33298  0.83841  0.32328  1.0000
  H   H296      1.0  0.31705  0.83668  0.36766  1.0000
  H   H297      1.0  0.33385  0.86115  0.35758  1.0000
  H   H298      1.0  0.40010  0.82912  0.39402  1.0000
  H   H299      1.0  0.40927  0.80675  0.36092  1.0000
  H   H300      1.0  0.41260  0.80356  0.41120  1.0000
  H   H301      1.0  0.38986  0.81277  0.28237  1.0000
  H   H302      1.0  0.39059  0.83119  0.32272  1.0000
  H   H303      1.0  0.36785  0.83312  0.28769  1.0000
  Fe  Fe22      1.0  0.14403  0.86977  0.48090  1.0000
  H   H304      1.0  0.09393  0.88101  0.45308  1.0000
  H   H305      1.0  0.42935  0.96330  0.37663  1.0000
  N   N11       1.0  0.30084  0.92937  0.05148  1.0000
  H   H306      1.0  0.04082  0.82171  0.01004  1.0000
  H   H307      1.0  0.34041  0.92145  0.00934  1.0000
  C   C180      1.0  0.11074  0.91939  0.01317  1.0000
  H   H308      1.0  0.05745  0.59812  0.02891  1.0000
  C   C181      1.0  0.20286  0.55513  0.38433  1.0000
  H   H309      1.0  0.42120  0.49665  0.22143  1.0000
  C   C182      1.0  0.38462  0.71384  0.47043  1.0000
  H   H310      1.0  0.15283  0.78463  0.47558  1.0000
  H   H311      1.0  0.22112  0.73830  0.43978  1.0000
  C   C183      1.0  0.30186  0.92434  0.00906  1.0000
  C   C184      1.0  0.10122  0.97942  0.03000  1.0000
  H   H312      1.0  0.45756  0.97848  0.25402  1.0000
  H   H313      1.0  0.26246  0.93284  0.26802  1.0000
  C   C185      1.0  0.32870  0.89662  0.06942  1.0000
  H   H314      1.0  0.44666  0.94980  0.31148  1.0000
  S   S47       1.0  0.34208  0.60270  0.48886  1.0000
  Fe  Fe23      1.0  0.11719  0.50721  0.16847  1.0000
  H   H315      1.0  0.07762  0.89861  0.42040  1.0000
  H   H316      1.0  0.17857  0.57485  0.34851  1.0000
  H   H317      1.0  0.20801  0.71622  0.41228  1.0000
  H   H318      1.0  0.16687  0.54886  0.36785  1.0000
  H   H319      1.0  0.06175  0.89475  0.04401  1.0000
  C   C186      1.0  0.14470  0.72781  0.46084  1.0000
  C   C187      1.0  0.43580  0.52964  0.32337  1.0000
  H   H320      1.0  0.38424  0.95906  0.29900  1.0000
  H   H321      1.0  0.09264  0.63734  0.03594  1.0000
  H   H322      1.0  0.33027  0.88251  0.09036  1.0000
  H   H323      1.0  0.15673  0.58490  0.07773  1.0000
  H   H324      1.0  0.39129  0.97444  0.34143  1.0000
  H   H325      1.0  0.23287  0.95289  0.24573  1.0000
  H   H326      1.0  0.45007  0.98811  0.31924  1.0000
  H   H327      1.0  0.03058  0.93498  0.01231  1.0000
  H   H328      1.0  0.17825  0.58001  0.49146  1.0000
  C   C188      1.0  0.22958  0.54048  0.45439  1.0000
  H   H329      1.0  0.20476  0.62338  0.39063  1.0000
  H   H330      1.0  0.21015  0.59922  0.36120  1.0000
  H   H331      1.0  0.29264  0.89469  0.06781  1.0000
  H   H332      1.0  0.30261  0.70069  0.47761  1.0000
  C   C189      1.0  0.22448  0.70370  0.46386  1.0000
  Fe  Fe24      1.0  0.14766  0.66891  0.47563  1.0000
  C   C190      1.0  0.27712  0.93777  0.06121  1.0000
  C   C191      1.0  0.26520  0.97584  0.15813  1.0000
  S   S48       1.0  0.39466  0.62252  0.48737  1.0000
  H   H333      1.0  0.23864  0.54052  0.48246  1.0000
  N   N12       1.0  0.05964  0.98098  0.05514  1.0000
  C   C192      1.0  0.22162  0.56493  0.44505  1.0000
  H   H334      1.0  0.18060  0.94893  0.36214  1.0000
  S   S49       1.0  0.16106  0.70291  0.45604  1.0000
  C   C193      1.0  0.03400  0.94642  0.03714  1.0000
  H   H335      1.0  0.26864  0.71772  0.44991  1.0000
  H   H336      1.0  0.41990  0.52834  0.34037  1.0000
  C   C194      1.0  0.23372  0.92127  0.30409  1.0000
  H   H337      1.0  0.23951  0.93291  0.32742  1.0000
  C   C195      1.0  0.31729  0.94774  0.06396  1.0000
  H   H338      1.0  0.06586  0.89002  0.46502  1.0000
  H   H339      1.0  0.25165  0.90498  0.25508  1.0000
  Fe  Fe25      1.0  0.37912  0.65590  0.46877  1.0000
  H   H340      1.0  0.17458  0.74921  0.46405  1.0000
  C   C196      1.0  0.07230  0.59106  0.01486  1.0000
  C   C197      1.0  0.11992  0.76825  0.47261  1.0000
  H   H341      1.0  0.21289  0.64007  0.46239  1.0000
  H   H342      1.0  0.11330  0.80417  0.00780  1.0000
  H   H343      1.0  0.45161  0.49977  0.04547  1.0000
  H   H344      1.0  0.43796  0.76276  0.00082  1.0000
  H   H345      1.0  0.18013  0.53708  0.43979  1.0000
  H   H346      1.0  0.07256  0.82586  0.04524  1.0000
  H   H347      1.0  0.41460  0.73484  0.47719  1.0000
  C   C198      1.0  0.35992  0.75490  0.47788  1.0000
  H   H348      1.0  0.33007  0.73396  0.46976  1.0000
  H   H349      1.0  0.11555  0.82696  0.05878  1.0000
  H   H350      1.0  0.25742  0.90766  0.07892  1.0000
  H   H351      1.0  0.27646  0.94375  0.09146  1.0000
  C   C199      1.0  0.20007  0.96832  0.25091  1.0000
  C   C200      1.0  0.25741  0.92059  0.05581  1.0000
  H   H352      1.0  0.05103  0.96904  0.99806  1.0000
  H   H353      1.0  0.24138  0.53403  0.43200  1.0000
  S   S50       1.0  0.20419  0.49851  0.16257  1.0000
  H   H354      1.0  0.32886  0.98207  0.05100  1.0000
  C   C201      1.0  0.47305  0.75314  0.99447  1.0000
  C   C202      1.0  0.17993  0.55593  0.44293  1.0000
  C   C203      1.0  0.42766  0.50769  0.24511  1.0000
  H   H355      1.0  0.44607  0.49539  0.33770  1.0000
  H   H356      1.0  0.08993  0.74714  0.46742  1.0000
  C   C204      1.0  0.44492  0.50597  0.31133  1.0000
  H   H357      1.0  0.39275  0.77107  0.48425  1.0000
  S   S51       1.0  0.38820  0.83400  0.48474  1.0000
  S   S52       1.0  0.10450  0.79327  0.48249  1.0000
  C   C205      1.0  0.40263  0.57408  0.00178  1.0000
  H   H358      1.0  0.40388  0.81740  0.99532  1.0000
  N   N13       1.0  0.43109  0.49378  0.28091  1.0000
  N   N14       1.0  0.24351  0.70773  0.49241  1.0000
  Fe  Fe26      1.0  0.48098  0.82484  0.84742  1.0000
  S   S53       1.0  0.44362  0.82999  0.85866  1.0000
  C   C206      1.0  0.08764  0.90571  0.95886  1.0000
  H   H359      1.0  0.44447  0.68794  0.66441  1.0000
  S   S54       1.0  0.45208  0.88443  0.84775  1.0000
  Fe  Fe27      1.0  0.45418  0.85958  0.89614  1.0000
  S   S55       1.0  0.44189  0.86123  0.95839  1.0000
  Fe  Fe28      1.0  0.44483  0.85444  0.80916  1.0000
  S   S56       1.0  0.41525  0.85618  0.76640  1.0000
  H   H360      1.0  0.42573  0.92531  0.68651  1.0000
  S   S57       1.0  0.48170  0.84778  0.79540  1.0000
  Fe  Fe29      1.0  0.47371  0.64985  0.81279  1.0000
  S   S58       1.0  0.44019  0.63142  0.80540  1.0000
  C   C207      1.0  0.00974  0.74292  0.83667  1.0000
  C   C208      1.0  0.43369  0.55129  0.97725  1.0000
  S   S59       1.0  0.46733  0.58284  0.81848  1.0000
  Fe  Fe30      1.0  0.45917  0.60634  0.76877  1.0000
  S   S60       1.0  0.45131  0.59461  0.70736  1.0000
  Fe  Fe31      1.0  0.45102  0.60975  0.85592  1.0000
  S   S61       1.0  0.42545  0.60588  0.90523  1.0000
  H   H361      1.0  0.47032  0.79430  0.69784  1.0000
  H   H362      1.0  0.43119  0.91386  0.79145  1.0000
  Fe  Fe32      1.0  0.04379  0.86385  0.79572  1.0000
  S   S62       1.0  0.01315  0.84503  0.81877  1.0000
  S   S63       1.0  0.04866  0.85902  0.73120  1.0000
  Fe  Fe33      1.0  0.05769  0.88057  0.87642  1.0000
  S   S64       1.0  0.02861  0.86215  0.90404  1.0000
  S   S65       1.0  0.08499  0.90118  0.90869  1.0000
  Fe  Fe34      1.0  0.03701  0.83254  0.86471  1.0000
  S   S66       1.0  0.04555  0.79615  0.88463  1.0000
  H   H363      1.0  0.46735  0.77221  0.79459  1.0000
  S   S67       1.0  0.06776  0.85025  0.84031  1.0000
  S   S68       1.0  0.03619  0.89605  0.82919  1.0000
  Fe  Fe35      1.0  0.05056  0.62257  0.88742  1.0000
  S   S69       1.0  0.01392  0.63205  0.87377  1.0000
  S   S70       1.0  0.05536  0.61243  0.95063  1.0000
  Fe  Fe36      1.0  0.06441  0.62834  0.80237  1.0000
  S   S71       1.0  0.02883  0.63751  0.78459  1.0000
  S   S72       1.0  0.09329  0.62326  0.75904  1.0000
  Fe  Fe37      1.0  0.02904  0.66011  0.83731  1.0000
  S   S73       1.0  0.01401  0.69619  0.83032  1.0000
  Fe  Fe38      1.0  0.01702  0.60876  0.82262  1.0000
  S   S74       1.0  0.06540  0.65201  0.85380  1.0000
  S   S75       1.0  0.05298  0.59841  0.83772  1.0000
  H   H364      1.0  0.05641  0.54597  0.94879  1.0000
  H   H365      1.0  0.47244  0.76828  0.92109  1.0000
  Fe  Fe39      1.0  0.36574  0.62155  0.52953  1.0000
  H   H366      1.0  0.45662  0.77312  0.72592  1.0000
  S   S76       1.0  0.36811  0.61888  0.59488  1.0000
  H   H367      1.0  0.48857  0.91029  0.66460  1.0000
  H   H368      1.0  0.02060  0.81787  0.70631  1.0000
  H   H369      1.0  0.48689  0.75599  0.97370  1.0000
  H   H370      1.0  0.43535  0.93872  0.76345  1.0000
  H   H371      1.0  0.41697  0.91559  0.74672  1.0000
  S   S77       1.0  0.15512  0.65963  0.53668  1.0000
  C   C209      1.0  0.40117  0.67754  0.60759  1.0000
  C   C210      1.0  0.02718  0.55230  0.71109  1.0000
  Fe  Fe40      1.0  0.12205  0.64013  0.53400  1.0000
  S   S78       1.0  0.09401  0.64431  0.57929  1.0000
  C   C211      1.0  0.43837  0.75538  0.91646  1.0000
  C   C212      1.0  0.99867  0.56989  0.95205  1.0000
  N   N15       1.0  0.42502  0.67159  0.59463  1.0000
  Fe  Fe41      1.0  0.14157  0.85335  0.56495  1.0000
  H   H372      1.0  0.02720  0.55257  0.74301  1.0000
  S   S79       1.0  0.13894  0.86138  0.62889  1.0000
  H   H373      1.0  0.03159  0.81940  0.96153  1.0000
  H   H374      1.0  0.46833  0.90990  0.76390  1.0000
  H   H375      1.0  0.04282  0.59309  0.60119  1.0000
  H   H376      1.0  0.20795  0.69884  0.54771  1.0000
  S   S80       1.0  0.16939  0.86985  0.52996  1.0000
  S   S81       1.0  0.15220  0.81789  0.54869  1.0000
  Fe  Fe42      1.0  0.38526  0.84705  0.54592  1.0000
  H   H377      1.0  0.44609  0.77084  0.65548  1.0000
  S   S82       1.0  0.41708  0.84726  0.58441  1.0000
  H   H378      1.0  0.48881  0.96673  0.72840  1.0000
  H   H379      1.0  0.10404  0.86230  0.98055  1.0000
  C   C213      1.0  0.01341  0.80731  0.72952  1.0000
  H   H380      1.0  0.08664  0.78028  0.82008  1.0000
  S   S83       1.0  0.35434  0.82597  0.56011  1.0000
  C   C214      1.0  0.40566  0.58944  0.97116  1.0000
  Fe  Fe43      1.0  0.17132  0.62845  0.51131  1.0000
  S   S84       1.0  0.13896  0.60788  0.51380  1.0000
  C   C215      1.0  0.09493  0.58601  0.95786  1.0000
  H   H381      1.0  0.00528  0.77946  0.84182  1.0000
  H   H382      1.0  0.12544  0.56569  0.96511  1.0000
  S   S85       1.0  0.49183  0.85344  0.88750  1.0000
  C   C216      1.0  0.11053  0.57267  0.97915  1.0000
  H   H383      1.0  0.45318  0.78741  0.90030  1.0000
  C   C217      1.0  0.24347  0.73172  0.50809  1.0000
  H   H384      1.0  0.09793  0.78001  0.71838  1.0000
  C   C218      1.0  0.45503  0.77524  0.92447  1.0000
  C   C219      1.0  0.20272  0.87149  0.61827  1.0000
  H   H385      1.0  0.43638  0.74387  0.94123  1.0000
  H   H386      1.0  0.45515  0.90378  0.62262  1.0000
  H   H387      1.0  0.18769  0.86014  0.61589  1.0000
  H   H388      1.0  0.09250  0.79789  0.77966  1.0000
  C   C220      1.0  0.47776  0.71619  0.81724  1.0000
  H   H389      1.0  0.40150  0.68758  0.63457  1.0000
  Fe  Fe44      1.0  0.17799  0.83438  0.51043  1.0000
  H   H390      1.0  0.03990  0.61042  0.64284  1.0000
  S   S86       1.0  0.36494  0.87799  0.52862  1.0000
  H   H391      1.0  0.39516  0.93117  0.97265  1.0000
  H   H392      1.0  0.45197  0.95163  0.71055  1.0000
  H   H393      1.0  0.25283  0.60758  0.54991  1.0000
  C   C221      1.0  0.09351  0.63009  0.70938  1.0000
  C   C222      1.0  0.11226  0.62327  0.68695  1.0000
  C   C223      1.0  0.11285  0.62762  0.64722  1.0000
  C   C224      1.0  0.09459  0.63880  0.62937  1.0000
  C   C225      1.0  0.07597  0.64587  0.65186  1.0000
  C   C226      1.0  0.07544  0.64162  0.69160  1.0000
  H   H394      1.0  0.12638  0.61439  0.70037  1.0000
  H   H395      1.0  0.12732  0.62209  0.63039  1.0000
  H   H396      1.0  0.06179  0.65461  0.63842  1.0000
  H   H397      1.0  0.06101  0.64721  0.70846  1.0000
  C   C227      1.0  0.07412  0.85947  0.70363  1.0000
  C   C228      1.0  0.09555  0.86402  0.71990  1.0000
  C   C229      1.0  0.11521  0.86438  0.69666  1.0000
  C   C230      1.0  0.11372  0.86005  0.65703  1.0000
  C   C231      1.0  0.09237  0.85499  0.64095  1.0000
  C   C232      1.0  0.07270  0.85475  0.66414  1.0000
  H   H398      1.0  0.09691  0.86764  0.75023  1.0000
  H   H399      1.0  0.13164  0.86833  0.70940  1.0000
  H   H400      1.0  0.09093  0.85166  0.61054  1.0000
  H   H401      1.0  0.05621  0.85119  0.65128  1.0000
  C   C233      1.0  0.03659  0.76860  0.86862  1.0000
  C   C234      1.0  0.05022  0.74952  0.87749  1.0000
  C   C235      1.0  0.04374  0.72731  0.86589  1.0000
  C   C236      1.0  0.02335  0.72381  0.84553  1.0000
  H   H402      1.0  0.25691  0.73370  0.53050  1.0000
  C   C237      1.0  0.01627  0.76512  0.84810  1.0000
  H   H403      1.0  0.06590  0.75188  0.89355  1.0000
  H   H404      1.0  0.05439  0.71286  0.87305  1.0000
  H   H405      1.0  0.06783  0.80319  0.80933  1.0000
  H   H406      1.0  0.08810  0.79627  0.93172  1.0000
  H   H407      1.0  0.00882  0.55323  0.70289  1.0000
  H   H408      1.0  0.04442  0.55805  0.63857  1.0000
  H   H409      1.0  0.09787  0.58915  0.92778  1.0000
  H   H410      1.0  0.08106  0.77363  0.67587  1.0000
  C   C238      1.0  0.10883  0.84449  0.92821  1.0000
  C   C239      1.0  0.47402  0.75775  0.81010  1.0000
  H   H411      1.0  0.42654  0.91374  0.61986  1.0000
  C   C240      1.0  0.42274  0.58592  0.94343  1.0000
  C   C241      1.0  0.43681  0.56673  0.94677  1.0000
  H   H412      1.0  0.44997  0.56374  0.92572  1.0000
  C   C242      1.0  0.42781  0.60125  0.67681  1.0000
  C   C243      1.0  0.42858  0.59447  0.63807  1.0000
  C   C244      1.0  0.41053  0.59967  0.61254  1.0000
  C   C245      1.0  0.39128  0.61146  0.62565  1.0000
  C   C246      1.0  0.39040  0.61802  0.66446  1.0000
  C   C247      1.0  0.40862  0.61316  0.68983  1.0000
  H   H413      1.0  0.44327  0.58514  0.62774  1.0000
  H   H414      1.0  0.41139  0.59435  0.58289  1.0000
  H   H415      1.0  0.37553  0.62698  0.67500  1.0000
  H   H416      1.0  0.40769  0.61833  0.71955  1.0000
  H   H417      1.0  0.42611  0.72269  0.72140  1.0000
  C   C248      1.0  0.44313  0.91643  0.63491  1.0000
  H   H418      1.0  0.41764  0.90296  0.93510  1.0000
  C   C249      1.0  0.41651  0.85459  0.71579  1.0000
  C   C250      1.0  0.43677  0.84950  0.69642  1.0000
  C   C251      1.0  0.43675  0.84776  0.65612  1.0000
  C   C252      1.0  0.41646  0.85075  0.63485  1.0000
  C   C253      1.0  0.39629  0.85605  0.65422  1.0000
  C   C254      1.0  0.39636  0.85806  0.69445  1.0000
  H   H419      1.0  0.45240  0.84679  0.71247  1.0000
  H   H420      1.0  0.45245  0.84373  0.64132  1.0000
  H   H421      1.0  0.38059  0.85851  0.63820  1.0000
  H   H422      1.0  0.38061  0.86204  0.70917  1.0000
  H   H423      1.0  0.45170  0.71517  0.54228  1.0000
  N   N16       1.0  0.22162  0.86125  0.64220  1.0000
  H   H424      1.0  0.20854  0.87367  0.58820  1.0000
  H   H425      1.0  0.25596  0.88526  0.54289  1.0000
  C   C255      1.0  0.47923  0.90118  0.68764  1.0000
  C   C256      1.0  0.06661  0.83131  0.96678  1.0000
  H   H426      1.0  0.09514  0.71927  0.52654  1.0000
  H   H427      1.0  0.03211  0.59195  0.74611  1.0000
  Fe  Fe45      1.0  0.12828  0.82184  0.49904  1.0000
  C   C257      1.0  0.38644  0.69171  0.57979  1.0000
  H   H428      1.0  0.07549  0.72224  0.56647  1.0000
  H   H429      1.0  0.09375  0.85273  0.91484  1.0000
  H   H430      1.0  0.42136  0.76171  0.90718  1.0000
  H   H431      1.0  0.44507  0.74499  0.89228  1.0000
  H   H432      1.0  0.22073  0.73600  0.55753  1.0000
  H   H433      1.0  0.05045  0.79827  0.97979  1.0000
  N   N17       1.0  0.00788  0.55016  0.92893  1.0000
  H   H434      1.0  0.23861  0.89337  0.65525  1.0000
  H   H435      1.0  0.16164  0.55478  0.49700  1.0000
  C   C258      1.0  0.23660  0.85564  0.52540  1.0000
  C   C259      1.0  0.25646  0.86710  0.53766  1.0000
  C   C260      1.0  0.48824  0.76144  0.84187  1.0000
  H   H436      1.0  0.36831  0.69074  0.58896  1.0000
  H   H437      1.0  0.25248  0.69629  0.54967  1.0000
  C   C261      1.0  0.23032  0.62299  0.50836  1.0000
  C   C262      1.0  0.04646  0.81673  0.98096  1.0000
  H   H438      1.0  0.32859  0.94131  0.97532  1.0000
  H   H439      1.0  0.41186  0.64106  0.56738  1.0000
  H   H440      1.0  0.11776  0.79278  0.94485  1.0000
  C   C263      1.0  0.09987  0.79138  0.95506  1.0000
  C   C264      1.0  0.00654  0.60047  0.70452  1.0000
  S   S87       1.0  0.30107  0.86919  0.56234  1.0000
  H   H441      1.0  0.20879  0.67370  0.51761  1.0000
  H   H442      1.0  0.03193  0.73861  0.75871  1.0000
  H   H443      1.0  0.24505  0.88212  0.60946  1.0000
  C   C265      1.0  0.46914  0.73532  0.79757  1.0000
  H   H444      1.0  0.28765  0.68920  0.51706  1.0000
  H   H445      1.0  0.43441  0.70639  0.60756  1.0000
  C   C266      1.0  0.19338  0.89462  0.63218  1.0000
  C   C267      1.0  0.23721  0.83214  0.51866  1.0000
  H   H446      1.0  0.00439  0.60496  0.67395  1.0000
  N   N18       1.0  0.04017  0.57234  0.69537  1.0000
  C   C268      1.0  0.06544  0.57030  0.70345  1.0000
  C   C269      1.0  0.03664  0.57321  0.65261  1.0000
  H   H447      1.0  0.22029  0.67290  0.56473  1.0000
  C   C270      1.0  0.03139  0.59367  0.71445  1.0000
  C   C271      1.0  0.07217  0.56589  0.74552  1.0000
  C   C272      1.0  0.04697  0.59408  0.63224  1.0000
  H   H448      1.0  0.12024  0.92250  0.95370  1.0000
  C   C273      1.0  0.22117  0.74032  0.52663  1.0000
  H   H449      1.0  0.07334  0.55671  0.68558  1.0000
  H   H450      1.0  0.07448  0.58620  0.69528  1.0000
  H   H451      1.0  0.03145  0.77191  0.68995  1.0000
  H   H452      1.0  0.44533  0.73928  0.69376  1.0000
  H   H453      1.0  0.38452  0.76198  0.65290  1.0000
  C   C274      1.0  0.10734  0.91657  0.97338  1.0000
  H   H454      1.0  0.04253  0.60847  0.70799  1.0000
  H   H455      1.0  0.09111  0.56541  0.74783  1.0000
  H   H456      1.0  0.06641  0.57986  0.76446  1.0000
  H   H457      1.0  0.06568  0.54942  0.75629  1.0000
  Fe  Fe46      1.0  0.00727  0.87638  0.85534  1.0000
  C   C275      1.0  0.27700  0.85516  0.54302  1.0000
  H   H458      1.0  0.00884  0.75843  0.74996  1.0000
  H   H459      1.0  0.02440  0.53904  0.84569  1.0000
  H   H460      1.0  0.41483  0.66384  0.53582  1.0000
  H   H461      1.0  0.25018  0.67407  0.51547  1.0000
  C   C276      1.0  0.07574  0.59541  0.97566  1.0000
  H   H462      1.0  0.44689  0.80241  0.72716  1.0000
  H   H463      1.0  0.03663  0.57106  0.91062  1.0000
  N   N19       1.0  0.12371  0.71863  0.59349  1.0000
  C   C277      1.0  0.13909  0.70617  0.62133  1.0000
  C   C278      1.0  0.13818  0.72576  0.56000  1.0000
  C   C279      1.0  0.10598  0.70183  0.57956  1.0000
  C   C280      1.0  0.11272  0.73862  0.61372  1.0000
  C   C281      1.0  0.12726  0.69545  0.65636  1.0000
  C   C282      1.0  0.15980  0.73965  0.57027  1.0000
  C   C283      1.0  0.08773  0.71082  0.55170  1.0000
  C   C284      1.0  0.10605  0.75941  0.58888  1.0000
  H   H464      1.0  0.14857  0.69224  0.60644  1.0000
  H   H465      1.0  0.15235  0.71779  0.63335  1.0000
  H   H466      1.0  0.12821  0.73595  0.53924  1.0000
  H   H467      1.0  0.14394  0.71060  0.54327  1.0000
  H   H468      1.0  0.11446  0.68711  0.56531  1.0000
  H   H469      1.0  0.09608  0.69460  0.60370  1.0000
  H   H470      1.0  0.09701  0.73304  0.62892  1.0000
  H   H471      1.0  0.12417  0.74550  0.63661  1.0000
  H   H472      1.0  0.11527  0.70733  0.67064  1.0000
  H   H473      1.0  0.11820  0.67951  0.64842  1.0000
  H   H474      1.0  0.14044  0.69050  0.67779  1.0000
  H   H475      1.0  0.17378  0.72823  0.57998  1.0000
  H   H476      1.0  0.16603  0.74857  0.54438  1.0000
  H   H477      1.0  0.15654  0.75271  0.59257  1.0000
  C   C285      1.0  0.46691  0.94075  0.70333  1.0000
  C   C286      1.0  0.24227  0.69050  0.52444  1.0000
  H   H478      1.0  0.45871  0.73272  0.77230  1.0000
  H   H479      1.0  0.12127  0.76879  0.57857  1.0000
  H   H480      1.0  0.09614  0.77166  0.60652  1.0000
  H   H481      1.0  0.09528  0.75499  0.56383  1.0000
  H   H482      1.0  0.45978  0.65857  0.54496  1.0000
  C   C287      1.0  0.22863  0.83837  0.62603  1.0000
  C   C288      1.0  0.21522  0.85930  0.68382  1.0000
  C   C289      1.0  0.26487  0.86794  0.65532  1.0000
  C   C290      1.0  0.20950  0.82244  0.61135  1.0000
  C   C291      1.0  0.19332  0.84588  0.69326  1.0000
  H   H483      1.0  0.24015  0.84066  0.60109  1.0000
  H   H484      1.0  0.23882  0.82860  0.64740  1.0000
  H   H485      1.0  0.22915  0.85084  0.70022  1.0000
  H   H486      1.0  0.21391  0.87635  0.69776  1.0000
  H   H487      1.0  0.26392  0.86317  0.68590  1.0000
  H   H488      1.0  0.27133  0.85338  0.63811  1.0000
  H   H489      1.0  0.12400  0.83960  0.98377  1.0000
  H   H490      1.0  0.21720  0.80594  0.60255  1.0000
  H   H491      1.0  0.20116  0.82941  0.58532  1.0000
  H   H492      1.0  0.19641  0.81872  0.63307  1.0000
  H   H493      1.0  0.19721  0.82760  0.69800  1.0000
  H   H494      1.0  0.17970  0.84738  0.67146  1.0000
  H   H495      1.0  0.18560  0.85297  0.71976  1.0000
  N   N20       1.0  0.41348  0.77663  0.68342  1.0000
  C   C292      1.0  0.43757  0.78374  0.67397  1.0000
  C   C293      1.0  0.40154  0.76960  0.64684  1.0000
  C   C294      1.0  0.41331  0.75687  0.71084  1.0000
  C   C295      1.0  0.40153  0.79651  0.70202  1.0000
  C   C296      1.0  0.27778  0.83184  0.53486  1.0000
  H   H496      1.0  0.00292  0.79338  0.71715  1.0000
  C   C297      1.0  0.45344  0.78855  0.70856  1.0000
  C   C298      1.0  0.37567  0.79370  0.70900  1.0000
  H   H497      1.0  0.07764  0.69612  0.54066  1.0000
  H   H498      1.0  0.43749  0.79961  0.65668  1.0000
  H   H499      1.0  0.44358  0.63833  0.51742  1.0000
  H   H500      1.0  0.41130  0.75596  0.63197  1.0000
  H   H501      1.0  0.41968  0.76215  0.73967  1.0000
  H   H502      1.0  0.39555  0.75083  0.71567  1.0000
  H   H503      1.0  0.40928  0.80062  0.73039  1.0000
  H   H504      1.0  0.40374  0.81206  0.68461  1.0000
  H   H505      1.0  0.29065  0.71988  0.51186  1.0000
  C   C299      1.0  0.25179  0.61716  0.52356  1.0000
  S   S88       1.0  0.21230  0.81679  0.50673  1.0000
  H   H506      1.0  0.43874  0.69110  0.52282  1.0000
  C   C300      1.0  0.39806  0.78857  0.61681  1.0000
  H   H507      1.0  0.46704  0.81823  0.93915  1.0000
  H   H508      1.0  0.25854  0.80223  0.51735  1.0000
  H   H509      1.0  0.01358  0.57093  0.87894  1.0000
  H   H510      1.0  0.41955  0.72760  0.67226  1.0000
  H   H511      1.0  0.36584  0.79200  0.68191  1.0000
  H   H512      1.0  0.36925  0.80932  0.72352  1.0000
  H   H513      1.0  0.37182  0.77917  0.72801  1.0000
  N   N21       1.0  0.05038  0.78376  0.73980  1.0000
  C   C301      1.0  0.04016  0.76493  0.71578  1.0000
  C   C302      1.0  0.06502  0.79861  0.71477  1.0000
  C   C303      1.0  0.03203  0.79849  0.75727  1.0000
  C   C304      1.0  0.06426  0.77318  0.77159  1.0000
  S   S89       1.0  0.49244  0.62542  0.77376  1.0000
  C   C305      1.0  0.08606  0.78706  0.69665  1.0000
  H   H514      1.0  0.19199  0.55332  0.50280  1.0000
  C   C306      1.0  0.07857  0.78982  0.79616  1.0000
  Fe  Fe47      1.0  0.48934  0.87690  0.83659  1.0000
  H   H515      1.0  0.05377  0.75355  0.70452  1.0000
  H   H516      1.0  0.07120  0.81381  0.73091  1.0000
  H   H517      1.0  0.05487  0.80567  0.69057  1.0000
  H   H518      1.0  0.02325  0.78956  0.78098  1.0000
  H   H519      1.0  0.03971  0.81388  0.77080  1.0000
  H   H520      1.0  0.05296  0.76404  0.79189  1.0000
  H   H521      1.0  0.07600  0.75987  0.76028  1.0000
  H   H522      1.0  0.47202  0.88558  0.67380  1.0000
  H   H523      1.0  0.28849  0.62002  0.51760  1.0000
  C   C307      1.0  0.21833  0.68397  0.53918  1.0000
  H   H524      1.0  0.09574  0.80013  0.68043  1.0000
  C   C308      1.0  0.42864  0.79810  0.96217  1.0000
  S   S90       1.0  0.99662  0.57763  0.80060  1.0000
  H   H525      1.0  0.42710  0.81100  0.93891  1.0000
  C   C309      1.0  0.03488  0.54184  0.87195  1.0000
  H   H526      1.0  0.01286  0.58129  0.96155  1.0000
  H   H527      1.0  0.44886  0.93390  0.62800  1.0000
  Fe  Fe48      1.0  0.33419  0.85578  0.53807  1.0000
  C   C310      1.0  0.43944  0.91311  0.67833  1.0000
  C   C311      1.0  0.24190  0.87714  0.63968  1.0000
  C   C312      1.0  0.25791  0.82036  0.52287  1.0000
  H   H528      1.0  0.45749  0.68989  0.59210  1.0000
  C   C313      1.0  0.43316  0.92001  0.76167  1.0000
  H   H529      1.0  0.39464  0.60417  0.96888  1.0000
  H   H530      1.0  0.22085  0.86493  0.52124  1.0000
  C   C314      1.0  0.42324  0.65571  0.56068  1.0000
  H   H531      1.0  0.27799  0.88154  0.65290  1.0000
  C   C315      1.0  0.41591  0.90099  0.96573  1.0000
  H   H532      1.0  0.06885  0.82691  0.93621  1.0000
  H   H533      1.0  0.45450  0.65421  0.61901  1.0000
  H   H534      1.0  0.11144  0.82749  0.91541  1.0000
  H   H535      1.0  0.12377  0.85512  0.92023  1.0000
  C   C316      1.0  0.02331  0.55954  0.89841  1.0000
  S   S91       1.0  0.20523  0.61474  0.53239  1.0000
  H   H536      1.0  0.18588  0.89343  0.66120  1.0000
  H   H537      1.0  0.42091  0.67015  0.68056  1.0000
  S   S92       1.0  0.11544  0.85619  0.51772  1.0000
  H   H538      1.0  0.20546  0.73406  0.51244  1.0000
  C   C317      1.0  0.27199  0.62411  0.50525  1.0000
  H   H539      1.0  0.43187  0.89588  0.68195  1.0000
  C   C318      1.0  0.07106  0.89823  0.98459  1.0000
  H   H540      1.0  0.20646  0.90825  0.63125  1.0000
  C   C319      1.0  0.43699  0.70353  0.54651  1.0000
  H   H541      1.0  0.39147  0.66172  0.61430  1.0000
  H   H542      1.0  0.02414  0.51769  0.94191  1.0000
  C   C320      1.0  0.44607  0.64561  0.54658  1.0000
  H   H543      1.0  0.06589  0.59446  0.63454  1.0000
  H   H544      1.0  0.42792  0.64196  0.63091  1.0000
  H   H545      1.0  0.45011  0.88948  0.74290  1.0000
  H   H546      1.0  0.29360  0.82253  0.53865  1.0000
  H   H547      1.0  0.38761  0.80296  0.62759  1.0000
  H   H548      1.0  0.44950  0.66050  0.68493  1.0000
  C   C321      1.0  0.43890  0.69273  0.58674  1.0000
  C   C322      1.0  0.43654  0.65852  0.62654  1.0000
  H   H549      1.0  0.39127  0.70995  0.58097  1.0000
  H   H550      1.0  0.38873  0.78141  0.59168  1.0000
  H   H551      1.0  0.17928  0.89992  0.61269  1.0000
  C   C323      1.0  0.49117  0.71992  0.85002  1.0000
  C   C324      1.0  0.02323  0.74910  0.73663  1.0000
  H   H552      1.0  0.03796  0.52521  0.88567  1.0000
  S   S93       1.0  0.35139  0.65562  0.51240  1.0000
  C   C325      1.0  0.43775  0.67035  0.66608  1.0000
  H   H553      1.0  0.42105  0.71336  0.54238  1.0000
  H   H554      1.0  0.38683  0.68557  0.54987  1.0000
  C   C326      1.0  0.42697  0.73562  0.69828  1.0000
  H   H555      1.0  0.09606  0.77311  0.96021  1.0000
  H   H556      1.0  0.01813  0.57235  0.64514  1.0000
  S   S94       1.0  0.48355  0.62967  0.86529  1.0000
  H   H557      1.0  0.05199  0.54821  0.86345  1.0000
  H   H558      1.0  0.41452  0.79521  0.60590  1.0000
  H   H559      1.0  0.06087  0.84938  0.96638  1.0000
  C   C327      1.0  0.45392  0.90805  0.74334  1.0000
  H   H560      1.0  0.05562  0.89029  0.97384  1.0000
  C   C328      1.0  0.46922  0.80679  0.96430  1.0000
  C   C329      1.0  0.10683  0.84418  0.97222  1.0000
  S   S95       1.0  0.47220  0.68834  0.79823  1.0000
  H   H561      1.0  0.01001  0.53029  0.98092  1.0000
  H   H562      1.0  0.45169  0.63140  0.56530  1.0000
  N   N22       1.0  0.46029  0.91592  0.70370  1.0000
  C   C330      1.0  0.03544  0.52858  0.69789  1.0000
  H   H563      1.0  0.48984  0.87799  0.73339  1.0000
  H   H564      1.0  0.01566  0.73699  0.71558  1.0000
  H   H565      1.0  0.04095  0.55997  0.98709  1.0000
  H   H566      1.0  0.05355  0.52531  0.70546  1.0000
  H   H567      1.0  0.41525  0.78517  0.95605  1.0000
  H   H568      1.0  0.48319  0.94409  0.76062  1.0000
  H   H569      1.0  0.47213  0.94604  0.67414  1.0000
  C   C331      1.0  0.04345  0.54371  0.97155  1.0000
  C   C332      1.0  0.40313  0.91697  0.98714  1.0000
  H   H570      1.0  0.02511  0.51540  0.71259  1.0000
  C   C333      1.0  0.02066  0.53446  0.95558  1.0000
  N   N23       1.0  0.45221  0.78748  0.96223  1.0000
  H   H571      1.0  0.44462  0.53650  0.97935  1.0000
  H   H572      1.0  0.22025  0.75916  0.52372  1.0000
  H   H573      1.0  0.32643  0.91165  0.96730  1.0000
  H   H574      1.0  0.00186  0.61584  0.72136  1.0000
  C   C334      1.0  0.48661  0.94798  0.73015  1.0000
  C   C335      1.0  0.28765  0.70357  0.49654  1.0000
  H   H575      1.0  0.00152  0.81850  0.74567  1.0000
  C   C336      1.0  0.42621  0.88243  0.98397  1.0000
  N   N24       1.0  0.08854  0.82924  0.98938  1.0000
  Fe  Fe49      1.0  0.35589  0.81494  0.49850  1.0000
  H   H576      1.0  0.03281  0.52599  0.66671  1.0000
  C   C337      1.0  0.32577  0.92486  0.99014  1.0000
  H   H577      1.0  0.46520  0.73623  0.98875  1.0000
  C   C338      1.0  0.09657  0.80491  0.99262  1.0000
  H   H578      1.0  0.99593  0.52233  0.89301  1.0000
  H   H579      1.0  0.46633  0.81770  0.98981  1.0000
  H   H580      1.0  0.05071  0.53138  0.99236  1.0000
  H   H581      1.0  0.29135  0.93699  0.99304  1.0000
  H   H582      1.0  0.75299  0.34124  0.36475  1.0000
  S   S96       1.0  0.96127  0.39108  0.15623  1.0000
  Fe  Fe50      1.0  0.97906  0.32775  0.13805  1.0000
  S   S97       1.0  0.94259  0.33879  0.14497  1.0000
  H   H583      1.0  0.68111  0.10084  0.17535  1.0000
  Fe  Fe51      1.0  0.95058  0.36863  0.10691  1.0000
  S   S98       1.0  0.92441  0.38649  0.06806  1.0000
  Fe  Fe52      1.0  0.95565  0.36044  0.19386  1.0000
  S   S99       1.0  0.92994  0.35640  0.24265  1.0000
  S   S100      1.0  0.64175  0.10196  0.49119  1.0000
  C   C339      1.0  0.96146  0.26575  0.27650  1.0000
  Fe  Fe53      1.0  0.96511  0.15239  0.15935  1.0000
  S   S101      1.0  0.93494  0.13356  0.18360  1.0000
  C   C340      1.0  0.74971  0.33719  0.48708  1.0000
  H   H584      1.0  0.71308  0.34996  0.42563  1.0000
  S   S102      1.0  0.96578  0.08706  0.18635  1.0000
  Fe  Fe54      1.0  0.94383  0.10521  0.14247  1.0000
  S   S103      1.0  0.91382  0.08975  0.10907  1.0000
  Fe  Fe55      1.0  0.95934  0.11744  0.22478  1.0000
  S   S104      1.0  0.95764  0.11733  0.29015  1.0000
  C   C341      1.0  0.60792  0.06753  0.16372  1.0000
  C   C342      1.0  0.71150  0.32604  0.37884  1.0000
  Fe  Fe56      1.0  0.53754  0.32720  0.14436  1.0000
  S   S105      1.0  0.57302  0.33602  0.16403  1.0000
  S   S106      1.0  0.53680  0.29016  0.12143  1.0000
  Fe  Fe57      1.0  0.52173  0.37796  0.15543  1.0000
  S   S107      1.0  0.55692  0.38838  0.17647  1.0000
  Fe  Fe58      1.0  0.57018  0.36735  0.12707  1.0000
  S   S108      1.0  0.60016  0.37461  0.08644  1.0000
  Fe  Fe59      1.0  0.55646  0.35601  0.21103  1.0000
  S   S109      1.0  0.56384  0.34739  0.27382  1.0000
  S   S110      1.0  0.53544  0.35780  0.10494  1.0000
  S   S111      1.0  0.52056  0.34640  0.19281  1.0000
  Fe  Fe60      1.0  0.55095  0.12036  0.12727  1.0000
  S   S112      1.0  0.51349  0.12903  0.13040  1.0000
  S   S113      1.0  0.57042  0.11836  0.07053  1.0000
  Fe  Fe61      1.0  0.55613  0.11995  0.21543  1.0000
  S   S114      1.0  0.51882  0.12771  0.22438  1.0000
  S   S115      1.0  0.58525  0.11268  0.25805  1.0000
  Fe  Fe62      1.0  0.51138  0.10219  0.17680  1.0000
  Fe  Fe63      1.0  0.52366  0.15403  0.17717  1.0000
  S   S116      1.0  0.99315  0.29122  0.13240  1.0000
  S   S117      1.0  0.54868  0.09289  0.17109  1.0000
  S   S118      1.0  0.56112  0.14706  0.17073  1.0000
  S   S119      1.0  0.66384  0.32084  0.45404  1.0000
  Fe  Fe64      1.0  0.65101  0.35661  0.44881  1.0000
  S   S120      1.0  0.64571  0.37156  0.38915  1.0000
  C   C343      1.0  0.50514  0.23751  0.17789  1.0000
  H   H585      1.0  0.96985  0.40309  0.04438  1.0000
  S   S121      1.0  0.59255  0.13716  0.43684  1.0000
  Fe  Fe65      1.0  0.86598  0.12395  0.45898  1.0000
  S   S122      1.0  0.86896  0.11407  0.39583  1.0000
  H   H586      1.0  0.50792  0.29349  0.27616  1.0000
  S   S123      1.0  0.86230  0.33981  0.43861  1.0000
  Fe  Fe66      1.0  0.89505  0.35442  0.46168  1.0000
  S   S124      1.0  0.92479  0.36599  0.42450  1.0000
  H   H587      1.0  0.55677  0.24569  0.11077  1.0000
  H   H588      1.0  0.58530  0.29045  0.02386  1.0000
  H   H589      1.0  0.92204  0.43433  0.33403  1.0000
  H   H590      1.0  0.55927  0.10714  0.49037  1.0000
  H   H591      1.0  0.66964  0.12874  0.18595  1.0000
  H   H592      1.0  0.64577  0.08516  0.06141  1.0000
  S   S125      1.0  0.50970  0.19069  0.18425  1.0000
  H   H593      1.0  0.91190  0.18323  0.45142  1.0000
  H   H594      1.0  0.78838  0.12575  0.46625  1.0000
  C   C344      1.0  0.98174  0.26310  0.13730  1.0000
  C   C345      1.0  0.56020  0.34281  0.01396  1.0000
  C   C346      1.0  0.51097  0.25964  0.16519  1.0000
  H   H595      1.0  0.67553  0.10911  0.22366  1.0000
  C   C347      1.0  0.77110  0.32730  0.48006  1.0000
  C   C348      1.0  0.57810  0.09486  0.04087  1.0000
  C   C349      1.0  0.91475  0.41418  0.00680  1.0000
  H   H596      1.0  0.92816  0.29451  0.18853  1.0000
  H   H597      1.0  0.67063  0.20181  0.43367  1.0000
  H   H598      1.0  0.92756  0.20888  0.43823  1.0000
  C   C350      1.0  0.93850  0.17348  0.04574  1.0000
  C   C351      1.0  0.58707  0.12014  0.30756  1.0000
  C   C352      1.0  0.60730  0.11526  0.32802  1.0000
  C   C353      1.0  0.60946  0.12066  0.36735  1.0000
  C   C354      1.0  0.59132  0.13097  0.38682  1.0000
  C   C355      1.0  0.57107  0.13577  0.36640  1.0000
  C   C356      1.0  0.56896  0.13049  0.32704  1.0000
  H   H599      1.0  0.62142  0.10722  0.31336  1.0000
  H   H600      1.0  0.62510  0.11674  0.38261  1.0000
  H   H601      1.0  0.55688  0.14366  0.38113  1.0000
  H   H602      1.0  0.55328  0.13433  0.31182  1.0000
  C   C357      1.0  0.58690  0.35453  0.30507  1.0000
  C   C358      1.0  0.60561  0.36753  0.29329  1.0000
  C   C359      1.0  0.62348  0.37256  0.31934  1.0000
  C   C360      1.0  0.62299  0.36447  0.35723  1.0000
  C   C361      1.0  0.60440  0.35129  0.36884  1.0000
  C   C362      1.0  0.58641  0.34653  0.34300  1.0000
  H   H603      1.0  0.60620  0.37387  0.26428  1.0000
  H   H604      1.0  0.63771  0.38288  0.31009  1.0000
  H   H605      1.0  0.60370  0.34505  0.39791  1.0000
  H   H606      1.0  0.57195  0.33663  0.35255  1.0000
  C   C363      1.0  0.52974  0.26288  0.14107  1.0000
  H   H607      1.0  0.55146  0.06996  0.41780  1.0000
  C   C364      1.0  0.92147  0.13614  0.03493  1.0000
  C   C365      1.0  0.51799  0.21822  0.16699  1.0000
  H   H608      1.0  0.71223  0.32525  0.34718  1.0000
  H   H609      1.0  0.66198  0.10226  0.11765  1.0000
  C   C366      1.0  0.92581  0.39418  0.01900  1.0000
  H   H610      1.0  0.54147  0.21565  0.25674  1.0000
  H   H611      1.0  0.55099  0.04551  0.47935  1.0000
  H   H612      1.0  0.50306  0.08216  0.10014  1.0000
  H   H613      1.0  0.62746  0.10846  0.07336  1.0000
  H   H614      1.0  0.92828  0.20412  0.07972  1.0000
  C   C367      1.0  0.91256  0.07880  0.06147  1.0000
  H   H615      1.0  0.82182  0.43122  0.36494  1.0000
  H   H616      1.0  0.94836  0.08260  0.04950  1.0000
  H   H617      1.0  0.94208  0.18310  0.44848  1.0000
  C   C368      1.0  0.89390  0.11452  0.36708  1.0000
  C   C369      1.0  0.91569  0.11785  0.38283  1.0000
  C   C370      1.0  0.93500  0.11850  0.35884  1.0000
  C   C371      1.0  0.93274  0.11605  0.31889  1.0000
  C   C372      1.0  0.91097  0.11278  0.30313  1.0000
  C   C373      1.0  0.89168  0.11190  0.32716  1.0000
  H   H618      1.0  0.91765  0.11975  0.41350  1.0000
  H   H619      1.0  0.95177  0.12094  0.37135  1.0000
  H   H620      1.0  0.90897  0.11076  0.27247  1.0000
  H   H621      1.0  0.87490  0.10925  0.31472  1.0000
  C   C374      1.0  0.92925  0.35932  0.29323  1.0000
  C   C375      1.0  0.90995  0.35123  0.31280  1.0000
  C   C376      1.0  0.90861  0.35260  0.35299  1.0000
  C   C377      1.0  0.92650  0.36230  0.37412  1.0000
  C   C378      1.0  0.94586  0.37033  0.35460  1.0000
  C   C379      1.0  0.94731  0.36877  0.31435  1.0000
  H   H622      1.0  0.89596  0.34376  0.29671  1.0000
  H   H623      1.0  0.89367  0.34627  0.36758  1.0000
  H   H624      1.0  0.95976  0.37796  0.37071  1.0000
  H   H625      1.0  0.96228  0.37501  0.29970  1.0000
  S   S126      1.0  0.49892  0.40974  0.14596  1.0000
  H   H626      1.0  0.92756  0.20803  0.02855  1.0000
  H   H627      1.0  0.97556  0.06358  0.31629  1.0000
  H   H628      1.0  0.56011  0.09901  0.42911  1.0000
  C   C380      1.0  0.95012  0.23611  0.14107  1.0000
  C   C381      1.0  0.95823  0.25868  0.13746  1.0000
  H   H629      1.0  0.93191  0.23297  0.14067  1.0000
  H   H630      1.0  0.94631  0.27260  0.13409  1.0000
  S   S127      1.0  0.99225  0.34846  0.18816  1.0000
  H   H631      1.0  0.97239  0.26053  0.30115  1.0000
  C   C382      1.0  0.60116  0.39172  0.04429  1.0000
  C   C383      1.0  0.62096  0.39127  0.02148  1.0000
  H   H632      1.0  0.72633  0.31683  0.39137  1.0000
  C   C384      1.0  0.74787  0.36093  0.48944  1.0000
  H   H633      1.0  0.63532  0.38087  0.03019  1.0000
  H   H634      1.0  0.94350  0.26449  0.28677  1.0000
  C   C385      1.0  0.98880  0.22202  0.14508  1.0000
  H   H635      1.0  0.89820  0.45221  0.34417  1.0000
  C   C386      1.0  0.85907  0.39078  0.02109  1.0000
  H   H636      1.0  0.67388  0.20336  0.48420  1.0000
  C   C387      1.0  0.92995  0.06924  0.00030  1.0000
  N   N25       1.0  0.87525  0.41948  0.39186  1.0000
  C   C388      1.0  0.89563  0.41677  0.36577  1.0000
  C   C389      1.0  0.86529  0.39599  0.39706  1.0000
  C   C390      1.0  0.88404  0.42801  0.43002  1.0000
  C   C391      1.0  0.90916  0.43860  0.35623  1.0000
  C   C392      1.0  0.88762  0.14770  0.10084  1.0000
  H   H637      1.0  0.74836  0.19050  0.45626  1.0000
  H   H638      1.0  0.95428  0.45092  0.10945  1.0000
  H   H639      1.0  0.53358  0.04351  0.06847  1.0000
  H   H640      1.0  0.85227  0.39545  0.41983  1.0000
  C   C393      1.0  0.58640  0.31363  0.07073  1.0000
  H   H641      1.0  0.59891  0.08129  0.45125  1.0000
  H   H642      1.0  0.89382  0.44406  0.42671  1.0000
  H   H643      1.0  0.56873  0.06871  0.08070  1.0000
  H   H644      1.0  0.77359  0.20767  0.45577  1.0000
  H   H645      1.0  0.82872  0.45318  0.39826  1.0000
  C   C394      1.0  0.57590  0.30604  0.03221  1.0000
  H   H646      1.0  0.60882  0.03576  0.48420  1.0000
  H   H647      1.0  0.85603  0.44898  0.45305  1.0000
  C   C395      1.0  0.51388  0.07560  0.07687  1.0000
  H   H648      1.0  0.77267  0.30897  0.47823  1.0000
  N   N26       1.0  0.91651  0.16004  0.04858  1.0000
  S   S128      1.0  0.67945  0.37078  0.48579  1.0000
  C   C396      1.0  0.78863  0.36472  0.47628  1.0000
  C   C397      1.0  0.97897  0.44050  0.00329  1.0000
  H   H649      1.0  0.87363  0.38116  0.03372  1.0000
  C   C398      1.0  0.57520  0.07226  0.05242  1.0000
  H   H650      1.0  0.98711  0.46202  0.07457  1.0000
  C   C399      1.0  0.98200  0.05896  0.28745  1.0000
  H   H651      1.0  0.63512  0.32480  0.99503  1.0000
  H   H652      1.0  0.51332  0.26819  0.24937  1.0000
  H   H653      1.0  0.52880  0.08317  0.46479  1.0000
  H   H654      1.0  0.94622  0.17179  0.01690  1.0000
  H   H655      1.0  0.57853  0.03682  0.03658  1.0000
  H   H656      1.0  0.52925  0.08678  0.07846  1.0000
  H   H657      1.0  0.87620  0.07297  0.06390  1.0000
  H   H658      1.0  0.53043  0.23807  0.28574  1.0000
  H   H659      1.0  0.90669  0.12467  0.03883  1.0000
  H   H660      1.0  0.71035  0.19429  0.45088  1.0000
  H   H661      1.0  0.67067  0.22906  0.45624  1.0000
  H   H662      1.0  0.75280  0.10651  0.44402  1.0000
  C   C400      1.0  0.91038  0.15921  0.09050  1.0000
  H   H663      1.0  0.97281  0.23214  0.25704  1.0000
  H   H664      1.0  0.87499  0.43763  0.48806  1.0000
  H   H665      1.0  0.90939  0.17651  0.10323  1.0000
  H   H666      1.0  0.87279  0.15777  0.09057  1.0000
  C   C401      1.0  0.85872  0.43611  0.37403  1.0000
  N   N27       1.0  0.56279  0.27155  0.25803  1.0000
  C   C402      1.0  0.54347  0.28294  0.27922  1.0000
  C   C403      1.0  0.58244  0.26832  0.28566  1.0000
  C   C404      1.0  0.55581  0.24862  0.24247  1.0000
  C   C405      1.0  0.56942  0.28642  0.22485  1.0000
  H   H667      1.0  0.82007  0.40838  0.00249  1.0000
  C   C406      1.0  0.59534  0.29016  0.29746  1.0000
  C   C407      1.0  0.54620  0.23169  0.27192  1.0000
  C   C408      1.0  0.58943  0.27775  0.20001  1.0000
  H   H668      1.0  0.53989  0.27412  0.30668  1.0000
  H   H669      1.0  0.54827  0.30061  0.28765  1.0000
  H   H670      1.0  0.59523  0.25602  0.27443  1.0000
  H   H671      1.0  0.57636  0.26045  0.31272  1.0000
  H   H672      1.0  0.54299  0.25050  0.21931  1.0000
  H   H673      1.0  0.57050  0.23996  0.22846  1.0000
  H   H674      1.0  0.55482  0.28843  0.20463  1.0000
  H   H675      1.0  0.57299  0.30423  0.23417  1.0000
  C   C409      1.0  0.87748  0.15707  0.01223  1.0000
  H   H676      1.0  0.50691  0.11429  0.04053  1.0000
  H   H677      1.0  0.90815  0.40460  0.37825  1.0000
  H   H678      1.0  0.58374  0.30288  0.31041  1.0000
  H   H679      1.0  0.60842  0.28592  0.31947  1.0000
  H   H680      1.0  0.60447  0.29794  0.27303  1.0000
  H   H681      1.0  0.52205  0.29581  0.23148  1.0000
  H   H682      1.0  0.55906  0.22719  0.29405  1.0000
  C   C410      1.0  0.73065  0.12615  0.48061  1.0000
  H   H683      1.0  0.58284  0.26776  0.17518  1.0000
  H   H684      1.0  0.60184  0.26714  0.21583  1.0000
  H   H685      1.0  0.59927  0.29252  0.18915  1.0000
  N   N28       1.0  0.72723  0.36706  0.37637  1.0000
  C   C411      1.0  0.72643  0.38944  0.39776  1.0000
  C   C412      1.0  0.72322  0.37049  0.33399  1.0000
  C   C413      1.0  0.77120  0.37254  0.37199  1.0000
  C   C414      1.0  0.70357  0.40238  0.39745  1.0000
  C   C415      1.0  0.69806  0.37106  0.31999  1.0000
  H   H686      1.0  0.73126  0.38687  0.42832  1.0000
  H   H687      1.0  0.73903  0.40170  0.38605  1.0000
  H   H688      1.0  0.73161  0.38645  0.32424  1.0000
  H   H689      1.0  0.78711  0.36217  0.37198  1.0000
  H   H690      1.0  0.76933  0.38030  0.34328  1.0000
  H   H691      1.0  0.77381  0.38596  0.39409  1.0000
  H   H692      1.0  0.69942  0.40902  0.36857  1.0000
  H   H693      1.0  0.70507  0.41746  0.41663  1.0000
  H   H694      1.0  0.68926  0.39215  0.40868  1.0000
  H   H695      1.0  0.69676  0.38247  0.29478  1.0000
  H   H696      1.0  0.68556  0.37747  0.34095  1.0000
  H   H697      1.0  0.69257  0.35403  0.30948  1.0000
  C   C416      1.0  0.89130  0.07193  0.04622  1.0000
  C   C417      1.0  0.95517  0.30596  0.29352  1.0000
  C   C418      1.0  0.77204  0.13059  0.47819  1.0000
  C   C419      1.0  0.79049  0.34099  0.47481  1.0000
  H   H698      1.0  0.60452  0.31888  0.06803  1.0000
  S   S129      1.0  0.65483  0.15559  0.47564  1.0000
  H   H699      1.0  0.86164  0.16741  0.01459  1.0000
  H   H700      1.0  0.54376  0.37452  0.99770  1.0000
  S   S130      1.0  0.98616  0.35587  0.09571  1.0000
  S   S131      1.0  0.95380  0.18941  0.14777  1.0000
  S   S132      1.0  0.81279  0.38192  0.46788  1.0000
  H   H701      1.0  0.69649  0.25586  0.42631  1.0000
  N   N29       1.0  0.96667  0.29002  0.26551  1.0000
  C   C420      1.0  0.58281  0.40538  0.03267  1.0000
  H   H702      1.0  0.87290  0.05851  0.99698  1.0000
  H   H703      1.0  0.50059  0.27410  0.17336  1.0000
  C   C421      1.0  0.85440  0.38503  0.36106  1.0000
  H   H704      1.0  0.92596  0.27561  0.22822  1.0000
  H   H705      1.0  0.84550  0.36914  0.36959  1.0000
  H   H706      1.0  0.93826  0.00787  0.02997  1.0000
  H   H707      1.0  0.84147  0.39610  0.34733  1.0000
  C   C422      1.0  0.93191  0.07736  0.03827  1.0000
  Fe  Fe67      1.0  0.86520  0.31512  0.48728  1.0000
  Fe  Fe68      1.0  0.62290  0.13434  0.47833  1.0000
  C   C423      1.0  0.95780  0.29618  0.22625  1.0000
  H   H708      1.0  0.84339  0.38431  0.03508  1.0000
  S   S133      1.0  0.85260  0.27930  0.47714  1.0000
  H   H709      1.0  0.85435  0.41929  0.46693  1.0000
  H   H710      1.0  0.92408  0.15033  0.10691  1.0000
  H   H711      1.0  0.96981  0.47537  0.02178  1.0000
  N   N30       1.0  0.90416  0.18832  0.37049  1.0000
  C   C424      1.0  0.90632  0.17731  0.33146  1.0000
  C   C425      1.0  0.88410  0.17749  0.39028  1.0000
  C   C426      1.0  0.92571  0.18289  0.39262  1.0000
  C   C427      1.0  0.90133  0.21376  0.36554  1.0000
  C   C428      1.0  0.92794  0.18340  0.30856  1.0000
  C   C429      1.0  0.86157  0.17695  0.36712  1.0000
  C   C430      1.0  0.92639  0.19015  0.43496  1.0000
  C   C431      1.0  0.88785  0.22674  0.39679  1.0000
  H   H712      1.0  0.90590  0.15844  0.33395  1.0000
  H   H713      1.0  0.89154  0.18180  0.31275  1.0000
  H   H714      1.0  0.88035  0.18600  0.41791  1.0000
  H   H715      1.0  0.88816  0.15959  0.39818  1.0000
  H   H716      1.0  0.92902  0.16420  0.39191  1.0000
  H   H717      1.0  0.94088  0.19099  0.37933  1.0000
  H   H718      1.0  0.91831  0.22217  0.36317  1.0000
  H   H719      1.0  0.89239  0.21773  0.33812  1.0000
  H   H720      1.0  0.93092  0.20202  0.30748  1.0000
  H   H721      1.0  0.94325  0.17459  0.32027  1.0000
  H   H722      1.0  0.92589  0.17715  0.27863  1.0000
  H   H723      1.0  0.85793  0.19343  0.35298  1.0000
  H   H724      1.0  0.86192  0.16309  0.34535  1.0000
  H   H725      1.0  0.84716  0.17305  0.38662  1.0000
  H   H726      1.0  0.90572  0.17866  0.99857  1.0000
  H   H727      1.0  0.83026  0.42423  0.41274  1.0000
  H   H728      1.0  0.58574  0.05428  0.44471  1.0000
  H   H729      1.0  0.86933  0.22271  0.39561  1.0000
  H   H730      1.0  0.88938  0.24536  0.39188  1.0000
  H   H731      1.0  0.89413  0.22352  0.42615  1.0000
  H   H732      1.0  0.86516  0.45383  0.37776  1.0000
  C   C432      1.0  0.75082  0.35704  0.38207  1.0000
  H   H733      1.0  0.69255  0.35645  0.39071  1.0000
  H   H734      1.0  0.73137  0.35642  0.31748  1.0000
  N   N31       1.0  0.99215  0.43238  0.03787  1.0000
  H   H735      1.0  0.58977  0.11649  0.99525  1.0000
  C   C433      1.0  0.58093  0.05421  0.02741  1.0000
  N   N32       1.0  0.63225  0.10388  0.15429  1.0000
  H   H736      1.0  0.61677  0.16115  0.16806  1.0000
  C   C434      1.0  0.71044  0.35073  0.39405  1.0000
  H   H737      1.0  0.75334  0.35164  0.41223  1.0000
  H   H738      1.0  0.96149  0.31438  0.22000  1.0000
  C   C435      1.0  0.75192  0.11980  0.46553  1.0000
  H   H739      1.0  0.95160  0.16671  0.06609  1.0000
  H   H740      1.0  0.53411  0.08842  0.01196  1.0000
  H   H741      1.0  0.85785  0.43335  0.34244  1.0000
  C   C436      1.0  0.58731  0.09909  0.00445  1.0000
  H   H742      1.0  0.94706  0.24113  0.23498  1.0000
  H   H743      1.0  0.60471  0.34463  0.01889  1.0000
  H   H744      1.0  0.95049  0.31445  0.35356  1.0000
  C   C437      1.0  0.70470  0.21241  0.45137  1.0000
  H   H745      1.0  0.64563  0.13631  0.13427  1.0000
  C   C438      1.0  0.62183  0.14418  0.17919  1.0000
  C   C439      1.0  0.58231  0.07208  0.45385  1.0000
  C   C440      1.0  0.52093  0.07483  0.00865  1.0000
  C   C441      1.0  0.96531  0.21758  0.14477  1.0000
  C   C442      1.0  0.66908  0.11050  0.19376  1.0000
  H   H746      1.0  0.53019  0.05246  0.11688  1.0000
  N   N33       1.0  0.57577  0.32376  0.00100  1.0000
  H   H747      1.0  0.93517  0.12830  0.05286  1.0000
  S   S134      1.0  0.72557  0.31935  0.49003  1.0000
  H   H748      1.0  0.65111  0.07532  0.13035  1.0000
  H   H749      1.0  0.61406  0.06293  0.19278  1.0000
  Fe  Fe69      1.0  0.84516  0.36259  0.48138  1.0000
  C   C443      1.0  0.83371  0.43581  0.38865  1.0000
  H   H750      1.0  0.59923  0.10128  0.18149  1.0000
  H   H751      1.0  0.89048  0.40940  0.33765  1.0000
  C   C444      1.0  0.54248  0.24358  0.12993  1.0000
  H   H752      1.0  0.54684  0.20694  0.13410  1.0000
  C   C445      1.0  0.64478  0.10033  0.19162  1.0000
  C   C446      1.0  0.52058  0.28500  0.25728  1.0000
  H   H753      1.0  0.96667  0.28682  0.20331  1.0000
  C   C447      1.0  0.95842  0.44046  0.08382  1.0000
  H   H754      1.0  0.61669  0.13143  0.12215  1.0000
  H   H755      1.0  0.88647  0.12988  0.09056  1.0000
  S   S135      1.0  0.85503  0.15978  0.47166  1.0000
  C   C448      1.0  0.64572  0.09288  0.12250  1.0000
  H   H756      1.0  0.69593  0.31675  0.38787  1.0000
  C   C449      1.0  0.70751  0.26386  0.44846  1.0000
  C   C450      1.0  0.86602  0.43361  0.46072  1.0000
  H   H757      1.0  0.93629  0.30383  0.29279  1.0000
  H   H758      1.0  0.64689  0.08187  0.19761  1.0000
  C   C451      1.0  0.56615  0.08154  0.42285  1.0000
  H   H759      1.0  0.63578  0.14701  0.20027  1.0000
  H   H760      1.0  0.60696  0.13714  0.19447  1.0000
  H   H761      1.0  0.97960  0.31026  0.34158  1.0000
  C   C452      1.0  0.60876  0.09352  0.15734  1.0000
  S   S136      1.0  0.97271  0.12463  0.11592  1.0000
  C   C453      1.0  0.53683  0.22150  0.14304  1.0000
  N   N34       1.0  0.71831  0.22584  0.48055  1.0000
  C   C454      1.0  0.74269  0.22734  0.46684  1.0000
  H   H762      1.0  0.95414  0.20682  0.05379  1.0000
  C   C455      1.0  0.62950  0.12890  0.14550  1.0000
  H   H763      1.0  0.59824  0.09737  0.13153  1.0000
  H   H764      1.0  0.89144  0.18675  0.04134  1.0000
  H   H765      1.0  0.56749  0.40599  0.04986  1.0000
  H   H766      1.0  0.61911  0.07944  0.08358  1.0000
  H   H767      1.0  0.63467  0.10703  0.21621  1.0000
  H   H768      1.0  0.80682  0.33311  0.46892  1.0000
  C   C456      1.0  0.63358  0.09159  0.08322  1.0000
  H   H769      1.0  0.58590  0.29914  0.09107  1.0000
  H   H770      1.0  0.70782  0.21871  0.42185  1.0000
  H   H771      1.0  0.61743  0.05781  0.14175  1.0000
  H   H772      1.0  0.58985  0.06182  0.16189  1.0000
  H   H773      1.0  0.90688  0.42524  0.02780  1.0000
  H   H774      1.0  0.69968  0.28058  0.45549  1.0000
  H   H775      1.0  0.87874  0.38408  0.40750  1.0000
  C   C457      1.0  0.89816  0.17173  0.02533  1.0000
  C   C458      1.0  0.76727  0.37468  0.48362  1.0000
  H   H776      1.0  0.92170  0.30598  0.23430  1.0000
  S   S137      1.0  0.70575  0.11205  0.46512  1.0000
  H   H777      1.0  0.91900  0.44508  0.38121  1.0000
  C   C459      1.0  0.93192  0.29269  0.21958  1.0000
  H   H778      1.0  0.95851  0.32395  0.28540  1.0000
  H   H779      1.0  0.87447  0.14139  0.02875  1.0000
  C   C460      1.0  0.88935  0.06375  0.00824  1.0000
  C   C461      1.0  0.58439  0.41854  0.99899  1.0000
  H   H780      1.0  0.72470  0.26740  0.43664  1.0000
  C   C462      1.0  0.67857  0.21192  0.45720  1.0000
  H   H781      1.0  0.55814  0.30010  0.03801  1.0000
  H   H782      1.0  0.56761  0.35199  0.03894  1.0000
  H   H783      1.0  0.95434  0.42268  0.09147  1.0000
  H   H784      1.0  0.97405  0.25235  0.21964  1.0000
  H   H785      1.0  0.86744  0.37997  0.33974  1.0000
  C   C463      1.0  0.93663  0.19948  0.05247  1.0000
  C   C464      1.0  0.96212  0.30367  0.33606  1.0000
  C   C465      1.0  0.98825  0.40708  0.04139  1.0000
  H   H786      1.0  0.50663  0.03985  0.09271  1.0000
  H   H787      1.0  0.57642  0.32754  0.08389  1.0000
  H   H788      1.0  0.94703  0.44619  0.06033  1.0000
  H   H789      1.0  0.57556  0.08246  0.39533  1.0000
  H   H790      1.0  0.54350  0.33590  0.02391  1.0000
  C   C466      1.0  0.97783  0.46640  0.99731  1.0000
  C   C467      1.0  0.96405  0.24729  0.24488  1.0000
  H   H791      1.0  0.74321  0.23246  0.43619  1.0000
  H   H792      1.0  0.89627  0.41546  0.44259  1.0000
  C   C468      1.0  0.99199  0.29485  0.26754  1.0000
  H   H793      1.0  0.56523  0.99282  0.02580  1.0000
  C   C469      1.0  0.75687  0.20527  0.47014  1.0000
  H   H794      1.0  0.83897  0.43924  0.00036  1.0000
  C   C470      1.0  0.98398  0.44339  0.07448  1.0000
  H   H795      1.0  0.97660  0.07208  0.26664  1.0000
  N   N35       1.0  0.50237  0.07773  0.03829  1.0000
  H   H796      1.0  0.94461  0.36466  0.00056  1.0000
  H   H797      1.0  0.96106  0.43410  0.00406  1.0000
  H   H798      1.0  0.88630  0.14694  0.13255  1.0000
  H   H799      1.0  0.97340  0.04283  0.27894  1.0000
  H   H800      1.0  0.96048  0.28601  0.34670  1.0000
  C   C471      1.0  0.70900  0.24961  0.48537  1.0000
  S   S138      1.0  0.98932  0.13748  0.20286  1.0000
  C   C472      1.0  0.52137  0.05137  0.08866  1.0000
  H   H801      1.0  0.53017  0.05849  0.01253  1.0000
  H   H802      1.0  0.76577  0.39302  0.48512  1.0000
  H   H803      1.0  0.86179  0.40882  0.02871  1.0000
  C   C473      1.0  0.86721  0.25481  0.49264  1.0000
  C   C474      1.0  0.93755  0.00820  0.99818  1.0000
  C   C475      1.0  0.59913  0.33381  0.99433  1.0000
  H   H804      1.0  0.61761  0.30081  0.00047  1.0000
  H   H805      1.0  0.75230  0.24106  0.48203  1.0000
  H   H806      1.0  0.99390  0.43664  0.09939  1.0000
  C   C476      1.0  0.52935  0.07421  0.49253  1.0000
  H   H807      1.0  0.86948  0.44051  0.99364  1.0000
  H   H808      1.0  0.51459  0.06233  0.49287  1.0000
  Fe  Fe70      1.0  0.84893  0.45602  0.84537  1.0000
  S   S139      1.0  0.86800  0.42590  0.82119  1.0000
  S   S140      1.0  0.81236  0.44470  0.86203  1.0000
  H   H809      1.0  0.62378  0.48964  0.72315  1.0000
  S   S141      1.0  0.91333  0.45824  0.81231  1.0000
  Fe  Fe71      1.0  0.88168  0.44995  0.77749  1.0000
  S   S142      1.0  0.87795  0.44430  0.71285  1.0000
  Fe  Fe72      1.0  0.89769  0.43657  0.85864  1.0000
  S   S143      1.0  0.91934  0.40997  0.89018  1.0000
  S   S144      1.0  0.86180  0.48007  0.80021  1.0000
  S   S145      1.0  0.87806  0.46507  0.88598  1.0000
  Fe  Fe73      1.0  0.62143  0.47740  0.81725  1.0000
  S   S146      1.0  0.60764  0.44250  0.82918  1.0000
  Fe  Fe74      1.0  0.67067  0.46106  0.83853  1.0000
  S   S147      1.0  0.65878  0.42545  0.85344  1.0000
  S   S148      1.0  0.70754  0.47534  0.83570  1.0000
  Fe  Fe75      1.0  0.63812  0.42817  0.79875  1.0000
  S   S149      1.0  0.63181  0.39822  0.75787  1.0000
  Fe  Fe76      1.0  0.62884  0.44262  0.88305  1.0000
  S   S150      1.0  0.60514  0.43554  0.93441  1.0000
  S   S151      1.0  0.65073  0.46287  0.78276  1.0000
  S   S152      1.0  0.64203  0.47829  0.87191  1.0000
  H   H810      1.0  0.57635  0.43401  0.75995  1.0000
  S   S153      1.0  0.90108  0.03752  0.83708  1.0000
  Fe  Fe77      1.0  0.84015  0.01595  0.85268  1.0000
  S   S154      1.0  0.85018  0.05272  0.86291  1.0000
  H   H811      1.0  0.58646  0.06178  0.55019  1.0000
  Fe  Fe78      1.0  0.86919  0.04882  0.80717  1.0000
  S   S155      1.0  0.87205  0.07855  0.76540  1.0000
  Fe  Fe79      1.0  0.88176  0.03859  0.89242  1.0000
  S   S156      1.0  0.90765  0.05212  0.93696  1.0000
  H   H812      1.0  0.71979  0.23693  0.56797  1.0000
  H   H813      1.0  0.82207  0.40630  0.80161  1.0000
  Fe  Fe80      1.0  0.61459  0.03231  0.90212  1.0000
  C   C477      1.0  0.81898  0.40135  0.97307  1.0000
  S   S157      1.0  0.59598  0.03494  0.96005  1.0000
  Fe  Fe81      1.0  0.62156  0.04371  0.81600  1.0000
  S   S158      1.0  0.64418  0.01334  0.80607  1.0000
  S   S159      1.0  0.61691  0.07327  0.77395  1.0000
  H   H814      1.0  0.94182  0.37418  0.93137  1.0000
  Fe  Fe82      1.0  0.66174  0.02366  0.86125  1.0000
  H   H815      1.0  0.91293  0.26174  0.58185  1.0000
  S   S160      1.0  0.59461  0.02392  0.84838  1.0000
  S   S161      1.0  0.63933  0.05449  0.87057  1.0000
  H   H816      1.0  0.59868  0.34602  0.97009  1.0000
  S   S162      1.0  0.89266  0.12293  0.50561  1.0000
  Fe  Fe83      1.0  0.65602  0.36526  0.53616  1.0000
  S   S163      1.0  0.89927  0.32790  0.50781  1.0000
  S   S164      1.0  0.65553  0.39446  0.57995  1.0000
  H   H817      1.0  0.56215  0.43939  0.71519  1.0000
  H   H818      1.0  0.55718  0.99767  0.88604  1.0000
  H   H819      1.0  0.66076  0.27671  0.55080  1.0000
  S   S165      1.0  0.66884  0.32970  0.54731  1.0000
  Fe  Fe84      1.0  0.63783  0.11080  0.55388  1.0000
  S   S166      1.0  0.85826  0.01281  0.79561  1.0000
  S   S167      1.0  0.62963  0.08034  0.59238  1.0000
  H   H820      1.0  0.66391  0.08295  0.81715  1.0000
  H   H821      1.0  0.78533  0.45999  0.71245  1.0000
  H   H822      1.0  0.64857  0.27305  0.63194  1.0000
  C   C478      1.0  0.81393  0.43255  0.67860  1.0000
  C   C479      1.0  0.90869  0.06239  0.98500  1.0000
  S   S168      1.0  0.67089  0.13014  0.55637  1.0000
  H   H823      1.0  0.94255  0.06762  0.73604  1.0000
  C   C480      1.0  0.77776  0.47457  0.83733  1.0000
  S   S169      1.0  0.85404  0.14587  0.56307  1.0000
  H   H824      1.0  0.80398  0.44494  0.66117  1.0000
  S   S170      1.0  0.83835  0.10913  0.49628  1.0000
  H   H825      1.0  0.67891  0.05091  0.79609  1.0000
  Fe  Fe85      1.0  0.86426  0.11072  0.54434  1.0000
  S   S171      1.0  0.86422  0.07944  0.58311  1.0000
  H   H826      1.0  0.60482  0.24133  0.49706  1.0000
  Fe  Fe86      1.0  0.87908  0.35189  0.54560  1.0000
  H   H827      1.0  0.62214  0.44154  0.60402  1.0000
  S   S172      1.0  0.88646  0.35434  0.60982  1.0000
  H   H828      1.0  0.82865  0.41889  0.62634  1.0000
  H   H829      1.0  0.91311  0.06203  0.69335  1.0000
  H   H830      1.0  0.58871  0.10664  0.50030  1.0000
  H   H831      1.0  0.84233  0.43198  0.92164  1.0000
  H   H832      1.0  0.71158  0.07085  0.81353  1.0000
  S   S173      1.0  0.84528  0.33686  0.52822  1.0000
  H   H833      1.0  0.81724  0.10890  0.57870  1.0000
  H   H834      1.0  0.85592  0.37445  0.86584  1.0000
  C   C481      1.0  0.62637  0.49128  0.69193  1.0000
  H   H835      1.0  0.60929  0.32257  0.67204  1.0000
  H   H836      1.0  0.56749  0.47315  0.84258  1.0000
  C   C482      1.0  0.96668  0.99350  0.70720  1.0000
  H   H837      1.0  0.85513  0.19991  0.51592  1.0000
  C   C483      1.0  0.95062  0.01113  0.90248  1.0000
  H   H838      1.0  0.71675  0.06114  0.70871  1.0000
  H   H839      1.0  0.80574  0.12607  0.63904  1.0000
  H   H840      1.0  0.74282  0.05766  0.87449  1.0000
  Fe  Fe87      1.0  0.61857  0.99418  0.84256  1.0000
  S   S174      1.0  0.66003  0.19402  0.56751  1.0000
  H   H841      1.0  0.59319  0.28019  0.70950  1.0000
  H   H842      1.0  0.50683  0.09173  0.95687  1.0000
  C   C484      1.0  0.70409  0.07447  0.71580  1.0000
  H   H843      1.0  0.97485  0.99597  0.73570  1.0000
  H   H844      1.0  0.70674  0.02949  0.73171  1.0000
  H   H845      1.0  0.56469  0.46173  0.65491  1.0000
  H   H846      1.0  0.68912  0.10948  0.75381  1.0000
  C   C485      1.0  0.73052  0.22459  0.55188  1.0000
  H   H847      1.0  0.83037  0.44134  0.68499  1.0000
  Fe  Fe88      1.0  0.87985  0.15815  0.52054  1.0000
  H   H848      1.0  0.81967  0.45483  0.77855  1.0000
  C   C486      1.0  0.57245  0.09770  0.50687  1.0000
  H   H849      1.0  0.79547  0.09015  0.65491  1.0000
  C   C487      1.0  0.62109  0.07473  0.72353  1.0000
  C   C488      1.0  0.62149  0.09623  0.70585  1.0000
  C   C489      1.0  0.62460  0.09833  0.66595  1.0000
  C   C490      1.0  0.62696  0.07886  0.64309  1.0000
  C   C491      1.0  0.62658  0.05735  0.66077  1.0000
  C   C492      1.0  0.62390  0.05527  0.70077  1.0000
  H   H850      1.0  0.61929  0.11140  0.72314  1.0000
  H   H851      1.0  0.62474  0.11498  0.65283  1.0000
  H   H852      1.0  0.62833  0.04216  0.64339  1.0000
  H   H853      1.0  0.62357  0.03862  0.71387  1.0000
  C   C493      1.0  0.86863  0.07869  0.71488  1.0000
  C   C494      1.0  0.87375  0.09868  0.69462  1.0000
  C   C495      1.0  0.87225  0.09930  0.65433  1.0000
  C   C496      1.0  0.86594  0.07977  0.63385  1.0000
  C   C497      1.0  0.86054  0.05983  0.65412  1.0000
  C   C498      1.0  0.86152  0.05940  0.69446  1.0000
  H   H854      1.0  0.87911  0.11375  0.71019  1.0000
  H   H855      1.0  0.87633  0.11478  0.63914  1.0000
  H   H856      1.0  0.85541  0.04470  0.63854  1.0000
  H   H857      1.0  0.85690  0.04416  0.70982  1.0000
  S   S175      1.0  0.90243  0.18894  0.53044  1.0000
  H   H858      1.0  0.98627  0.43331  0.97648  1.0000
  H   H859      1.0  0.72127  0.19549  0.51599  1.0000
  H   H860      1.0  0.80838  0.04240  0.62683  1.0000
  C   C499      1.0  0.74665  0.04005  0.86796  1.0000
  C   C500      1.0  0.76977  0.03309  0.86510  1.0000
  H   H861      1.0  0.52864  0.07142  0.94822  1.0000
  C   C501      1.0  0.79843  0.10931  0.58375  1.0000
  H   H862      1.0  0.63635  0.45731  0.67587  1.0000
  H   H863      1.0  0.78339  0.04528  0.86946  1.0000
  H   H864      1.0  0.60806  0.07164  0.51904  1.0000
  C   C502      1.0  0.60367  0.43868  0.60940  1.0000
  C   C503      1.0  0.71657  0.07538  0.78378  1.0000
  N   N36       1.0  0.60596  0.29856  0.62504  1.0000
  H   H865      1.0  0.90318  0.00909  0.74876  1.0000
  C   C504      1.0  0.75703  0.99472  0.85239  1.0000
  H   H866      1.0  0.79659  0.06057  0.50282  1.0000
  C   C505      1.0  0.93253  0.99431  0.91739  1.0000
  H   H867      1.0  0.82720  0.46671  0.73249  1.0000
  C   C506      1.0  0.72852  0.02449  0.86278  1.0000
  C   C507      1.0  0.85853  0.38643  0.97750  1.0000
  C   C508      1.0  0.64081  0.39633  0.70948  1.0000
  C   C509      1.0  0.63369  0.37762  0.68710  1.0000
  C   C510      1.0  0.63896  0.37631  0.64778  1.0000
  C   C511      1.0  0.65116  0.39383  0.63026  1.0000
  C   C512      1.0  0.65869  0.41231  0.65282  1.0000
  C   C513      1.0  0.65382  0.41342  0.69233  1.0000
  H   H868      1.0  0.62372  0.36427  0.70016  1.0000
  H   H869      1.0  0.63307  0.36215  0.63073  1.0000
  H   H870      1.0  0.66821  0.42593  0.63957  1.0000
  H   H871      1.0  0.65972  0.42773  0.70934  1.0000
  C   C514      1.0  0.92273  0.40515  0.94010  1.0000
  C   C515      1.0  0.64953  0.29179  0.63522  1.0000
  C   C516      1.0  0.90171  0.23435  0.51087  1.0000
  H   H872      1.0  0.71325  0.09082  0.71077  1.0000
  C   C517      1.0  0.88046  0.41895  0.68509  1.0000
  C   C518      1.0  0.87794  0.42034  0.64507  1.0000
  C   C519      1.0  0.87943  0.40073  0.62173  1.0000
  C   C520      1.0  0.88370  0.37946  0.63814  1.0000
  C   C521      1.0  0.88611  0.37803  0.67822  1.0000
  C   C522      1.0  0.88441  0.39763  0.70162  1.0000
  H   H873      1.0  0.87489  0.43673  0.63199  1.0000
  H   H874      1.0  0.87760  0.40213  0.59100  1.0000
  H   H875      1.0  0.88952  0.36169  0.69123  1.0000
  H   H876      1.0  0.88644  0.39631  0.73233  1.0000
  C   C523      1.0  0.78342  0.45324  0.85241  1.0000
  H   H877      1.0  0.59338  0.45258  0.59658  1.0000
  C   C524      1.0  0.56782  0.10187  0.54985  1.0000
  C   C525      1.0  0.73657  0.46588  0.84148  1.0000
  C   C526      1.0  0.74227  0.44434  0.85573  1.0000
  C   C527      1.0  0.76545  0.43815  0.86129  1.0000
  C   C528      1.0  0.62047  0.24105  0.51371  1.0000
  H   H878      1.0  0.60011  0.08462  0.95150  1.0000
  H   H879      1.0  0.72877  0.43260  0.86314  1.0000
  H   H880      1.0  0.76943  0.42157  0.87282  1.0000
  C   C529      1.0  0.54191  0.99436  0.90376  1.0000
  H   H881      1.0  0.57023  0.32493  0.93955  1.0000
  C   C530      1.0  0.86530  0.21487  0.51038  1.0000
  C   C531      1.0  0.71678  0.21385  0.51847  1.0000
  H   H882      1.0  0.93475  0.02167  0.65214  1.0000
  H   H883      1.0  0.73329  0.09008  0.56521  1.0000
  H   H884      1.0  0.96185  0.03140  0.74426  1.0000
  C   C532      1.0  0.55031  0.47242  0.85556  1.0000
  Fe  Fe89      1.0  0.89270  0.48667  0.83817  1.0000
  C   C533      1.0  0.59181  0.06185  0.51963  1.0000
  C   C534      1.0  0.63172  0.26154  0.52242  1.0000
  C   C535      1.0  0.78811  0.07281  0.52251  1.0000
  H   H885      1.0  0.74625  0.06643  0.74750  1.0000
  C   C536      1.0  0.63015  0.30437  0.61411  1.0000
  H   H886      1.0  0.57016  0.42918  0.99062  1.0000
  Fe  Fe90      1.0  0.65011  0.16073  0.53887  1.0000
  H   H887      1.0  0.72247  0.09342  0.78522  1.0000
  H   H888      1.0  0.75986  0.09070  0.62852  1.0000
  H   H889      1.0  0.93300  0.06790  0.65669  1.0000
  H   H890      1.0  0.57637  0.47748  0.97029  1.0000
  H   H891      1.0  0.75102  0.06437  0.79745  1.0000
  N   N37       1.0  0.87646  0.28290  0.62509  1.0000
  C   C537      1.0  0.86580  0.29876  0.65420  1.0000
  C   C538      1.0  0.86496  0.28763  0.58723  1.0000
  C   C539      1.0  0.90161  0.28856  0.62271  1.0000
  C   C540      1.0  0.87284  0.25879  0.63865  1.0000
  C   C541      1.0  0.87791  0.30027  0.69355  1.0000
  C   C542      1.0  0.83913  0.28247  0.58529  1.0000
  C   C543      1.0  0.91463  0.28020  0.58703  1.0000
  C   C544      1.0  0.87837  0.23923  0.61050  1.0000
  H   H892      1.0  0.86489  0.31647  0.64298  1.0000
  H   H893      1.0  0.84779  0.29388  0.66009  1.0000
  H   H894      1.0  0.87281  0.27810  0.56336  1.0000
  H   H895      1.0  0.86748  0.30580  0.57934  1.0000
  H   H896      1.0  0.91099  0.28184  0.64808  1.0000
  H   H897      1.0  0.88334  0.25544  0.66466  1.0000
  H   H898      1.0  0.85499  0.25615  0.64866  1.0000
  H   H899      1.0  0.89497  0.30843  0.69134  1.0000
  H   H900      1.0  0.86763  0.31131  0.71280  1.0000
  H   H901      1.0  0.87951  0.28344  0.70752  1.0000
  H   H902      1.0  0.83538  0.26442  0.59195  1.0000
  H   H903      1.0  0.82912  0.29397  0.60403  1.0000
  H   H904      1.0  0.83296  0.28547  0.55558  1.0000
  C   C545      1.0  0.81296  0.46318  0.75241  1.0000
  H   H905      1.0  0.93314  0.28373  0.59111  1.0000
  H   H906      1.0  0.89611  0.23293  0.61463  1.0000
  H   H907      1.0  0.87571  0.24354  0.58015  1.0000
  H   H908      1.0  0.86656  0.22475  0.61557  1.0000
  H   H909      1.0  0.66476  0.09185  0.74701  1.0000
  C   C546      1.0  0.59014  0.31153  0.59854  1.0000
  C   C547      1.0  0.64902  0.21974  0.54933  1.0000
  C   C548      1.0  0.60112  0.30580  0.66576  1.0000
  C   C549      1.0  0.59354  0.33758  0.59701  1.0000
  C   C550      1.0  0.57708  0.26530  0.62456  1.0000
  H   H910      1.0  0.59156  0.30509  0.56859  1.0000
  H   H911      1.0  0.57196  0.30889  0.60655  1.0000
  H   H912      1.0  0.58244  0.30864  0.66955  1.0000
  H   H913      1.0  0.60942  0.34211  0.58155  1.0000
  H   H914      1.0  0.59348  0.34554  0.62584  1.0000
  H   H915      1.0  0.80025  0.38940  0.77814  1.0000
  C   C551      1.0  0.73391  0.00176  0.85467  1.0000
  H   H916      1.0  0.62370  0.47383  0.63893  1.0000
  H   H917      1.0  0.60609  0.26907  0.58768  1.0000
  S   S176      1.0  0.62662  0.35397  0.49824  1.0000
  H   H918      1.0  0.79572  0.40769  0.92412  1.0000
  H   H919      1.0  0.95495  0.03857  0.67758  1.0000
  H   H920      1.0  0.54234  0.45640  0.84500  1.0000
  C   C552      1.0  0.57950  0.47220  0.66473  1.0000
  S   S177      1.0  0.79563  0.16152  0.52291  1.0000
  H   H921      1.0  0.96693  0.46986  0.97181  1.0000
  H   H922      1.0  0.79174  0.08997  0.51116  1.0000
  C   C553      1.0  0.69382  0.02882  0.75449  1.0000
  C   C554      1.0  0.94303  0.03083  0.74808  1.0000
  H   H923      1.0  0.61985  0.31401  0.95381  1.0000
  C   C555      1.0  0.75456  0.48083  0.83212  1.0000
  H   H924      1.0  0.58414  0.48272  0.63947  1.0000
  H   H925      1.0  0.94648  0.02409  0.98988  1.0000
  H   H926      1.0  0.85479  0.36790  0.97413  1.0000
  H   H927      1.0  0.58258  0.41633  0.71967  1.0000
  H   H928      1.0  0.85029  0.45847  0.96721  1.0000
  C   C556      1.0  0.85264  0.44105  0.97897  1.0000
  C   C557      1.0  0.59777  0.03689  0.50987  1.0000
  C   C558      1.0  0.59894  0.43579  0.65254  1.0000
  N   N38       1.0  0.80162  0.42681  0.71518  1.0000
  C   C559      1.0  0.79393  0.44878  0.73373  1.0000
  C   C560      1.0  0.78092  0.41219  0.70754  1.0000
  C   C561      1.0  0.81779  0.41383  0.74078  1.0000
  C   C562      1.0  0.81988  0.41226  0.65214  1.0000
  C   C563      1.0  0.76324  0.42219  0.67930  1.0000
  H   H929      1.0  0.70162  0.02084  0.78026  1.0000
  H   H930      1.0  0.87634  0.38871  0.96710  1.0000
  H   H931      1.0  0.78598  0.39500  0.69702  1.0000
  H   H932      1.0  0.77151  0.40893  0.73462  1.0000
  H   H933      1.0  0.82337  0.39777  0.72671  1.0000
  H   H934      1.0  0.83419  0.42314  0.74539  1.0000
  H   H935      1.0  0.83194  0.40019  0.66584  1.0000
  H   H936      1.0  0.80455  0.40302  0.64170  1.0000
  H   H937      1.0  0.56196  0.11970  0.55411  1.0000
  H   H938      1.0  0.94502  0.06836  0.98255  1.0000
  H   H939      1.0  0.82855  0.39897  0.89563  1.0000
  H   H940      1.0  0.53190  0.01042  0.90442  1.0000
  H   H941      1.0  0.80434  0.05285  0.67412  1.0000
  H   H942      1.0  0.55467  0.09030  0.56150  1.0000
  S   S178      1.0  0.80408  0.00003  0.85560  1.0000
  H   H943      1.0  0.75558  0.43816  0.69048  1.0000
  H   H944      1.0  0.80589  0.43332  0.94768  1.0000
  C   C564      1.0  0.66019  0.24025  0.55825  1.0000
  S   S179      1.0  0.87767  0.37949  0.50130  1.0000
  C   C565      1.0  0.62933  0.22014  0.52651  1.0000
  H   H945      1.0  0.82857  0.37233  0.91963  1.0000
  H   H946      1.0  0.89806  0.03502  0.72616  1.0000
  H   H947      1.0  0.74882  0.16706  0.54305  1.0000
  H   H948      1.0  0.60790  0.02963  0.53394  1.0000
  H   H949      1.0  0.90531  0.43542  0.95864  1.0000
  H   H950      1.0  0.59735  0.46507  0.73750  1.0000
  C   C566      1.0  0.60423  0.41816  0.97624  1.0000
  H   H951      1.0  0.68804  0.10183  0.82467  1.0000
  C   C567      1.0  0.68285  0.05193  0.76506  1.0000
  H   H952      1.0  0.74625  0.23338  0.54271  1.0000
  H   H953      1.0  0.57926  0.34524  0.58039  1.0000
  S   S180      1.0  0.87063  0.00187  0.88623  1.0000
  H   H954      1.0  0.67540  0.24002  0.57597  1.0000
  H   H955      1.0  0.57683  0.24637  0.62420  1.0000
  H   H956      1.0  0.58379  0.09991  0.56691  1.0000
  H   H957      1.0  0.90411  0.30741  0.62333  1.0000
  H   H958      1.0  0.58238  0.02612  0.50603  1.0000
  C   C568      1.0  0.56589  0.31394  0.96441  1.0000
  C   C569      1.0  0.85158  0.42367  0.94569  1.0000
  C   C570      1.0  0.94047  0.99612  0.70956  1.0000
  H   H959      1.0  0.76954  0.06911  0.52092  1.0000
  C   C571      1.0  0.77519  0.01026  0.85761  1.0000
  H   H960      1.0  0.91782  0.05774  0.76258  1.0000
  H   H961      1.0  0.66607  0.29696  0.62240  1.0000
  C   C572      1.0  0.74942  0.09935  0.57173  1.0000
  H   H962      1.0  0.75820  0.06690  0.59696  1.0000
  H   H963      1.0  0.52642  0.08681  0.51573  1.0000
  C   C573      1.0  0.62189  0.46907  0.66953  1.0000
  H   H964      1.0  0.54642  0.47617  0.96977  1.0000
  H   H965      1.0  0.91842  0.00464  0.92915  1.0000
  H   H966      1.0  0.53966  0.48663  0.84476  1.0000
  H   H967      1.0  0.61147  0.42318  0.66354  1.0000
  N   N39       1.0  0.59938  0.45728  0.67656  1.0000
  H   H968      1.0  0.79119  0.48654  0.83069  1.0000
  H   H969      1.0  0.77052  0.42522  0.65055  1.0000
  C   C574      1.0  0.68089  0.09345  0.76375  1.0000
  C   C575      1.0  0.55160  0.47169  0.89969  1.0000
  C   C576      1.0  0.93637  0.05552  0.75796  1.0000
  H   H970      1.0  0.61453  0.44147  0.72652  1.0000
  H   H971      1.0  0.53408  0.46770  0.90987  1.0000
  C   C577      1.0  0.60836  0.28917  0.69794  1.0000
  H   H972      1.0  0.62147  0.27649  0.69016  1.0000
  C   C578      1.0  0.67344  0.09761  0.80554  1.0000
  C   C579      1.0  0.89200  0.00589  0.69025  1.0000
  N   N40       1.0  0.84200  0.40037  0.95386  1.0000
  H   H973      1.0  0.63374  0.32273  0.61894  1.0000
  H   H974      1.0  0.78478  0.41587  0.96961  1.0000
  H   H975      1.0  0.94482  0.06043  0.78535  1.0000
  H   H976      1.0  0.61551  0.29915  0.72234  1.0000
  H   H977      1.0  0.58204  0.42718  0.65448  1.0000
  H   H978      1.0  0.69175  0.24932  0.49855  1.0000
  H   H979      1.0  0.56198  0.45641  0.90741  1.0000
  C   C580      1.0  0.83862  0.38828  0.91589  1.0000
  C   C581      1.0  0.92195  0.05433  0.66868  1.0000
  H   H980      1.0  0.63264  0.30138  0.58299  1.0000
  H   H981      1.0  0.90933  0.28967  0.56108  1.0000
  C   C582      1.0  0.60175  0.27353  0.61781  1.0000
  N   N41       1.0  0.93143  0.02015  0.71373  1.0000
  H   H982      1.0  0.66153  0.11234  0.80632  1.0000
  H   H983      1.0  0.56551  0.27092  0.60114  1.0000
  H   H984      1.0  0.89478  0.01311  0.66139  1.0000
  H   H985      1.0  0.73150  0.36868  0.49533  1.0000
  H   H986      1.0  0.75720  0.10321  0.54388  1.0000
  H   H987      1.0  0.61304  0.26247  0.63511  1.0000
  H   H988      1.0  0.74406  0.11549  0.58575  1.0000
  C   C583      1.0  0.57857  0.43411  0.72838  1.0000
  S   S181      1.0  0.61657  0.14195  0.54114  1.0000
  C   C584      1.0  0.76432  0.08483  0.59911  1.0000
  N   N42       1.0  0.78991  0.08582  0.59367  1.0000
  C   C585      1.0  0.80144  0.07922  0.63084  1.0000
  H   H989      1.0  0.69882  0.21340  0.52843  1.0000
  H   H990      1.0  0.67320  0.08714  0.68583  1.0000
  H   H991      1.0  0.93998  0.02033  0.77409  1.0000
  C   C586      1.0  0.79760  0.06922  0.56323  1.0000
  H   H992      1.0  0.81212  0.38382  0.97697  1.0000
  S   S182      1.0  0.63816  0.00204  0.89709  1.0000
  C   C587      1.0  0.59321  0.08104  0.97954  1.0000
  H   H993      1.0  0.94185  0.02536  0.88755  1.0000
  Fe  Fe91      1.0  0.82999  0.14507  0.51278  1.0000
  C   C588      1.0  0.51338  0.07494  0.96618  1.0000
  H   H994      1.0  0.79522  0.41856  0.79143  1.0000
  H   H995      1.0  0.79262  0.05152  0.57058  1.0000
  H   H996      1.0  0.79773  0.14487  0.60157  1.0000
  H   H997      1.0  0.82016  0.08217  0.62912  1.0000
  H   H998      1.0  0.77981  0.04926  0.64376  1.0000
  C   C589      1.0  0.58992  0.05846  0.99077  1.0000
  H   H999      1.0  0.73623  0.21092  0.57166  1.0000
  H   H1000     1.0  0.73484  0.04267  0.77484  1.0000
  H   H1001     1.0  0.56089  0.47926  0.71854  1.0000
  H   H1002     1.0  0.69284  0.07222  0.65632  1.0000
  H   H1003     1.0  0.86927  0.42225  0.93461  1.0000
  H   H1004     1.0  0.77607  0.12815  0.62391  1.0000
  C   C590      1.0  0.62247  0.40428  0.98761  1.0000
  H   H1005     1.0  0.59491  0.47930  0.90814  1.0000
  C   C591      1.0  0.68504  0.07241  0.68525  1.0000
  C   C592      1.0  0.93446  0.38557  0.95242  1.0000
  H   H1006     1.0  0.67526  0.05634  0.68805  1.0000
  H   H1007     1.0  0.68037  0.01712  0.74348  1.0000
  C   C593      1.0  0.79403  0.12794  0.61414  1.0000
  C   C594      1.0  0.91358  0.41986  0.96764  1.0000
  H   H1008     1.0  0.59922  0.42261  0.59416  1.0000
  H   H1009     1.0  0.74902  0.40982  0.67554  1.0000
  S   S183      1.0  0.69967  0.03460  0.86666  1.0000
  H   H1010     1.0  0.90924  0.05047  0.64582  1.0000
  C   C595      1.0  0.65188  0.26105  0.54411  1.0000
  H   H1011     1.0  0.79119  0.11555  0.55651  1.0000
  H   H1012     1.0  0.90073  0.26992  0.49468  1.0000
  C   C596      1.0  0.93673  0.03308  0.67754  1.0000
  N   N43       1.0  0.69635  0.07321  0.75688  1.0000
  H   H1013     1.0  0.50078  0.06139  0.95948  1.0000
  S   S184      1.0  0.61902  0.28759  0.50920  1.0000
  C   C597      1.0  0.80054  0.41540  0.95203  1.0000
  H   H1014     1.0  0.65048  0.29688  0.66578  1.0000
  H   H1015     1.0  0.87050  0.36820  0.90956  1.0000
  H   H1016     1.0  0.66559  0.05259  0.75148  1.0000
  H   H1017     1.0  0.55006  0.05318  0.52835  1.0000
  H   H1018     1.0  0.55777  0.00269  0.95743  1.0000
  H   H1019     1.0  0.96828  0.99291  0.97792  1.0000
  C   C598      1.0  0.56970  0.48857  0.69533  1.0000
  H   H1020     1.0  0.78069  0.44579  0.75596  1.0000
  H   H1021     1.0  0.96189  0.00286  0.88107  1.0000
  H   H1022     1.0  0.57028  0.27102  0.65253  1.0000
  C   C599      1.0  0.73808  0.06120  0.77463  1.0000
  Fe  Fe92      1.0  0.88915  0.00152  0.82997  1.0000
  H   H1023     1.0  0.76077  0.20116  0.50045  1.0000
  N   N44       1.0  0.57393  0.07308  0.49467  1.0000
  H   H1024     1.0  0.91905  0.14478  0.97300  1.0000
  H   H1025     1.0  0.87180  0.39636  0.88911  1.0000
  C   C600      1.0  0.90614  0.01826  0.72141  1.0000
  C   C601      1.0  0.59840  0.45022  0.71800  1.0000
  H   H1026     1.0  0.91999  0.23409  0.51558  1.0000
  Fe  Fe93      1.0  0.64151  0.31876  0.50557  1.0000
  C   C602      1.0  0.86062  0.38155  0.89435  1.0000
  H   H1027     1.0  0.96099  0.01868  0.92592  1.0000
  C   C603      1.0  0.80810  0.40659  0.77998  1.0000
  H   H1028     1.0  0.81663  0.06920  0.56126  1.0000
  H   H1029     1.0  0.91930  0.00960  0.99033  1.0000
  C   C604      1.0  0.79802  0.05444  0.64416  1.0000
  C   C605      1.0  0.55475  0.36138  0.98404  1.0000
  H   H1030     1.0  0.97439  0.00511  0.68595  1.0000
  Fe  Fe94      1.0  0.69021  0.33463  0.49474  1.0000
  H   H1031     1.0  0.63788  0.40384  0.97064  1.0000
  C   C606      1.0  0.93614  0.38016  0.99165  1.0000
  C   C607      1.0  0.92889  0.13376  0.99270  1.0000
  C   C608      1.0  0.88892  0.21438  0.51629  1.0000
  H   H1032     1.0  0.87355  0.00770  0.69691  1.0000
  C   C609      1.0  0.61873  0.31716  0.98513  1.0000
  C   C610      1.0  0.55159  0.06048  0.49905  1.0000
  H   H1033     1.0  0.87893  0.15254  0.98141  1.0000
  H   H1034     1.0  0.62061  0.20439  0.51951  1.0000
  C   C611      1.0  0.89085  0.25461  0.49915  1.0000
  C   C612      1.0  0.74968  0.15403  0.52112  1.0000
  H   H1035     1.0  0.92616  0.11592  0.98304  1.0000
  H   H1036     1.0  0.56451  0.27684  0.97297  1.0000
  H   H1037     1.0  0.56635  0.28552  0.92429  1.0000
  H   H1038     1.0  0.71325  0.14840  0.52000  1.0000
  H   H1039     1.0  0.98674  0.39543  0.98110  1.0000
  C   C613      1.0  0.57272  0.28936  0.95365  1.0000
  H   H1040     1.0  0.54683  0.31367  0.96575  1.0000
  H   H1041     1.0  0.80579  0.47985  0.76153  1.0000
  H   H1042     1.0  0.94742  0.13727  0.98953  1.0000
  C   C614      1.0  0.85456  0.23489  0.49816  1.0000
  H   H1043     1.0  0.71970  0.25960  0.50591  1.0000
  C   C615      1.0  0.77092  0.14771  0.50604  1.0000
  H   H1044     1.0  0.59138  0.28660  0.95351  1.0000
  H   H1045     1.0  0.57031  0.37034  0.97419  1.0000
  C   C616      1.0  0.72957  0.14339  0.50829  1.0000
  C   C617      1.0  0.56092  0.48754  0.96204  1.0000
  H   H1046     1.0  0.54509  0.35459  0.95911  1.0000
  Fe  Fe95      1.0  0.67321  0.12375  0.49330  1.0000
  H   H1047     1.0  0.83625  0.23498  0.49347  1.0000
  H   H1048     1.0  0.59142  0.98864  0.00009  1.0000
  C   C618      1.0  0.57757  0.97981  0.01549  1.0000
  H   H1049     1.0  0.58605  0.97169  0.04047  1.0000
  H   H1050     1.0  0.57385  0.94464  0.99602  1.0000
  H   H1051     1.0  0.95104  0.97412  0.00515  1.0000
  H   H1052     1.0  0.54832  0.95913  0.00472  1.0000
  H   H1053     1.0  0.56178  0.50203  0.01949  1.0000
  H   H1054     1.0  0.90421  0.97469  0.00295  1.0000
  H   H1055     1.0  0.49903  0.79197  0.99375  1.0000
  H   H1056     1.0  0.61596  0.50549  0.68038  1.0000
  S   S185      1.0  0.53490  0.58904  0.84260  1.0000
  S   S186      1.0  0.97188  0.89109  0.86993  1.0000
  H   H1057     1.0  0.89552  0.98733  0.68997  1.0000
  S   S187      1.0  0.90741  0.52210  0.85349  1.0000
  H   H1058     1.0  0.59836  0.93489  0.92920  1.0000
  H   H1059     1.0  0.92833  0.94625  0.97287  1.0000
  S   S188      1.0  0.60686  0.95699  0.83387  1.0000
  C   C619      1.0  0.93214  0.53735  0.83771  1.0000
  C   C620      1.0  0.94833  0.52776  0.81302  1.0000
  C   C621      1.0  0.96774  0.54043  0.80183  1.0000
  C   C622      1.0  0.97140  0.56283  0.81520  1.0000
  C   C623      1.0  0.95516  0.57250  0.83969  1.0000
  C   C624      1.0  0.93578  0.55980  0.85098  1.0000
  H   H1060     1.0  0.94583  0.51059  0.80243  1.0000
  H   H1061     1.0  0.98016  0.54755  0.88803  1.0000
  H   H1062     1.0  0.95743  0.58979  0.84981  1.0000
  H   H1063     1.0  0.92337  0.56751  0.86988  1.0000
  C   C625      1.0  0.95720  0.91526  0.85105  1.0000
  C   C626      1.0  0.96755  0.93050  0.82577  1.0000
  C   C627      1.0  0.95553  0.94990  0.81278  1.0000
  C   C628      1.0  0.93309  0.95449  0.82508  1.0000
  C   C629      1.0  0.92261  0.93911  0.84993  1.0000
  C   C630      1.0  0.93462  0.91968  0.86287  1.0000
  H   H1064     1.0  0.52492  0.93645  0.97192  1.0000
  H   H1065     1.0  0.96379  0.96151  0.79331  1.0000
  H   H1066     1.0  0.90520  0.94210  0.85898  1.0000
  H   H1067     1.0  0.92633  0.90793  0.88211  1.0000
  C   C631      1.0  0.55064  0.56420  0.82858  1.0000
  C   C632      1.0  0.57198  0.55986  0.84605  1.0000
  C   C633      1.0  0.58533  0.54075  0.83555  1.0000
  C   C634      1.0  0.57753  0.52555  0.80734  1.0000
  C   C635      1.0  0.55620  0.52990  0.78984  1.0000
  C   C636      1.0  0.54280  0.54897  0.80048  1.0000
  H   H1068     1.0  0.57837  0.57152  0.86765  1.0000
  H   H1069     1.0  0.60187  0.53804  0.84873  1.0000
  H   H1070     1.0  0.54996  0.51847  0.76779  1.0000
  H   H1071     1.0  0.52650  0.55200  0.78660  1.0000
  C   C637      1.0  0.53525  0.92311  0.82639  1.0000
  C   C638      1.0  0.55460  0.91059  0.83714  1.0000
  C   C639      1.0  0.57629  0.92123  0.83917  1.0000
  C   C640      1.0  0.57896  0.94459  0.83124  1.0000
  C   C641      1.0  0.55952  0.95721  0.82121  1.0000
  C   C642      1.0  0.53792  0.94649  0.81849  1.0000
  H   H1072     1.0  0.55298  0.89261  0.84312  1.0000
  H   H1073     1.0  0.59115  0.91123  0.84680  1.0000
  H   H1074     1.0  0.56123  0.97514  0.81480  1.0000
  H   H1075     1.0  0.52316  0.95640  0.81006  1.0000
  H   H1076     1.0  0.50498  0.81625  0.96517  1.0000
  H   H1077     1.0  0.97696  0.59996  0.95063  1.0000
  H   H1078     1.0  0.51461  0.52812  0.92578  1.0000
  C   C643      1.0  0.49470  0.80035  0.96627  1.0000
  H   H1079     1.0  0.58389  0.71251  0.82858  1.0000
  C   C644      1.0  0.97064  0.52707  0.93647  1.0000
  H   H1080     1.0  0.51213  0.50715  0.88937  1.0000
  C   C645      1.0  0.55772  0.64117  0.79941  1.0000
  C   C646      1.0  0.58542  0.97030  0.93043  1.0000
  H   H1081     1.0  0.58337  0.97113  0.89891  1.0000
  C   C647      1.0  0.54847  0.98779  0.94514  1.0000
  C   C648      1.0  0.96941  0.94261  0.94654  1.0000
  H   H1082     1.0  0.57825  0.61050  0.79366  1.0000
  H   H1083     1.0  0.75050  0.49758  0.82122  1.0000
  H   H1084     1.0  0.60925  0.95204  0.96885  1.0000
  H   H1085     1.0  0.55670  0.49976  0.68175  1.0000
  H   H1086     1.0  0.60420  0.50819  0.95643  1.0000
  H   H1087     1.0  0.54225  0.63015  0.79729  1.0000
  C   C649      1.0  0.57777  0.62584  0.81242  1.0000
  H   H1088     1.0  0.57971  0.67960  0.79313  1.0000
  H   H1089     1.0  0.97544  0.97524  0.92171  1.0000
  H   H1090     1.0  0.97344  0.94590  0.97710  1.0000
  H   H1091     1.0  0.53472  0.66205  0.92036  1.0000
  H   H1092     1.0  0.91674  0.95142  0.92658  1.0000
  H   H1093     1.0  0.51468  0.95590  0.93535  1.0000
  C   C650      1.0  0.60386  0.95213  0.93837  1.0000
  H   H1094     1.0  0.58270  0.49985  0.70840  1.0000
  H   H1095     1.0  0.55359  0.52883  0.92414  1.0000
  H   H1096     1.0  0.51613  0.66928  0.88183  1.0000
  H   H1097     1.0  0.98485  0.92736  0.81631  1.0000
  H   H1098     1.0  0.95724  0.92818  0.94373  1.0000
  H   H1099     1.0  0.54085  0.68670  0.89252  1.0000
  H   H1100     1.0  0.51702  0.66135  0.80983  1.0000
  H   H1101     1.0  0.54163  0.51567  0.98871  1.0000
  N   N45       1.0  0.56259  0.96648  0.94921  1.0000
  H   H1102     1.0  0.53381  0.66751  0.74583  1.0000
  H   H1103     1.0  0.58570  0.50011  0.87527  1.0000
  H   H1104     1.0  0.53922  0.63698  0.86388  1.0000
  H   H1105     1.0  0.76090  0.97701  0.84673  1.0000
  H   H1106     1.0  0.93354  0.98786  0.68322  1.0000
  H   H1107     1.0  0.59150  0.53067  0.92708  1.0000
  H   H1108     1.0  0.51777  0.69177  0.76000  1.0000
  H   H1109     1.0  0.54951  0.51736  0.87823  1.0000
  H   H1110     1.0  0.50431  0.90486  0.73585  1.0000
  S   S189      1.0  0.91915  0.97963  0.80848  1.0000
  H   H1111     1.0  0.50028  0.78983  0.94166  1.0000
  H   H1112     1.0  0.98779  0.59260  0.90474  1.0000
  H   H1113     1.0  0.57168  0.52157  0.98437  1.0000
  H   H1114     1.0  0.95517  0.95862  0.89668  1.0000
  H   H1115     1.0  0.53111  0.98129  0.88952  1.0000
  C   C651      1.0  0.56533  0.96136  0.99118  1.0000
  H   H1116     1.0  0.56097  0.93045  0.93537  1.0000
  H   H1117     1.0  0.58845  0.66859  0.83714  1.0000
  C   C652      1.0  0.90068  0.96948  0.97293  1.0000
  H   H1118     1.0  0.64453  0.49626  0.68806  1.0000
  C   C653      1.0  0.52631  0.94146  0.94147  1.0000
  H   H1119     1.0  0.51174  0.88449  0.69996  1.0000
  H   H1120     1.0  0.55493  0.70886  0.83916  1.0000
  C   C654      1.0  0.54727  0.51337  0.90908  1.0000
  C   C655      1.0  0.52134  0.51129  0.91643  1.0000
  C   C656      1.0  0.53435  0.66908  0.89088  1.0000
  S   S190      1.0  0.59390  0.50142  0.79180  1.0000
  H   H1121     1.0  0.96480  0.57638  0.92552  1.0000
  H   H1122     1.0  0.57571  0.61951  0.84206  1.0000
  H   H1123     1.0  0.61930  0.95621  0.92133  1.0000
  H   H1124     1.0  0.51995  0.92682  0.92412  1.0000
  H   H1125     1.0  0.55139  0.94833  0.89832  1.0000
  S   S191      1.0  0.50752  0.91055  0.82130  1.0000
  C   C657      1.0  0.49721  0.89191  0.71612  1.0000
  H   H1126     1.0  0.59450  0.63449  0.80950  1.0000
  H   H1127     1.0  0.54816  0.69329  0.76250  1.0000
  H   H1128     1.0  0.56176  0.64618  0.76955  1.0000
  N   N46       1.0  0.55294  0.66179  0.82417  1.0000
  C   C658      1.0  0.98110  0.58533  0.93160  1.0000
  C   C659      1.0  0.53182  0.67316  0.80829  1.0000
  C   C660      1.0  0.54859  0.65352  0.86446  1.0000
  C   C661      1.0  0.57365  0.67705  0.82299  1.0000
  C   C662      1.0  0.96035  0.96402  0.92595  1.0000
  C   C663      1.0  0.53341  0.68178  0.76673  1.0000
  C   C664      1.0  0.55124  0.94639  0.92989  1.0000
  C   C665      1.0  0.57177  0.70060  0.84249  1.0000
  C   C666      1.0  0.98896  0.53695  0.90967  1.0000
  H   H1129     1.0  0.56498  0.64998  0.87967  1.0000
  H   H1130     1.0  0.52645  0.68794  0.82573  1.0000
  H   H1131     1.0  0.57626  0.69952  0.87338  1.0000
  Fe  Fe96      1.0  0.49952  0.60349  0.82543  1.0000
  H   H1132     1.0  0.88767  0.95571  0.97422  1.0000
  C   C667      1.0  0.92229  0.96001  0.95355  1.0000
  N   N47       1.0  0.94117  0.97679  0.94545  1.0000
  H   H1133     1.0  0.98002  0.53274  0.78269  1.0000
  H   H1134     1.0  0.53247  0.98663  0.96210  1.0000
  C   C668      1.0  0.59978  0.51371  0.92696  1.0000
  H   H1135     1.0  0.95694  0.51912  0.91867  1.0000
  H   H1136     1.0  0.99057  0.56393  0.97896  1.0000
  H   H1137     1.0  0.92478  0.98579  0.89188  1.0000
  H   H1138     1.0  0.96233  0.54031  0.95429  1.0000
  H   H1139     1.0  0.50308  0.94039  0.72127  1.0000
  H   H1140     1.0  0.97079  0.97578  0.69822  1.0000
  H   H1141     1.0  0.50765  0.74492  0.88646  1.0000
  H   H1142     1.0  0.97779  0.51356  0.95508  1.0000
  H   H1143     1.0  0.51699  0.49881  0.93894  1.0000
  H   H1144     1.0  0.59275  0.98718  0.93804  1.0000
  H   H1145     1.0  0.72031  0.98949  0.85069  1.0000
  H   H1146     1.0  0.98539  0.93687  0.93232  1.0000
  H   H1147     1.0  0.99383  0.74046  0.82128  1.0000
  H   H1148     1.0  0.93469  0.98524  0.73366  1.0000
  H   H1149     1.0  0.89268  0.98361  0.95687  1.0000
  C   C669      1.0  0.49670  0.74235  0.86176  1.0000
  S   S192      1.0  0.49671  0.78935  0.85708  1.0000
  H   H1150     1.0  0.49760  0.70556  0.86597  1.0000
  C   C670      1.0  0.95033  0.98715  0.98211  1.0000
  H   H1151     1.0  0.61625  0.51575  0.91168  1.0000
  C   C671      1.0  0.55898  0.50806  0.98971  1.0000
  H   H1152     1.0  0.99408  0.58709  0.71231  1.0000
  C   C672      1.0  0.58534  0.49560  0.90602  1.0000
  N   N48       1.0  0.56109  0.49262  0.91953  1.0000
