data_image0
_chemical_formula_structural       CH4SH3CHCHCH4SH4CHNH2C2HCHSCH6CHFeHSHSFeSFeH3C5SH7CNC4HCH9CHC2H6CNHCHFeCSCHFeS2FeS2FeSFeS3C3HCHC4H6CH3C3H4C6H9CHCHCHC2HC2H5C2H7C2H6C2NH2CHCHCH3NCH3FeS2FeS2FeSFeS3CHCH2C4H3C4HCH4C2H2NC2HC2H4CH3CH3CH5C4H8CHC2HCHCH4CHC3HCH5CH9NHC4HC2H3CHCHCSFeS2FeS2FeSFeS3HSHC6H4C2NH3CH3C5H3CH5C2HNCSCHFeC2HCH5CFeH3C2H4C2HCH2C3H2FeH8C2SH5CH4CSHC2HNCH2CH2CHCHFeS2FeS2FeSFeS4HFeSC8H4CHCSH2C6H5C2H5CH8NH2C2H2CH5C2NHCH3C3HSH3SHSHCH3C3H2CH7C2HNH2FeH2SHSCH4CH2CHC2NH6CHCHCH3SHC6H4CH6FeS2H2FeSHSH2SH5C7H4C3HCHFeC4H3NCHCFeCHSH3C2H3SH3CHCH3CH2NC2HCH5C4H2CH3FeS2FeSHSFeS2FeSCS2CHC2HC6H4FeH2CHCFeC3H10CFeHSHCN2H2CH2CH3CH4CH2CHSH5CH3
_chemical_formula_sum              "C252 H432 S72 N18 Fe36"
_cell_length_a       37.8524
_cell_length_b       39.14
_cell_length_c       32.497
_cell_angle_alpha    94.2478
_cell_angle_beta     85.6609
_cell_angle_gamma    116.492

_space_group_name_H-M_alt    "P 1"
_space_group_IT_number       1

loop_
  _space_group_symop_operation_xyz
  'x, y, z'

loop_
  _atom_site_type_symbol
  _atom_site_label
  _atom_site_symmetry_multiplicity
  _atom_site_fract_x
  _atom_site_fract_y
  _atom_site_fract_z
  _atom_site_occupancy
  C   C1        1.0  0.25981  0.03440  0.04546  1.0000
  H   H1        1.0  0.30996  0.05377  0.10587  1.0000
  H   H2        1.0  0.09684  0.28853  0.22819  1.0000
  H   H3        1.0  0.11989  0.29209  0.31655  1.0000
  H   H4        1.0  0.15780  0.01308  0.12042  1.0000
  S   S1        1.0  0.17615  0.05354  0.00434  1.0000
  H   H5        1.0  0.11793  0.32199  0.07881  1.0000
  H   H6        1.0  0.31157  0.05632  0.16141  1.0000
  H   H7        1.0  0.08328  0.24414  0.25051  1.0000
  C   C2        1.0  0.04580  0.03883  0.02194  1.0000
  H   H8        1.0  0.17734  0.12682  0.02338  1.0000
  C   C3        1.0  0.29747  0.06108  0.13504  1.0000
  H   H9        1.0  0.30714  0.09241  0.13561  1.0000
  C   C4        1.0  0.13043  0.29069  0.28376  1.0000
  H   H10       1.0  0.05792  0.01807  0.01307  1.0000
  H   H11       1.0  0.18938  0.29279  0.32899  1.0000
  H   H12       1.0  0.24559  0.03485  0.17465  1.0000
  H   H13       1.0  0.15404  0.32026  0.18442  1.0000
  S   S2        1.0  0.18575  0.30981  0.04590  1.0000
  H   H14       1.0  0.27530  0.06444  0.05740  1.0000
  H   H15       1.0  0.14130  0.26842  0.28207  1.0000
  H   H16       1.0  0.20516  0.02701  0.07452  1.0000
  H   H17       1.0  0.06538  0.05908  0.04548  1.0000
  C   C5        1.0  0.09313  0.27513  0.25793  1.0000
  H   H18       1.0  0.06817  0.27723  0.27636  1.0000
  N   N1        1.0  0.16376  0.32881  0.27267  1.0000
  H   H19       1.0  0.24022  0.06114  0.13515  1.0000
  H   H20       1.0  0.14938  0.27479  0.20018  1.0000
  C   C6        1.0  0.18986  0.32448  0.23724  1.0000
  C   C7        1.0  0.25185  0.04041  0.14108  1.0000
  H   H21       1.0  0.20400  0.30659  0.24550  1.0000
  C   C8        1.0  0.16969  0.30548  0.19672  1.0000
  H   H22       1.0  0.19270  0.30668  0.17270  1.0000
  S   S3        1.0  0.10721  0.20701  0.00341  1.0000
  C   C9        1.0  0.22328  0.01112  0.07323  1.0000
  H   H23       1.0  0.17793  0.02559  0.17109  1.0000
  H   H24       1.0  0.03589  0.08332  0.99844  1.0000
  H   H25       1.0  0.01610  0.02379  0.03728  1.0000
  H   H26       1.0  0.28030  0.02115  0.04021  1.0000
  H   H27       1.0  0.24968  0.03560  0.01458  1.0000
  H   H28       1.0  0.23533  0.32577  0.30346  1.0000
  C   C10       1.0  0.20987  0.32324  0.32449  1.0000
  H   H29       1.0  0.22234  0.33598  0.35493  1.0000
  Fe  Fe1       1.0  0.13861  0.27122  0.00163  1.0000
  H   H30       1.0  0.04680  0.19645  0.79571  1.0000
  S   S4        1.0  0.15837  0.27020  0.93436  1.0000
  H   H31       1.0  0.06197  0.07622  0.90434  1.0000
  S   S5        1.0  0.06665  0.20868  0.91746  1.0000
  Fe  Fe2       1.0  0.12169  0.20646  0.93539  1.0000
  S   S6        1.0  0.13469  0.16104  0.89979  1.0000
  Fe  Fe3       1.0  0.10223  0.27270  0.92177  1.0000
  H   H32       1.0  0.07708  0.07825  0.97433  1.0000
  H   H33       1.0  0.10153  0.20077  0.83605  1.0000
  H   H34       1.0  0.12572  0.25126  0.83268  1.0000
  C   C11       1.0  0.15794  0.14186  0.96973  1.0000
  C   C12       1.0  0.10874  0.22420  0.81459  1.0000
  C   C13       1.0  0.14569  0.13104  0.92928  1.0000
  C   C14       1.0  0.14198  0.09566  0.91203  1.0000
  C   C15       1.0  0.14986  0.07105  0.93527  1.0000
  S   S7        1.0  0.09746  0.31206  0.87620  1.0000
  H   H35       1.0  0.20756  0.28908  0.73525  1.0000
  H   H36       1.0  0.17728  0.27513  0.69260  1.0000
  H   H37       1.0  0.13291  0.08718  0.88064  1.0000
  H   H38       1.0  0.14712  0.04395  0.92163  1.0000
  H   H39       1.0  0.15782  0.19103  0.81156  1.0000
  H   H40       1.0  0.02922  0.11645  0.89507  1.0000
  H   H41       1.0  0.06451  0.01666  0.94177  1.0000
  C   C16       1.0  0.19515  0.25126  0.82033  1.0000
  N   N2        1.0  0.13300  0.21991  0.77724  1.0000
  C   C17       1.0  0.16800  0.21696  0.79303  1.0000
  C   C18       1.0  0.10757  0.18290  0.75450  1.0000
  C   C19       1.0  0.14446  0.25359  0.75046  1.0000
  C   C20       1.0  0.06955  0.22502  0.80582  1.0000
  H   H42       1.0  0.17665  0.32098  0.84879  1.0000
  C   C21       1.0  0.18194  0.26449  0.72151  1.0000
  H   H43       1.0  0.18715  0.21280  0.76775  1.0000
  H   H44       1.0  0.09662  0.15872  0.77573  1.0000
  H   H45       1.0  0.15332  0.16839  0.72241  1.0000
  H   H46       1.0  0.11957  0.24920  0.73111  1.0000
  H   H47       1.0  0.14979  0.27970  0.77020  1.0000
  H   H48       1.0  0.05727  0.23326  0.83488  1.0000
  H   H49       1.0  0.07375  0.24657  0.78326  1.0000
  H   H50       1.0  0.08083  0.18368  0.74352  1.0000
  H   H51       1.0  0.01367  0.04968  0.88678  1.0000
  C   C22       1.0  0.12668  0.17155  0.71579  1.0000
  H   H52       1.0  0.18155  0.25041  0.85188  1.0000
  C   C23       1.0  0.02141  0.09976  0.92334  1.0000
  C   C24       1.0  0.03018  0.06500  0.91446  1.0000
  H   H53       1.0  0.18995  0.24106  0.71215  1.0000
  H   H54       1.0  0.22324  0.24944  0.82378  1.0000
  H   H55       1.0  0.10516  0.14313  0.70349  1.0000
  H   H56       1.0  0.13322  0.19167  0.69084  1.0000
  H   H57       1.0  0.20259  0.27906  0.80710  1.0000
  H   H58       1.0  0.03949  0.11961  0.94799  1.0000
  C   C25       1.0  0.04569  0.06173  0.98515  1.0000
  N   N3        1.0  0.02096  0.03864  0.94953  1.0000
  H   H59       1.0  0.05143  0.01301  0.87100  1.0000
  C   C26       1.0  0.16288  0.08226  0.97545  1.0000
  H   H60       1.0  0.16140  0.16920  0.98321  1.0000
  Fe  Fe4       1.0  0.05381  0.21237  0.98542  1.0000
  C   C27       1.0  0.16701  0.11780  0.99247  1.0000
  S   S8        1.0  0.08401  0.27695  0.98913  1.0000
  C   C28       1.0  0.03257  0.00690  0.93682  1.0000
  H   H61       1.0  0.24084  0.36400  0.10188  1.0000
  Fe  Fe5       1.0  0.29796  0.51013  0.25831  1.0000
  S   S9        1.0  0.28041  0.52328  0.32271  1.0000
  S   S10       1.0  0.36339  0.53616  0.24233  1.0000
  Fe  Fe6       1.0  0.21379  0.46033  0.23403  1.0000
  S   S11       1.0  0.18931  0.47047  0.29659  1.0000
  S   S12       1.0  0.16798  0.42330  0.18769  1.0000
  Fe  Fe7       1.0  0.23395  0.53162  0.29222  1.0000
  S   S13       1.0  0.22164  0.57934  0.32192  1.0000
  Fe  Fe8       1.0  0.23741  0.46147  0.32277  1.0000
  S   S14       1.0  0.21829  0.42478  0.37857  1.0000
  S   S15       1.0  0.25434  0.52289  0.22730  1.0000
  S   S16       1.0  0.25900  0.44669  0.26060  1.0000
  C   C29       1.0  0.17356  0.39162  0.14892  1.0000
  C   C30       1.0  0.20963  0.39021  0.14013  1.0000
  C   C31       1.0  0.21270  0.36458  0.10888  1.0000
  H   H62       1.0  0.11101  0.38360  0.28215  1.0000
  C   C32       1.0  0.14061  0.36694  0.12650  1.0000
  H   H63       1.0  0.23523  0.40909  0.15712  1.0000
  C   C33       1.0  0.20038  0.51057  0.41321  1.0000
  C   C34       1.0  0.23152  0.61816  0.29114  1.0000
  C   C35       1.0  0.24436  0.61830  0.24957  1.0000
  C   C36       1.0  0.43916  0.64652  0.22268  1.0000
  H   H64       1.0  0.13466  0.36975  0.02408  1.0000
  H   H65       1.0  0.19469  0.40163  0.46189  1.0000
  H   H66       1.0  0.27099  0.59146  0.45493  1.0000
  H   H67       1.0  0.24806  0.59416  0.23559  1.0000
  H   H68       1.0  0.30869  0.62633  0.34061  1.0000
  H   H69       1.0  0.35784  0.59617  0.42282  1.0000
  C   C37       1.0  0.24221  0.44329  0.42541  1.0000
  H   H70       1.0  0.23141  0.51817  0.40286  1.0000
  H   H71       1.0  0.20767  0.39386  0.02873  1.0000
  H   H72       1.0  0.18637  0.43764  0.06693  1.0000
  C   C38       1.0  0.22687  0.64972  0.30888  1.0000
  C   C39       1.0  0.27962  0.47453  0.42636  1.0000
  C   C40       1.0  0.41529  0.66028  0.20590  1.0000
  H   H73       1.0  0.36573  0.58974  0.36889  1.0000
  H   H74       1.0  0.34658  0.65551  0.40006  1.0000
  H   H75       1.0  0.29444  0.48785  0.39798  1.0000
  H   H76       1.0  0.48651  0.65915  0.13508  1.0000
  C   C41       1.0  0.37575  0.63551  0.19885  1.0000
  C   C42       1.0  0.35973  0.59733  0.20979  1.0000
  C   C43       1.0  0.38338  0.58349  0.22683  1.0000
  C   C44       1.0  0.42336  0.60798  0.23247  1.0000
  C   C45       1.0  0.29858  0.48762  0.46393  1.0000
  C   C46       1.0  0.26112  0.56622  0.47432  1.0000
  H   H77       1.0  0.32916  0.57861  0.20459  1.0000
  H   H78       1.0  0.44185  0.59732  0.24539  1.0000
  H   H79       1.0  0.43438  0.66113  0.11431  1.0000
  H   H80       1.0  0.36856  0.61353  0.31029  1.0000
  H   H81       1.0  0.21248  0.37514  0.30349  1.0000
  H   H82       1.0  0.13325  0.34905  0.23331  1.0000
  H   H83       1.0  0.31143  0.61311  0.28706  1.0000
  H   H84       1.0  0.39261  0.66040  0.41595  1.0000
  H   H85       1.0  0.46870  0.62989  0.06674  1.0000
  C   C47       1.0  0.22358  0.42585  0.46240  1.0000
  H   H86       1.0  0.20873  0.47340  0.02808  1.0000
  C   C48       1.0  0.17975  0.33994  0.08642  1.0000
  H   H87       1.0  0.32064  0.59089  0.38960  1.0000
  C   C49       1.0  0.12376  0.36652  0.29567  1.0000
  H   H88       1.0  0.21629  0.61882  0.46767  1.0000
  C   C50       1.0  0.14357  0.34100  0.09562  1.0000
  C   C51       1.0  0.35320  0.60388  0.39212  1.0000
  H   H89       1.0  0.20814  0.56775  0.42633  1.0000
  C   C52       1.0  0.44034  0.63592  0.34545  1.0000
  C   C53       1.0  0.21026  0.41820  0.01100  1.0000
  H   H90       1.0  0.16450  0.53267  0.44946  1.0000
  H   H91       1.0  0.26946  0.54620  0.45469  1.0000
  H   H92       1.0  0.13816  0.41641  0.02203  1.0000
  H   H93       1.0  0.32794  0.51114  0.46429  1.0000
  H   H94       1.0  0.32464  0.66182  0.30192  1.0000
  C   C54       1.0  0.21056  0.44962  0.04281  1.0000
  C   C55       1.0  0.19663  0.54110  0.44369  1.0000
  H   H95       1.0  0.42499  0.61444  0.32074  1.0000
  H   H96       1.0  0.35711  0.64599  0.18592  1.0000
  H   H97       1.0  0.23856  0.46171  0.05931  1.0000
  H   H98       1.0  0.21700  0.49332  0.48680  1.0000
  H   H99       1.0  0.17112  0.34924  0.33693  1.0000
  H   H100      1.0  0.17550  0.38507  0.25488  1.0000
  H   H101      1.0  0.11255  0.36776  0.13324  1.0000
  C   C56       1.0  0.25193  0.64963  0.22577  1.0000
  C   C57       1.0  0.37132  0.64801  0.39085  1.0000
  H   H102      1.0  0.18659  0.48170  0.42584  1.0000
  H   H103      1.0  0.18457  0.50861  0.38501  1.0000
  H   H104      1.0  0.43263  0.62288  0.37599  1.0000
  H   H105      1.0  0.21695  0.64988  0.34097  1.0000
  H   H106      1.0  0.26143  0.64941  0.19356  1.0000
  H   H107      1.0  0.14429  0.47794  0.48578  1.0000
  C   C58       1.0  0.18904  0.34584  0.30960  1.0000
  C   C59       1.0  0.32613  0.63579  0.31121  1.0000
  N   N4        1.0  0.21715  0.54834  0.48376  1.0000
  H   H108      1.0  0.09892  0.34054  0.30778  1.0000
  H   H109      1.0  0.14155  0.38447  0.32160  1.0000
  C   C60       1.0  0.36918  0.64213  0.31329  1.0000
  H   H110      1.0  0.21449  0.35292  0.22981  1.0000
  C   C61       1.0  0.50072  0.64087  0.05922  1.0000
  H   H111      1.0  0.38507  0.65614  0.28454  1.0000
  C   C62       1.0  0.14969  0.35742  0.26198  1.0000
  H   H112      1.0  0.46970  0.66536  0.22817  1.0000
  H   H113      1.0  0.43799  0.66546  0.05848  1.0000
  H   H114      1.0  0.47247  0.64480  0.33927  1.0000
  N   N5        1.0  0.39079  0.66551  0.35034  1.0000
  C   C63       1.0  0.13941  0.39239  0.00252  1.0000
  H   H115      1.0  0.07588  0.36548  0.99723  1.0000
  H   H116      1.0  0.24039  0.42979  0.99570  1.0000
  H   H117      1.0  0.03985  0.62245  0.58596  1.0000
  Fe  Fe9       1.0  0.28554  0.53437  0.68827  1.0000
  S   S17       1.0  0.22243  0.50497  0.71232  1.0000
  S   S18       1.0  0.33271  0.58165  0.72477  1.0000
  Fe  Fe10      1.0  0.27005  0.48549  0.60748  1.0000
  S   S19       1.0  0.20574  0.45130  0.62494  1.0000
  S   S20       1.0  0.30501  0.48674  0.54728  1.0000
  Fe  Fe11      1.0  0.20819  0.50845  0.64697  1.0000
  S   S21       1.0  0.17186  0.53442  0.62214  1.0000
  Fe  Fe12      1.0  0.22528  0.45029  0.68922  1.0000
  S   S22       1.0  0.21510  0.39852  0.72613  1.0000
  S   S23       1.0  0.27110  0.54204  0.62546  1.0000
  S   S24       1.0  0.28984  0.48042  0.66920  1.0000
  C   C64       1.0  0.18425  0.37876  0.77077  1.0000
  H   H118      1.0  0.41907  0.55496  0.52516  1.0000
  C   C65       1.0  0.14879  0.38141  0.77960  1.0000
  H   H119      1.0  0.21997  0.51761  0.53529  1.0000
  H   H120      1.0  0.14060  0.39777  0.76018  1.0000
  C   C66       1.0  0.17698  0.57697  0.64911  1.0000
  C   C67       1.0  0.17976  0.60790  0.62745  1.0000
  C   C68       1.0  0.18392  0.64199  0.64883  1.0000
  C   C69       1.0  0.17785  0.58014  0.69218  1.0000
  H   H121      1.0  0.17919  0.60565  0.59416  1.0000
  H   H122      1.0  0.17564  0.55643  0.70912  1.0000
  H   H123      1.0  0.23679  0.40402  0.92201  1.0000
  C   C70       1.0  0.41587  0.62370  0.63184  1.0000
  C   C71       1.0  0.38009  0.60256  0.65377  1.0000
  C   C72       1.0  0.37703  0.60819  0.69664  1.0000
  C   C73       1.0  0.40966  0.63547  0.71739  1.0000
  H   H124      1.0  0.39467  0.50470  0.52917  1.0000
  C   C74       1.0  0.27945  0.63448  0.66265  1.0000
  H   H125      1.0  0.35504  0.58175  0.63753  1.0000
  H   H126      1.0  0.31675  0.64638  0.71394  1.0000
  H   H127      1.0  0.43089  0.46975  0.55138  1.0000
  H   H128      1.0  0.43914  0.56611  0.59577  1.0000
  C   C75       1.0  0.18328  0.64455  0.69202  1.0000
  C   C76       1.0  0.41913  0.53106  0.54157  1.0000
  H   H129      1.0  0.19096  0.41420  0.88788  1.0000
  H   H130      1.0  0.26512  0.60592  0.67623  1.0000
  N   N6        1.0  0.41020  0.50795  0.61643  1.0000
  C   C77       1.0  0.40484  0.52180  0.66012  1.0000
  C   C78       1.0  0.37322  0.47193  0.60721  1.0000
  H   H131      1.0  0.18737  0.66614  0.63208  1.0000
  C   C79       1.0  0.44118  0.55607  0.67813  1.0000
  C   C80       1.0  0.41361  0.53840  0.58826  1.0000
  H   H132      1.0  0.41825  0.61926  0.59869  1.0000
  H   H133      1.0  0.44948  0.48950  0.64188  1.0000
  H   H134      1.0  0.45343  0.58128  0.65890  1.0000
  H   H135      1.0  0.38684  0.54357  0.59265  1.0000
  C   C81       1.0  0.10281  0.37740  0.97636  1.0000
  H   H136      1.0  0.21945  0.45625  0.94840  1.0000
  H   H137      1.0  0.15895  0.35957  0.93091  1.0000
  H   H138      1.0  0.16981  0.34593  0.97685  1.0000
  C   C82       1.0  0.12295  0.36137  0.81244  1.0000
  H   H139      1.0  0.14161  0.40552  0.90523  1.0000
  H   H140      1.0  0.28483  0.63070  0.62894  1.0000
  H   H141      1.0  0.44818  0.53119  0.53360  1.0000
  C   C83       1.0  0.44703  0.50197  0.61309  1.0000
  H   H142      1.0  0.47378  0.53004  0.61114  1.0000
  H   H143      1.0  0.27427  0.58560  0.54023  1.0000
  H   H144      1.0  0.34715  0.47802  0.61037  1.0000
  H   H145      1.0  0.21686  0.35323  0.91295  1.0000
  H   H146      1.0  0.34116  0.41155  0.61968  1.0000
  C   C84       1.0  0.18026  0.61357  0.71358  1.0000
  C   C85       1.0  0.31838  0.65907  0.68388  1.0000
  C   C86       1.0  0.06382  0.61372  0.63948  1.0000
  C   C87       1.0  0.13040  0.66569  0.56489  1.0000
  H   H147      1.0  0.44594  0.44758  0.58862  1.0000
  H   H148      1.0  0.08617  0.60740  0.62091  1.0000
  H   H149      1.0  0.48130  0.48834  0.56324  1.0000
  H   H150      1.0  0.37965  0.52944  0.66278  1.0000
  H   H151      1.0  0.25749  0.64571  0.66780  1.0000
  H   H152      1.0  0.35093  0.44165  0.66520  1.0000
  H   H153      1.0  0.22754  0.42588  0.52847  1.0000
  H   H154      1.0  0.17710  0.45220  0.89186  1.0000
  C   C88       1.0  0.36395  0.43795  0.63441  1.0000
  H   H155      1.0  0.09506  0.36274  0.81817  1.0000
  C   C89       1.0  0.16108  0.48767  0.51427  1.0000
  C   C90       1.0  0.17313  0.42609  0.90697  1.0000
  H   H156      1.0  0.26990  0.66029  0.75095  1.0000
  C   C91       1.0  0.45061  0.47534  0.57697  1.0000
  H   H157      1.0  0.43214  0.56539  0.70858  1.0000
  C   C92       1.0  0.17992  0.37028  0.95607  1.0000
  H   H158      1.0  0.40736  0.63999  0.75054  1.0000
  H   H159      1.0  0.17995  0.61545  0.74699  1.0000
  H   H160      1.0  0.39008  0.43299  0.63822  1.0000
  H   H161      1.0  0.21217  0.57407  0.54436  1.0000
  C   C93       1.0  0.18717  0.43705  0.95167  1.0000
  H   H162      1.0  0.15664  0.46167  0.52996  1.0000
  C   C94       1.0  0.44874  0.65038  0.65269  1.0000
  C   C95       1.0  0.27983  0.47033  0.50096  1.0000
  C   C96       1.0  0.19419  0.35706  0.79627  1.0000
  H   H163      1.0  0.23923  0.37424  0.96068  1.0000
  C   C97       1.0  0.44552  0.65654  0.69546  1.0000
  H   H164      1.0  0.10078  0.35396  0.95404  1.0000
  H   H165      1.0  0.46505  0.54807  0.68361  1.0000
  H   H166      1.0  0.39704  0.49900  0.68232  1.0000
  H   H167      1.0  0.14843  0.50322  0.53565  1.0000
  H   H168      1.0  0.37311  0.46125  0.57473  1.0000
  C   C98       1.0  0.22074  0.37625  0.93686  1.0000
  H   H169      1.0  0.17393  0.45573  0.96588  1.0000
  H   H170      1.0  0.00422  0.66662  0.58406  1.0000
  H   H171      1.0  0.10149  0.40086  0.96042  1.0000
  H   H172      1.0  0.29339  0.55316  0.51944  1.0000
  H   H173      1.0  0.10806  0.63573  0.55971  1.0000
  H   H174      1.0  0.07609  0.62663  0.66967  1.0000
  H   H175      1.0  0.34128  0.65342  0.66542  1.0000
  H   H176      1.0  0.22160  0.35492  0.78980  1.0000
  H   H177      1.0  0.02209  0.63640  0.63286  1.0000
  N   N7        1.0  0.17895  0.40465  0.97936  1.0000
  H   H178      1.0  0.03828  0.58570  0.64561  1.0000
  C   C99       1.0  0.04963  0.63815  0.61619  1.0000
  C   C100      1.0  0.20572  0.51176  0.50508  1.0000
  C   C101      1.0  0.24209  0.43960  0.50016  1.0000
  C   C102      1.0  0.16869  0.33765  0.82964  1.0000
  H   H179      1.0  0.15953  0.66575  0.56724  1.0000
  C   C103      1.0  0.13241  0.33888  0.83719  1.0000
  C   C104      1.0  0.20509  0.57423  0.51177  1.0000
  H   H180      1.0  0.17240  0.56349  0.51319  1.0000
  H   H181      1.0  0.20959  0.63165  0.52058  1.0000
  H   H182      1.0  0.05771  0.66956  0.70013  1.0000
  C   C105      1.0  0.22285  0.61625  0.49966  1.0000
  H   H183      1.0  0.25521  0.63111  0.50340  1.0000
  C   C106      1.0  0.28730  0.57723  0.51203  1.0000
  H   H184      1.0  0.31580  0.60241  0.50510  1.0000
  C   C107      1.0  0.42194  0.80014  0.18800  1.0000
  S   S25       1.0  0.43360  0.70840  0.19438  1.0000
  Fe  Fe13      1.0  0.23188  0.78878  0.33976  1.0000
  S   S26       1.0  0.24778  0.84919  0.32451  1.0000
  S   S27       1.0  0.22201  0.75965  0.40030  1.0000
  Fe  Fe14      1.0  0.25106  0.76779  0.25197  1.0000
  S   S28       1.0  0.26938  0.82633  0.22885  1.0000
  S   S29       1.0  0.25578  0.71984  0.21325  1.0000
  Fe  Fe15      1.0  0.30001  0.84726  0.28866  1.0000
  S   S30       1.0  0.35969  0.89785  0.29357  1.0000
  Fe  Fe16      1.0  0.21569  0.82395  0.26542  1.0000
  S   S31       1.0  0.17471  0.84606  0.24145  1.0000
  S   S32       1.0  0.28690  0.78929  0.30787  1.0000
  S   S33       1.0  0.19483  0.76317  0.28432  1.0000
  H   H185      1.0  0.40247  0.71662  0.31841  1.0000
  S   S34       1.0  0.17342  0.89016  0.05612  1.0000
  H   H186      1.0  0.43318  0.77832  0.18228  1.0000
  C   C108      1.0  0.17414  0.85725  0.18950  1.0000
  C   C109      1.0  0.20117  0.85518  0.15875  1.0000
  C   C110      1.0  0.20013  0.86494  0.11809  1.0000
  C   C111      1.0  0.17205  0.87678  0.10756  1.0000
  C   C112      1.0  0.14480  0.87859  0.13816  1.0000
  C   C113      1.0  0.14602  0.86907  0.17891  1.0000
  H   H187      1.0  0.22293  0.84613  0.16637  1.0000
  H   H188      1.0  0.22136  0.86342  0.09472  1.0000
  H   H189      1.0  0.12272  0.88722  0.13051  1.0000
  H   H190      1.0  0.12487  0.87058  0.20240  1.0000
  C   C114      1.0  0.20319  0.76948  0.44856  1.0000
  C   C115      1.0  0.18854  0.79667  0.45464  1.0000
  N   N8        1.0  0.37927  0.78349  0.17685  1.0000
  H   H191      1.0  0.45034  0.69011  0.37212  1.0000
  H   H192      1.0  0.40923  0.75986  0.38137  1.0000
  H   H193      1.0  0.18746  0.81196  0.42870  1.0000
  C   C116      1.0  0.39206  0.75985  0.10357  1.0000
  H   H194      1.0  0.47219  0.85666  0.18793  1.0000
  H   H195      1.0  0.35968  0.80412  0.23355  1.0000
  H   H196      1.0  0.20602  0.98356  0.05591  1.0000
  C   C117      1.0  0.44103  0.85543  0.28890  1.0000
  C   C118      1.0  0.40487  0.85795  0.29438  1.0000
  C   C119      1.0  0.40373  0.89262  0.28854  1.0000
  C   C120      1.0  0.43873  0.92464  0.27816  1.0000
  C   C121      1.0  0.17853  0.80043  0.00511  1.0000
  H   H197      1.0  0.44203  0.82888  0.29377  1.0000
  H   H198      1.0  0.37808  0.83336  0.30344  1.0000
  H   H199      1.0  0.43815  0.95156  0.27399  1.0000
  C   C122      1.0  0.47447  0.92206  0.27248  1.0000
  H   H200      1.0  0.36060  0.70170  0.35347  1.0000
  H   H201      1.0  0.17278  0.95475  0.11741  1.0000
  H   H202      1.0  0.20962  0.82227  0.00155  1.0000
  H   H203      1.0  0.39346  0.85084  0.45543  1.0000
  H   H204      1.0  0.32438  0.89622  0.45237  1.0000
  C   C123      1.0  0.35634  0.73601  0.23621  1.0000
  C   C124      1.0  0.19031  0.98077  0.13682  1.0000
  H   H205      1.0  0.40429  0.86445  0.20221  1.0000
  N   N9        1.0  0.23046  0.00364  0.11602  1.0000
  C   C125      1.0  0.23446  0.68102  0.28514  1.0000
  S   S35       1.0  0.11739  0.95823  0.05262  1.0000
  C   C126      1.0  0.20428  0.74968  0.48230  1.0000
  H   H206      1.0  0.41815  0.69126  0.09198  1.0000
  Fe  Fe17      1.0  0.13714  0.91457  0.02660  1.0000
  C   C127      1.0  0.41541  0.73469  0.38212  1.0000
  C   C128      1.0  0.25933  0.96617  0.15341  1.0000
  H   H207      1.0  0.42445  0.80739  0.22165  1.0000
  C   C129      1.0  0.44123  0.68092  0.08902  1.0000
  H   H208      1.0  0.36046  0.86488  0.40323  1.0000
  H   H209      1.0  0.28523  0.78983  0.46078  1.0000
  H   H210      1.0  0.31923  0.75825  0.49400  1.0000
  H   H211      1.0  0.32636  0.79056  0.19316  1.0000
  H   H212      1.0  0.13559  0.98147  0.16132  1.0000
  C   C130      1.0  0.31519  0.80758  0.47249  1.0000
  Fe  Fe18      1.0  0.06313  0.92614  0.01630  1.0000
  H   H213      1.0  0.33543  0.80698  0.44633  1.0000
  H   H214      1.0  0.23012  0.70491  0.29907  1.0000
  H   H215      1.0  0.42262  0.76683  0.11131  1.0000
  C   C131      1.0  0.17501  0.80384  0.49448  1.0000
  C   C132      1.0  0.37418  0.84735  0.19092  1.0000
  H   H216      1.0  0.44799  0.68709  0.31739  1.0000
  H   H217      1.0  0.31182  0.82656  0.39395  1.0000
  H   H218      1.0  0.32780  0.72826  0.17889  1.0000
  H   H219      1.0  0.23528  0.95250  0.09319  1.0000
  C   C133      1.0  0.48205  0.71568  0.09153  1.0000
  C   C134      1.0  0.31251  0.86464  0.44760  1.0000
  H   H220      1.0  0.47135  0.82800  0.14290  1.0000
  C   C135      1.0  0.37441  0.78283  0.13112  1.0000
  H   H221      1.0  0.28004  0.85362  0.44433  1.0000
  H   H222      1.0  0.33528  0.74493  0.25370  1.0000
  C   C136      1.0  0.32852  0.85691  0.40461  1.0000
  C   C137      1.0  0.45206  0.83576  0.16514  1.0000
  C   C138      1.0  0.39112  0.70423  0.34925  1.0000
  H   H223      1.0  0.44771  0.74543  0.37545  1.0000
  H   H224      1.0  0.34476  0.70487  0.24038  1.0000
  Fe  Fe19      1.0  0.48750  0.74959  0.22708  1.0000
  H   H225      1.0  0.16926  0.80214  0.03820  1.0000
  H   H226      1.0  0.38572  0.75027  0.24982  1.0000
  H   H227      1.0  0.32390  0.87418  0.38181  1.0000
  H   H228      1.0  0.42191  0.88380  0.49335  1.0000
  H   H229      1.0  0.38726  0.81184  0.11914  1.0000
  H   H230      1.0  0.43947  0.85129  0.14901  1.0000
  H   H231      1.0  0.40760  0.72419  0.41385  1.0000
  H   H232      1.0  0.21552  0.72858  0.47775  1.0000
  C   C139      1.0  0.47583  0.88749  0.27734  1.0000
  C   C140      1.0  0.25188  0.97889  0.11236  1.0000
  S   S36       1.0  0.48267  0.77685  0.28886  1.0000
  H   H233      1.0  0.35529  0.85881  0.20869  1.0000
  H   H234      1.0  0.48017  0.73488  0.11786  1.0000
  H   H235      1.0  0.34239  0.77063  0.12474  1.0000
  H   H236      1.0  0.23218  0.94244  0.16620  1.0000
  H   H237      1.0  0.37325  0.72864  0.10561  1.0000
  C   C141      1.0  0.35851  0.74250  0.18957  1.0000
  H   H238      1.0  0.28137  0.95464  0.14752  1.0000
  H   H239      1.0  0.39292  0.76660  0.07079  1.0000
  H   H240      1.0  0.48546  0.73128  0.06316  1.0000
  H   H241      1.0  0.37299  0.85230  0.15809  1.0000
  C   C142      1.0  0.35838  0.80476  0.19965  1.0000
  S   S37       1.0  0.00751  0.92646  0.04640  1.0000
  H   H242      1.0  0.37304  0.72548  0.17427  1.0000
  C   C143      1.0  0.16450  0.00198  0.14762  1.0000
  C   C144      1.0  0.43318  0.67168  0.34603  1.0000
  H   H243      1.0  0.28087  0.99268  0.09546  1.0000
  N   N10       1.0  0.32029  0.84752  0.48411  1.0000
  C   C145      1.0  0.39694  0.87717  0.47327  1.0000
  H   H244      1.0  0.19289  0.97021  0.16670  1.0000
  H   H245      1.0  0.17682  0.77153  0.99870  1.0000
  C   C146      1.0  0.24670  0.68093  0.24344  1.0000
  H   H246      1.0  0.27099  0.98987  0.17703  1.0000
  H   H247      1.0  0.40575  0.90082  0.45191  1.0000
  C   C147      1.0  0.15659  0.77062  0.91616  1.0000
  H   H248      1.0  0.27289  0.70163  0.69440  1.0000
  C   C148      1.0  0.21391  0.87868  0.94429  1.0000
  H   H249      1.0  0.39744  0.82471  0.74270  1.0000
  Fe  Fe20      1.0  0.27881  0.80546  0.64842  1.0000
  S   S38       1.0  0.26231  0.79010  0.71450  1.0000
  S   S39       1.0  0.33708  0.82139  0.61324  1.0000
  Fe  Fe21      1.0  0.19661  0.79170  0.63017  1.0000
  S   S40       1.0  0.17243  0.77587  0.69524  1.0000
  S   S41       1.0  0.16124  0.79430  0.57845  1.0000
  Fe  Fe22      1.0  0.22869  0.82518  0.71511  1.0000
  S   S42       1.0  0.23771  0.86590  0.77111  1.0000
  Fe  Fe23      1.0  0.20753  0.74200  0.69027  1.0000
  S   S43       1.0  0.49435  0.67332  0.62543  1.0000
  S   S44       1.0  0.24980  0.84441  0.65035  1.0000
  S   S45       1.0  0.22708  0.75378  0.62399  1.0000
  S   S46       1.0  0.08843  0.95951  0.95959  1.0000
  H   H250      1.0  0.42854  0.72888  0.71569  1.0000
  Fe  Fe24      1.0  0.11044  0.91569  0.94066  1.0000
  S   S47       1.0  0.10013  0.88726  0.87643  1.0000
  C   C149      1.0  0.28948  0.84432  0.51798  1.0000
  C   C150      1.0  0.28447  0.69195  0.75439  1.0000
  C   C151      1.0  0.19912  0.87298  0.79824  1.0000
  C   C152      1.0  0.20822  0.89915  0.83237  1.0000
  C   C153      1.0  0.17827  0.90477  0.85572  1.0000
  C   C154      1.0  0.13891  0.88414  0.84517  1.0000
  C   C155      1.0  0.12982  0.85848  0.81056  1.0000
  C   C156      1.0  0.15981  0.85276  0.78723  1.0000
  H   H251      1.0  0.23862  0.91514  0.84079  1.0000
  H   H252      1.0  0.18563  0.92508  0.88181  1.0000
  H   H253      1.0  0.09940  0.84246  0.80222  1.0000
  H   H254      1.0  0.15253  0.83271  0.76087  1.0000
  C   C157      1.0  0.29956  0.71038  0.71233  1.0000
  H   H255      1.0  0.08446  0.71939  0.71132  1.0000
  C   C158      1.0  0.20222  0.83869  0.92329  1.0000
  S   S48       1.0  0.16838  0.94868  0.97075  1.0000
  H   H256      1.0  0.47091  0.67699  0.71171  1.0000
  H   H257      1.0  0.21475  0.87864  0.97827  1.0000
  C   C159      1.0  0.43501  0.82497  0.68939  1.0000
  C   C160      1.0  0.43995  0.82659  0.64638  1.0000
  C   C161      1.0  0.41029  0.82689  0.62327  1.0000
  C   C162      1.0  0.37562  0.82559  0.64311  1.0000
  C   C163      1.0  0.37138  0.82557  0.68625  1.0000
  C   C164      1.0  0.40114  0.82542  0.70939  1.0000
  H   H258      1.0  0.46656  0.82748  0.63079  1.0000
  H   H259      1.0  0.41391  0.82729  0.58993  1.0000
  H   H260      1.0  0.34524  0.82564  0.70182  1.0000
  H   H261      1.0  0.26129  0.87441  0.55528  1.0000
  H   H262      1.0  0.04592  0.70404  0.64920  1.0000
  C   C165      1.0  0.28560  0.88128  0.53110  1.0000
  C   C166      1.0  0.15044  0.80733  0.97847  1.0000
  H   H263      1.0  0.19088  0.78655  0.85639  1.0000
  H   H264      1.0  0.20756  0.84319  0.88949  1.0000
  H   H265      1.0  0.40213  0.69442  0.67621  1.0000
  H   H266      1.0  0.19407  0.89094  0.93688  1.0000
  H   H267      1.0  0.17923  0.76415  0.92906  1.0000
  C   C167      1.0  0.07579  0.70503  0.64591  1.0000
  H   H268      1.0  0.07155  0.80255  0.89878  1.0000
  H   H269      1.0  0.41749  0.74444  0.67034  1.0000
  H   H270      1.0  0.14155  0.82495  0.87922  1.0000
  H   H271      1.0  0.31079  0.74191  0.71758  1.0000
  H   H272      1.0  0.24409  0.89840  0.93269  1.0000
  H   H273      1.0  0.12766  0.74734  0.92640  1.0000
  H   H274      1.0  0.36362  0.90255  0.50682  1.0000
  H   H275      1.0  0.13286  0.68173  0.53718  1.0000
  N   N11       1.0  0.16047  0.80909  0.93267  1.0000
  H   H276      1.0  0.19368  0.74261  0.54758  1.0000
  H   H277      1.0  0.29700  0.77879  0.53178  1.0000
  C   C168      1.0  0.34197  0.71999  0.64803  1.0000
  C   C169      1.0  0.13259  0.81985  0.91236  1.0000
  H   H278      1.0  0.26169  0.70057  0.76813  1.0000
  H   H279      1.0  0.07616  0.78617  0.94688  1.0000
  C   C170      1.0  0.06915  0.69259  0.57160  1.0000
  H   H280      1.0  0.12977  0.67532  0.63112  1.0000
  H   H281      1.0  0.32103  0.73120  0.59255  1.0000
  H   H282      1.0  0.35864  0.70756  0.62751  1.0000
  H   H283      1.0  0.01625  0.98186  0.95652  1.0000
  H   H284      1.0  0.36235  0.70189  0.74278  1.0000
  C   C171      1.0  0.16141  0.76601  0.86869  1.0000
  C   C172      1.0  0.08288  0.69591  0.68894  1.0000
  N   N12       1.0  0.33078  0.70142  0.68924  1.0000
  H   H285      1.0  0.37319  0.74801  0.72669  1.0000
  C   C173      1.0  0.12083  0.68516  0.60440  1.0000
  H   H286      1.0  0.30823  0.70167  0.77661  1.0000
  H   H287      1.0  0.13813  0.76871  0.85240  1.0000
  H   H288      1.0  0.13390  0.84723  0.92618  1.0000
  C   C174      1.0  0.36028  0.87295  0.50072  1.0000
  C   C175      1.0  0.02814  0.99192  0.89124  1.0000
  C   C176      1.0  0.40568  0.72139  0.69264  1.0000
  H   H289      1.0  0.09676  0.73547  0.64040  1.0000
  S   S49       1.0  0.18537  0.68551  0.72022  1.0000
  H   H290      1.0  0.11103  0.69389  0.69025  1.0000
  H   H291      1.0  0.06948  0.67389  0.54420  1.0000
  H   H292      1.0  0.36242  0.75086  0.65238  1.0000
  S   S50       1.0  0.46969  0.81994  0.71813  1.0000
  H   H293      1.0  0.15875  0.73692  0.86044  1.0000
  S   S51       1.0  0.49095  0.76798  0.61770  1.0000
  H   H294      1.0  0.22411  0.82886  0.93149  1.0000
  C   C177      1.0  0.08853  0.79083  0.91465  1.0000
  H   H295      1.0  0.28486  0.68984  0.61714  1.0000
  H   H296      1.0  0.08315  0.76312  0.89854  1.0000
  H   H297      1.0  0.14135  0.71620  0.60349  1.0000
  C   C178      1.0  0.17721  0.78468  0.52840  1.0000
  C   C179      1.0  0.36698  0.71852  0.71485  1.0000
  C   C180      1.0  0.19196  0.75766  0.52203  1.0000
  H   H298      1.0  0.36329  0.86449  0.53180  1.0000
  H   H299      1.0  0.31270  0.90341  0.54506  1.0000
  C   C181      1.0  0.02864  0.69327  0.57252  1.0000
  H   H300      1.0  0.03243  0.96551  0.88818  1.0000
  H   H301      1.0  0.29500  0.83405  0.54671  1.0000
  H   H302      1.0  0.27742  0.89296  0.50532  1.0000
  H   H303      1.0  0.09211  0.72187  0.56431  1.0000
  H   H304      1.0  0.02905  0.71842  0.59109  1.0000
  H   H305      1.0  0.16347  0.82471  0.49912  1.0000
  H   H306      1.0  0.29560  0.73744  0.63839  1.0000
  C   C182      1.0  0.30842  0.71895  0.62305  1.0000
  C   C183      1.0  0.32085  0.78588  0.50718  1.0000
  H   H307      1.0  0.02214  0.69639  0.54060  1.0000
  N   N13       1.0  0.07868  0.67942  0.61006  1.0000
  H   H308      1.0  0.12056  0.78389  0.98519  1.0000
  H   H309      1.0  0.25986  0.82290  0.50859  1.0000
  Fe  Fe25      1.0  0.14357  0.98938  0.99443  1.0000
  H   H310      1.0  0.35012  0.80183  0.52080  1.0000
  H   H311      1.0  0.14862  0.83382  0.99079  1.0000
  S   S52       1.0  0.08023  0.87913  0.99497  1.0000
  H   H312      1.0  0.94613  0.09238  0.03028  1.0000
  S   S53       1.0  0.99590  0.17157  0.01635  1.0000
  C   C184      1.0  0.88829  0.14985  0.05934  1.0000
  H   H313      1.0  0.84061  0.02403  0.11578  1.0000
  H   H314      1.0  0.76820  0.06131  0.08563  1.0000
  H   H315      1.0  0.81370  0.14577  0.10952  1.0000
  H   H316      1.0  0.86253  0.08931  0.10249  1.0000
  C   C185      1.0  0.80435  0.11553  0.11667  1.0000
  H   H317      1.0  0.81384  0.00709  0.07007  1.0000
  H   H318      1.0  0.77822  0.10648  0.13875  1.0000
  C   C186      1.0  0.82246  0.03004  0.09475  1.0000
  H   H319      1.0  0.79588  0.02846  0.11301  1.0000
  C   C187      1.0  0.79289  0.08932  0.07722  1.0000
  C   C188      1.0  0.84738  0.06943  0.07651  1.0000
  N   N14       1.0  0.82550  0.08443  0.05184  1.0000
  H   H320      1.0  0.87807  0.15807  0.08944  1.0000
  H   H321      1.0  0.82737  0.11352  0.13384  1.0000
  H   H322      1.0  0.87165  0.06710  0.05689  1.0000
  H   H323      1.0  0.90978  0.13855  0.06417  1.0000
  H   H324      1.0  0.77838  0.10160  0.05840  1.0000
  H   H325      1.0  0.78214  0.02861  0.02929  1.0000
  C   C189      1.0  0.93925  0.09843  0.00076  1.0000
  H   H326      1.0  0.83831  0.13734  0.02296  1.0000
  C   C190      1.0  0.85420  0.12151  0.03288  1.0000
  H   H327      1.0  0.90514  0.17645  0.04231  1.0000
  C   C191      1.0  0.80658  0.05526  0.01718  1.0000
  H   H328      1.0  0.82824  0.04617  0.00120  1.0000
  H   H329      1.0  0.86909  0.11572  0.00419  1.0000
  H   H330      1.0  0.76476  0.07502  0.99574  1.0000
  S   S54       1.0  0.85660  0.04463  0.91482  1.0000
  H   H331      1.0  0.91309  0.12073  0.89630  1.0000
  C   C192      1.0  0.89850  0.07783  0.94096  1.0000
  C   C193      1.0  0.92069  0.11421  0.92520  1.0000
  C   C194      1.0  0.95198  0.14262  0.94709  1.0000
  C   C195      1.0  0.90868  0.06969  0.97827  1.0000
  C   C196      1.0  0.96081  0.13505  0.98539  1.0000
  C   C197      1.0  0.78893  0.06802  0.98337  1.0000
  H   H332      1.0  0.77599  0.04413  0.96003  1.0000
  H   H333      1.0  0.81178  0.09225  0.96624  1.0000
  H   H334      1.0  0.96826  0.17082  0.93508  1.0000
  H   H335      1.0  0.94986  0.01810  0.90573  1.0000
  C   C198      1.0  0.97817  0.02275  0.96443  1.0000
  H   H336      1.0  0.98960  0.09084  0.93074  1.0000
  H   H337      1.0  0.89228  0.04165  0.99041  1.0000
  H   H338      1.0  0.97139  0.04606  0.97839  1.0000
  H   H339      1.0  0.53874  0.66205  0.17183  1.0000
  H   H340      1.0  0.51346  0.62967  0.08134  1.0000
  H   H341      1.0  0.50410  0.62829  0.02825  1.0000
  Fe  Fe26      1.0  0.57702  0.79527  0.21736  1.0000
  S   S55       1.0  0.58071  0.82644  0.27930  1.0000
  S   S56       1.0  0.62403  0.79468  0.16979  1.0000
  H   H342      1.0  0.54407  0.81821  0.38128  1.0000
  H   H343      1.0  0.78034  0.88047  0.06488  1.0000
  Fe  Fe27      1.0  0.53611  0.76977  0.30283  1.0000
  S   S57       1.0  0.53550  0.74142  0.36113  1.0000
  H   H344      1.0  0.77178  0.78584  0.07332  1.0000
  S   S58       1.0  0.53727  0.73791  0.24280  1.0000
  H   H345      1.0  0.82329  0.86405  0.14619  1.0000
  H   H346      1.0  0.55157  0.85496  0.44836  1.0000
  S   S59       1.0  0.74229  0.93861  0.06973  1.0000
  H   H347      1.0  0.74868  0.81508  0.06360  1.0000
  H   H348      1.0  0.73454  0.81882  0.13156  1.0000
  H   H349      1.0  0.76017  0.87066  0.13461  1.0000
  H   H350      1.0  0.82083  0.94022  0.08899  1.0000
  H   H351      1.0  0.94671  0.95127  0.05137  1.0000
  C   C199      1.0  0.54770  0.82582  0.44764  1.0000
  C   C200      1.0  0.70669  0.89821  0.09531  1.0000
  C   C201      1.0  0.68966  0.90355  0.13366  1.0000
  C   C202      1.0  0.66294  0.87204  0.15605  1.0000
  C   C203      1.0  0.65382  0.83490  0.14064  1.0000
  C   C204      1.0  0.67053  0.82951  0.10208  1.0000
  C   C205      1.0  0.69643  0.86101  0.07920  1.0000
  H   H352      1.0  0.69735  0.93221  0.14632  1.0000
  H   H353      1.0  0.65035  0.87651  0.18579  1.0000
  H   H354      1.0  0.66356  0.80085  0.08996  1.0000
  H   H355      1.0  0.70894  0.85650  0.04951  1.0000
  C   C206      1.0  0.53934  0.76768  0.40839  1.0000
  C   C207      1.0  0.53860  0.75092  0.44537  1.0000
  C   C208      1.0  0.54354  0.80508  0.40964  1.0000
  H   H356      1.0  0.70517  0.90284  0.46998  1.0000
  C   C209      1.0  0.56180  0.77247  0.06289  1.0000
  H   H357      1.0  0.86555  0.93541  0.07751  1.0000
  Fe  Fe28      1.0  0.76619  0.93368  0.00460  1.0000
  C   C210      1.0  0.83494  0.92087  0.09092  1.0000
  C   C211      1.0  0.77727  0.81321  0.05971  1.0000
  C   C212      1.0  0.81064  0.88291  0.06674  1.0000
  C   C213      1.0  0.79964  0.84229  0.12738  1.0000
  H   H358      1.0  0.87773  0.85443  0.12923  1.0000
  H   H359      1.0  0.75832  0.84356  0.17719  1.0000
  H   H360      1.0  0.85893  0.85408  0.03868  1.0000
  N   N15       1.0  0.80954  0.84678  0.08164  1.0000
  C   C214      1.0  0.84809  0.84472  0.07065  1.0000
  H   H361      1.0  0.88903  0.89797  0.10365  1.0000
  C   C215      1.0  0.76091  0.84402  0.14293  1.0000
  Fe  Fe29      1.0  0.52666  0.83103  0.26095  1.0000
  C   C216      1.0  0.88272  0.86763  0.09893  1.0000
  H   H362      1.0  0.83585  0.91823  0.12431  1.0000
  S   S60       1.0  0.52180  0.88630  0.26825  1.0000
  H   H363      1.0  0.59190  0.79644  0.06573  1.0000
  H   H364      1.0  0.79767  0.81456  0.13652  1.0000
  H   H365      1.0  0.84368  0.81457  0.07049  1.0000
  C   C217      1.0  0.94206  0.93202  0.02447  1.0000
  C   C218      1.0  0.55315  0.74567  0.09876  1.0000
  H   H366      1.0  0.82249  0.88728  0.03417  1.0000
  H   H367      1.0  0.90998  0.86704  0.08426  1.0000
  H   H368      1.0  0.57036  0.71078  0.16159  1.0000
  S   S61       1.0  0.52665  0.80450  0.19735  1.0000
  H   H369      1.0  0.58036  0.74173  0.10060  1.0000
  H   H370      1.0  0.65523  0.87419  0.41972  1.0000
  H   H371      1.0  0.62978  0.83092  0.44618  1.0000
  C   C219      1.0  0.96872  0.91653  0.01391  1.0000
  H   H372      1.0  0.75800  0.78427  0.99988  1.0000
  C   C220      1.0  0.54811  0.68354  0.14775  1.0000
  H   H373      1.0  0.70344  0.85878  0.45150  1.0000
  H   H374      1.0  0.80967  0.80097  0.00540  1.0000
  H   H375      1.0  0.54120  0.78575  0.06453  1.0000
  C   C221      1.0  0.78465  0.80825  0.01273  1.0000
  H   H376      1.0  0.67076  0.79769  0.46229  1.0000
  H   H377      1.0  0.55458  0.69184  0.05213  1.0000
  N   N16       1.0  0.51704  0.70757  0.09552  1.0000
  C   C222      1.0  0.90933  0.92253  0.00050  1.0000
  C   C223      1.0  0.65563  0.78782  0.49259  1.0000
  H   H378      1.0  0.53526  0.72194  0.44455  1.0000
  C   C224      1.0  0.64813  0.86216  0.45085  1.0000
  H   H379      1.0  0.51412  0.69312  0.02974  1.0000
  H   H380      1.0  0.88907  0.93465  0.00862  1.0000
  H   H381      1.0  0.56248  0.67416  0.12136  1.0000
  H   H382      1.0  0.55104  0.76184  0.12779  1.0000
  H   H383      1.0  0.56120  0.75786  0.03222  1.0000
  C   C225      1.0  0.54262  0.77161  0.48341  1.0000
  C   C226      1.0  0.51185  0.68802  0.13537  1.0000
  C   C227      1.0  0.52276  0.68492  0.05808  1.0000
  C   C228      1.0  0.68685  0.87143  0.47172  1.0000
  H   H384      1.0  0.50441  0.70412  0.16144  1.0000
  H   H385      1.0  0.63047  0.87503  0.46848  1.0000
  C   C229      1.0  0.54761  0.80929  0.48456  1.0000
  H   H386      1.0  0.62595  0.76465  0.48549  1.0000
  H   H387      1.0  0.50124  0.94702  0.26399  1.0000
  H   H388      1.0  0.78991  0.83389  0.99619  1.0000
  Fe  Fe30      1.0  0.59337  0.80981  0.66746  1.0000
  S   S62       1.0  0.56645  0.84665  0.64845  1.0000
  S   S63       1.0  0.65581  0.84132  0.69008  1.0000
  Fe  Fe31      1.0  0.54979  0.80866  0.59095  1.0000
  S   S64       1.0  0.55679  0.83738  0.53108  1.0000
  H   H389      1.0  0.57362  0.91729  0.70556  1.0000
  S   S65       1.0  0.58119  0.77497  0.60715  1.0000
  Fe  Fe32      1.0  0.74571  0.90888  0.91446  1.0000
  S   S66       1.0  0.75356  0.96158  0.95347  1.0000
  S   S67       1.0  0.68809  0.87452  0.88190  1.0000
  Fe  Fe33      1.0  0.81944  0.90941  0.94803  1.0000
  S   S68       1.0  0.85804  0.87879  0.94065  1.0000
  C   C230      1.0  0.53615  0.91055  0.77826  1.0000
  S   S69       1.0  0.75483  0.87978  0.96719  1.0000
  S   S70       1.0  0.80961  0.93398  0.89208  1.0000
  C   C231      1.0  0.90212  0.89614  0.96701  1.0000
  H   H390      1.0  0.64686  0.91032  0.78685  1.0000
  C   C232      1.0  0.92921  0.88126  0.95599  1.0000
  C   C233      1.0  0.63464  0.93313  0.71570  1.0000
  H   H391      1.0  0.92388  0.86093  0.92996  1.0000
  C   C234      1.0  0.66557  0.84836  0.74335  1.0000
  C   C235      1.0  0.63662  0.82809  0.77327  1.0000
  C   C236      1.0  0.64440  0.83594  0.81549  1.0000
  C   C237      1.0  0.68142  0.86363  0.82829  1.0000
  C   C238      1.0  0.71082  0.88319  0.79834  1.0000
  C   C239      1.0  0.70286  0.87558  0.75604  1.0000
  H   H392      1.0  0.60811  0.80655  0.76388  1.0000
  H   H393      1.0  0.62155  0.82058  0.83843  1.0000
  H   H394      1.0  0.73940  0.90461  0.80780  1.0000
  H   H395      1.0  0.72557  0.89120  0.73310  1.0000
  Fe  Fe34      1.0  0.51010  0.80296  0.67672  1.0000
  H   H396      1.0  0.54965  0.81650  0.79590  1.0000
  H   H397      1.0  0.63420  0.90471  0.71021  1.0000
  C   C240      1.0  0.59423  0.93096  0.73115  1.0000
  H   H398      1.0  0.58253  0.92452  0.83612  1.0000
  C   C241      1.0  0.94725  0.00066  0.93217  1.0000
  Fe  Fe35      1.0  0.81850  0.98434  0.93567  1.0000
  C   C242      1.0  0.56890  0.86957  0.76462  1.0000
  C   C243      1.0  0.75609  0.90120  0.52815  1.0000
  C   C244      1.0  0.66937  0.88182  0.59000  1.0000
  H   H399      1.0  0.75131  0.92139  0.55101  1.0000
  H   H400      1.0  0.64914  0.81049  0.55259  1.0000
  H   H401      1.0  0.69069  0.91657  0.53683  1.0000
  H   H402      1.0  0.55096  0.85595  0.73726  1.0000
  H   H403      1.0  0.78255  0.89876  0.53730  1.0000
  H   H404      1.0  0.72943  0.84248  0.50630  1.0000
  H   H405      1.0  0.59643  0.86685  0.75710  1.0000
  H   H406      1.0  0.66188  0.94902  0.82392  1.0000
  H   H407      1.0  0.94827  0.97360  0.92137  1.0000
  H   H408      1.0  0.59904  0.96117  0.73431  1.0000
  C   C245      1.0  0.60122  0.93129  0.80686  1.0000
  Fe  Fe36      1.0  0.52321  0.73690  0.63860  1.0000
  H   H409      1.0  0.62876  0.90301  0.84000  1.0000
  S   S71       1.0  0.53782  0.76854  0.70045  1.0000
  H   H410      1.0  0.54249  0.75863  0.51172  1.0000
  C   C246      1.0  0.54769  0.84398  0.80126  1.0000
  N   N17       1.0  0.68222  0.85948  0.51569  1.0000
  N   N18       1.0  0.57613  0.91071  0.77064  1.0000
  H   H411      1.0  0.66046  0.90290  0.60641  1.0000
  H   H412      1.0  0.50573  0.94604  0.79262  1.0000
  C   C247      1.0  0.72062  0.86119  0.52777  1.0000
  H   H413      1.0  0.98329  0.87985  0.97063  1.0000
  H   H414      1.0  0.69845  0.88758  0.60141  1.0000
  C   C248      1.0  0.67070  0.88616  0.54301  1.0000
  H   H415      1.0  0.65825  0.95148  0.73672  1.0000
  H   H416      1.0  0.55661  0.96981  0.80473  1.0000
  H   H417      1.0  0.61351  0.96279  0.80444  1.0000
  C   C249      1.0  0.63616  0.92232  0.81397  1.0000
  H   H418      1.0  0.56116  0.85701  0.83104  1.0000
  H   H419      1.0  0.64296  0.94673  0.68538  1.0000
  H   H420      1.0  0.54203  0.96320  0.75152  1.0000
  H   H421      1.0  0.64697  0.85334  0.59942  1.0000
  C   C250      1.0  0.65057  0.81922  0.52054  1.0000
  H   H422      1.0  0.71734  0.84936  0.55875  1.0000
  H   H423      1.0  0.64085  0.88235  0.53592  1.0000
  C   C251      1.0  0.96283  0.89192  0.97897  1.0000
  H   H424      1.0  0.62062  0.81690  0.51695  1.0000
  S   S72       1.0  0.83188  0.96107  0.99018  1.0000
  H   H425      1.0  0.52131  0.89632  0.80735  1.0000
  H   H426      1.0  0.51570  0.83661  0.80348  1.0000
  H   H427      1.0  0.91729  0.99250  0.94686  1.0000
  H   H428      1.0  0.67213  0.77553  0.50833  1.0000
  H   H429      1.0  0.97193  0.00284  0.98954  1.0000
  C   C252      1.0  0.53586  0.94998  0.78192  1.0000
  H   H430      1.0  0.51609  0.89367  0.75321  1.0000
  H   H431      1.0  0.99892  0.98465  0.87945  1.0000
  H   H432      1.0  0.76326  0.91335  0.49715  1.0000
