data_image0
_chemical_formula_structural       FeS2FeSFeSFeS3HC3HC3H3CH3SHCH4C2NHC2H2C2SH2CH3C4H6CHCHNH5CH2CH2CH3C2H9FeS2FeSFeSFeS3C2H2CHC5HC2HCHSH4CHNHCHCHC2H7C2H3CH5SHCHSH2FeS2FeS2FeSFeHS2HFeS2HSHFeSH2SHFeS2FeS2FeSFeS3C5H3NCH2C3H2C6H4CH12C6H4C4HCH2CH4FeH3CH3CH9C2HCH2CH2CH2NHC3HC2H2CHCH8NHC3HC2H4C2H3SHCH4C2H2N2C2HCSH2CHCH3CH3C2H7FeCHCHC4HC2H4CSHC3H2CHC4H2CH4CH6CHCH2CH7CH2FeS2FeS2FeSFeS3CHSHCSCFeSFeS2HFeS2FeS2FeSFeS3C3H5C8H5NC6H4C6H4C5H2NC8H20CH4C2H2CHNHC2H3CH8CHNC4H3CH10NH3C2H4C6H4FeHFeH2C2H2CH6CHCH2CH2CHC3H10CH3CHCHCH2C3HCH3SH6NCHCHNH6CH4C4H4FeS2FeHFeS3FeS3FeCFeSCHCHFeS2FeSCFe2S3H4CHSHCSH5CHC2HC2HCHCHCNH3C6H5CNH3CHCHCHCHSCHCHCHCH2SHCH3NC8H14CH8CHC2H8C2H2CH2SCHCH2C2SH5FeH2NC2HCFeHFeS2FeCFeHS2FeS2FeC2NSCHCFeS2FeS2FeHSC3H2CH5CHCSCH2C2FeHSH5C2H2C2H3CHCHCH4CSC6H4C3H2CHNCHCH2CHNHCSCHCHCHCH2CHC2H2C2HNCHC2H4CH9CHCH4SHCH5CH5CH3NH7CFeCHC2H5CHCHCHCH4CH4CSH3SH2CH3CHCSFeHCSHSHFeS2FeS2FeCFeS3FeS2FeS2FeSFeS3HSFeSHFeSFeS2FeS2FeS2FeSFeS4FeS2FeS2FeSFeHS2CHC6H4C6H4C2SHC2H4CH5C9H4C6H4C5HNHC6H4CHSC2HC6H7C6H4CH3CHCH3SC2H3NC8H19C2HC3HCH5CHNC3HCH8SH4CH3NHCH4C2H2CH11CH2NC8H20NC8H20NC8H20CHCH3CSCH2C3HFeCHCHCH2CH4FeC2H5CSHC2H2C3HCSCNHC2H4CH3C3HCHC3H2CH3CH4C2SCSH4CH5CH5CH4CH2C2H2CH3CHCHCNCH2CHCH2CHCH2CSCH2NHCSH2C2HCH2NCHCH6CHC2HNCH6NHCH7CHC2H2FeH2CHCH2CHSCFeSHFeSFeSFeS3FeS2FeS2FeSFeHS2HSFeSHFeSFeS2FeS2FeSHFeSFeS4FeS2FeS2FeSFeS3CHC4HCH4C6H4C6H6C5H4C2H2C6H4C6H4C6H10C3NHCH2CHNHC2H2CH3C3SHSCHCH2CH2CH4NCHCHCH3CHCH2NC8H21SCH2CH4C2H3CH2C2HNC6H15NC7H10CH7CH2NHC2HCH7CHCH3NC8H9C2HC3H5NC6HCH5CH2SH2SH3CHCH3CHCH2FeCH3CHC2HC2HSC3H2C2SH2SHSCHC5HC2H4CHCHFeH2CH2CH7CHC4H3CH2C2HCFeH2CH3C2HC2H8CH3SFeH4CH6C2NH2CHCHNFeH11CH9CH2CH9NHCH8FeS2HSFeSHFeSCFeSFeS3FeSCHSHFeSFeSHSFeS2FeS2FeSFeS3FeS2FeS2FeSFeS3FeS2FeSFeSFeS3C7H5C6H3C4H3C6H4C2SC2H2CHCH2C8H4CH3CH5C6H7CHC2HCHC6H2CH2CHCH3C3H2C6H5C2H2CH7CH10CH2CHC3H2C2H3NH2SFeHCH3NH4CH6CH3CH6NH3CHCHC2HCH4C2HC3H7CHC3H2CHC2SH3CH3CH3SNHC2HCH5NC4H4CHCH2CH4CH8CHCH2CH3CH2CH3C3H2CHNHCH3CH2CH2CHCH2CNCH7CH3CHCHCSHFeH3C2H2C3NCHC3H4NHCHCH3CHNCHCH9CHFeH2CH3CHCHCH2CHCSHCHC2HCH5C2HCHSHFeCH5CHCH2CH3C2HNH6CH3CNHSH4SHC2HSHCH2C3FeS2H3FeS2FeS2FeHFeCS2FeS2HSHFeSFeHSHFeS2FeS2FeSFeS3FeS2FeSHFeSFeS3FeS2FeSFeSFeS3H3C6H4C3NCH4C4H4C6H9C7H4C6H4C4SCH7CFeC3H4C6H2C2H4C2HCH4SCHC3H5CSH5SHC3HSCHC2H5C3H2C2H2C5H5CH2CH3CSCH2CNH6C2SNCHCH2CHCHCHCNHCH2C3HCHCH5CH8C2H5CHC5HCH2NCHNH2SH3CH2C2H2CH4CNC3H2C2SH2CH2CH2CH3CH3CH2CH3CH2CH4C2H4CHCHCH3CH5C2FeC2H3C3H2CHCHCHC2H3SHCH4CH2CH16CH2CH3C2N2H2CH3CH3C2HCH4CH2SHCSCH2CHCHNCH5CHNH7CNH3CH9CH6CH4C2H3C2H2CH6FeSCSCHFeHCH2FeSH2SHCSHFeSHSCHC2H2C2H2NH5CHCSCH2CH2CH3NH3C6H7C2HSH3CHFeC2SH5CH3FeHCSC3HC2H9NH3CH2CHCH3SHFeH3C3H3CHFeSCH2FeS2H2CSHC2FeS2FeH3FeSNSC3HC2H4C3H2CSH3CH2CH3CHCH3CH2SFeC2HNC7H5CH3C2H2CNCH3CHC2H5C2H3SHSC2H2CSH3CH4CSH5CH4C3HCHNCHCH5CH2CH3CH3SCHCHCH2CSHFeS2FeS2FeSFeS3FeS2FeS2FeSFeS3FeSHFeS2FeSFeS3C5HC2H3C6H4C2H3CH2CH5CH3C8H6CH3CH2C6H4NC5H12C3HCH3CH4CHCHNSHC2H2C2HCH4C2NC6HCH15C3H2CH3CH3CHCHCNC2H6NH5CH7CH2C2H2SH4CHCH3CH2CH5NCHNHCHC3HC2H7C2H2CH3C2HCHFeH2CH3CH5FeHSFeS2FeS2FeSFeS3FeS2FeS2FeHFeS3FeS2FeS2FeSFeHS2HCHCHC6H5CH2C3H3C6H4CH3C2H4C2H2C2H2C6H10CH5CHCHC4H5C2H3CH8CH3C2SH3CHNH4CH2CH3C2H3C2H9CH3C2H2CNHC3H3C4H2NCH3C2HC2H2CNH2NCH2CH3C3HC4H3C2H2CHNH3CH2CHCH2NH5SH3CHCH4CH5CH7CHCHCSCHSFeSFeHFeS2HC2HSC2H2SH2CHCH2C2H5C2H2C2HCH4CHCNH2CH2NH2CFeS2CHCHCHCHCH3C2H2FeHCSHC2HSH5CHFeHC2H4CSHSH
_chemical_formula_sum              "Fe192 S384 H2304 C1344 N96"
_cell_length_a       88.3677
_cell_length_b       88.0959
_cell_length_c       47.0793
_cell_angle_alpha    87.3561
_cell_angle_beta     87.3923
_cell_angle_gamma    108.196

_space_group_name_H-M_alt    "P 1"
_space_group_IT_number       1

loop_
  _space_group_symop_operation_xyz
  'x, y, z'

loop_
  _atom_site_type_symbol
  _atom_site_label
  _atom_site_symmetry_multiplicity
  _atom_site_fract_x
  _atom_site_fract_y
  _atom_site_fract_z
  _atom_site_occupancy
  Fe  Fe1       1.0  0.03674  0.43925  0.34291  1.0000
  S   S1        1.0  0.06101  0.43847  0.35479  1.0000
  S   S2        1.0  0.01848  0.41906  0.32255  1.0000
  Fe  Fe2       1.0  0.04378  0.47317  0.35959  1.0000
  S   S3        1.0  0.06837  0.47504  0.37278  1.0000
  Fe  Fe3       1.0  0.07109  0.46314  0.33210  1.0000
  S   S4        1.0  0.09556  0.47454  0.30676  1.0000
  Fe  Fe4       1.0  0.05639  0.45064  0.39424  1.0000
  S   S5        1.0  0.05941  0.44128  0.43924  1.0000
  S   S6        1.0  0.04707  0.46300  0.31781  1.0000
  S   S7        1.0  0.03158  0.44957  0.38334  1.0000
  H   H1        1.0  0.08344  0.46530  0.25027  1.0000
  C   C1        1.0  0.11943  0.48576  0.21448  1.0000
  C   C2        1.0  0.09580  0.47269  0.24716  1.0000
  C   C3        1.0  0.10335  0.47613  0.21935  1.0000
  H   H2        1.0  0.09665  0.47123  0.20139  1.0000
  C   C4        1.0  0.10430  0.47856  0.27084  1.0000
  C   C5        1.0  0.02700  0.37630  0.42762  1.0000
  C   C6        1.0  0.05875  0.45061  0.47202  1.0000
  H   H3        1.0  0.15930  0.48075  0.17622  1.0000
  H   H4        1.0  0.12985  0.44784  0.25547  1.0000
  H   H5        1.0  0.06008  0.47374  0.45315  1.0000
  C   C7        1.0  0.01308  0.39690  0.42716  1.0000
  H   H6        1.0  0.04574  0.40804  0.43216  1.0000
  H   H7        1.0  0.14521  0.45449  0.16181  1.0000
  H   H8        1.0  0.19756  0.45421  0.21571  1.0000
  S   S8        1.0  0.03274  0.49292  0.36133  1.0000
  H   H9        1.0  0.17798  0.47792  0.17158  1.0000
  C   C8        1.0  0.01822  0.40946  0.44969  1.0000
  H   H10       1.0  0.99774  0.41673  0.37494  1.0000
  H   H11       1.0  0.00367  0.44738  0.32549  1.0000
  H   H12       1.0  0.02559  0.40634  0.46593  1.0000
  H   H13       1.0  0.99504  0.37796  0.39107  1.0000
  C   C9        1.0  0.05586  0.40117  0.39492  1.0000
  C   C10       1.0  0.04173  0.40462  0.41073  1.0000
  N   N1        1.0  0.02594  0.39139  0.41261  1.0000
  H   H14       1.0  0.02490  0.42143  0.43934  1.0000
  C   C11       1.0  0.12787  0.49187  0.23813  1.0000
  C   C12       1.0  0.02142  0.38769  0.38256  1.0000
  H   H15       1.0  0.99573  0.39518  0.29473  1.0000
  H   H16       1.0  0.00234  0.37472  0.35676  1.0000
  C   C13       1.0  0.99220  0.44948  0.33145  1.0000
  C   C14       1.0  0.05939  0.46667  0.47286  1.0000
  S   S9        1.0  0.12852  0.48888  0.17879  1.0000
  H   H17       1.0  0.06687  0.41132  0.39740  1.0000
  H   H18       1.0  0.05802  0.39024  0.40389  1.0000
  C   C15       1.0  0.99871  0.40714  0.33392  1.0000
  H   H19       1.0  0.14348  0.46636  0.26385  1.0000
  H   H20       1.0  0.16248  0.46232  0.13801  1.0000
  H   H21       1.0  0.04041  0.41566  0.40008  1.0000
  C   C16       1.0  0.16558  0.47175  0.18001  1.0000
  C   C17       1.0  0.15845  0.45803  0.16050  1.0000
  C   C18       1.0  0.18918  0.45727  0.20129  1.0000
  C   C19       1.0  0.00495  0.37510  0.37965  1.0000
  H   H22       1.0  0.00723  0.40262  0.41131  1.0000
  H   H23       1.0  0.18756  0.44870  0.18425  1.0000
  H   H24       1.0  0.04549  0.38629  0.45784  1.0000
  H   H25       1.0  0.02164  0.39883  0.37013  1.0000
  H   H26       1.0  0.14984  0.44863  0.26231  1.0000
  H   H27       1.0  0.16909  0.47878  0.25103  1.0000
  C   C20       1.0  0.14256  0.45540  0.25240  1.0000
  H   H28       1.0  0.03473  0.37103  0.41469  1.0000
  C   C21       1.0  0.12043  0.48812  0.26601  1.0000
  H   H29       1.0  0.05441  0.40053  0.37168  1.0000
  N   N2        1.0  0.16448  0.46694  0.21140  1.0000
  H   H30       1.0  0.01509  0.36696  0.42992  1.0000
  H   H31       1.0  0.14000  0.46725  0.21287  1.0000
  H   H32       1.0  0.16538  0.44268  0.21456  1.0000
  H   H33       1.0  0.14187  0.44798  0.20978  1.0000
  H   H34       1.0  0.99376  0.46213  0.32469  1.0000
  C   C22       1.0  0.17310  0.45501  0.21833  1.0000
  H   H35       1.0  0.00742  0.41073  0.46102  1.0000
  H   H36       1.0  0.00329  0.38653  0.43732  1.0000
  C   C23       1.0  0.18850  0.49136  0.22234  1.0000
  H   H37       1.0  0.16368  0.49010  0.22332  1.0000
  H   H38       1.0  0.17535  0.45479  0.24142  1.0000
  C   C24       1.0  0.14694  0.45940  0.22020  1.0000
  H   H39       1.0  0.19542  0.46948  0.19190  1.0000
  H   H40       1.0  0.16228  0.44742  0.16531  1.0000
  H   H41       1.0  0.03019  0.38309  0.37104  1.0000
  C   C25       1.0  0.17067  0.48177  0.22768  1.0000
  C   C26       1.0  0.03317  0.37792  0.45773  1.0000
  H   H42       1.0  0.23555  0.48953  0.13838  1.0000
  H   H43       1.0  0.12720  0.49279  0.28402  1.0000
  H   H44       1.0  0.00486  0.36290  0.38682  1.0000
  H   H45       1.0  0.19619  0.48467  0.23107  1.0000
  H   H46       1.0  0.02505  0.38149  0.47268  1.0000
  H   H47       1.0  0.03356  0.36605  0.46611  1.0000
  H   H48       1.0  0.99297  0.47524  0.38550  1.0000
  H   H49       1.0  0.19208  0.49513  0.19963  1.0000
  H   H50       1.0  0.05645  0.49534  0.40258  1.0000
  Fe  Fe5       1.0  0.03612  0.44001  0.65205  1.0000
  S   S10       1.0  0.06109  0.44533  0.63086  1.0000
  S   S11       1.0  0.01666  0.41596  0.66326  1.0000
  Fe  Fe6       1.0  0.04023  0.47458  0.65776  1.0000
  S   S12       1.0  0.06488  0.48297  0.63659  1.0000
  Fe  Fe7       1.0  0.05512  0.46464  0.60458  1.0000
  S   S13       1.0  0.05992  0.47472  0.55782  1.0000
  Fe  Fe8       1.0  0.06958  0.46359  0.66440  1.0000
  S   S14       1.0  0.09432  0.46989  0.68464  1.0000
  S   S15       1.0  0.03001  0.45817  0.62396  1.0000
  S   S16       1.0  0.04522  0.45637  0.68739  1.0000
  C   C27       1.0  0.10377  0.47622  0.71725  1.0000
  C   C28       1.0  0.09557  0.47927  0.74142  1.0000
  H   H51       1.0  0.11434  0.47109  0.85491  1.0000
  H   H52       1.0  0.13598  0.46392  0.91866  1.0000
  C   C29       1.0  0.12031  0.47872  0.71853  1.0000
  H   H53       1.0  0.08290  0.47746  0.74109  1.0000
  C   C30       1.0  0.05796  0.44170  0.49799  1.0000
  C   C31       1.0  0.12224  0.48806  0.91889  1.0000
  C   C32       1.0  0.05890  0.46486  0.52524  1.0000
  C   C33       1.0  0.05792  0.44871  0.52442  1.0000
  C   C34       1.0  0.99593  0.41193  0.65799  1.0000
  H   H54       1.0  0.12687  0.47633  0.70023  1.0000
  C   C35       1.0  0.11738  0.48081  0.87000  1.0000
  C   C36       1.0  0.12854  0.48439  0.74307  1.0000
  H   H55       1.0  0.05749  0.44172  0.54411  1.0000
  C   C37       1.0  0.13270  0.45549  0.87659  1.0000
  H   H56       1.0  0.99944  0.49418  0.62960  1.0000
  S   S17       1.0  0.02710  0.49106  0.67280  1.0000
  H   H57       1.0  0.14244  0.45031  0.88043  1.0000
  H   H58       1.0  0.00850  0.45088  0.68082  1.0000
  H   H59       1.0  0.09877  0.45427  0.89071  1.0000
  H   H60       1.0  0.13479  0.46068  0.85424  1.0000
  C   C38       1.0  0.10484  0.44873  0.93256  1.0000
  H   H61       1.0  0.09453  0.46654  0.91682  1.0000
  N   N3        1.0  0.11906  0.47433  0.89958  1.0000
  H   H62       1.0  0.99871  0.43316  0.63118  1.0000
  C   C39       1.0  0.10377  0.46125  0.90916  1.0000
  H   H63       1.0  0.10507  0.43750  0.92301  1.0000
  C   C40       1.0  0.05959  0.47374  0.49925  1.0000
  H   H64       1.0  0.12894  0.48939  0.86118  1.0000
  C   C41       1.0  0.12454  0.48430  0.95038  1.0000
  C   C42       1.0  0.13341  0.46851  0.89778  1.0000
  H   H65       1.0  0.11489  0.45274  0.94641  1.0000
  H   H66       1.0  0.01162  0.43948  0.71084  1.0000
  H   H67       1.0  0.01209  0.45970  0.71492  1.0000
  H   H68       1.0  0.13425  0.47902  0.95324  1.0000
  H   H69       1.0  0.10290  0.49120  0.84414  1.0000
  H   H70       1.0  0.16667  0.48738  0.98344  1.0000
  H   H71       1.0  0.09378  0.44531  0.94684  1.0000
  C   C43       1.0  0.00605  0.44867  0.70421  1.0000
  C   C44       1.0  0.10375  0.48468  0.76617  1.0000
  H   H72       1.0  0.12125  0.44559  0.87890  1.0000
  H   H73       1.0  0.14436  0.47869  0.89136  1.0000
  H   H74       1.0  0.09715  0.48690  0.78456  1.0000
  C   C45       1.0  0.12033  0.48736  0.76729  1.0000
  H   H75       1.0  0.09288  0.48218  0.87745  1.0000
  H   H76       1.0  0.14122  0.48624  0.74334  1.0000
  H   H77       1.0  0.05773  0.49320  0.69340  1.0000
  H   H78       1.0  0.11325  0.47662  0.96156  1.0000
  H   H79       1.0  0.05755  0.42931  0.49770  1.0000
  S   S18       1.0  0.16933  0.49342  0.84510  1.0000
  H   H80       1.0  0.11223  0.49317  0.91956  1.0000
  C   C46       1.0  0.10463  0.48933  0.86714  1.0000
  H   H81       1.0  0.06041  0.48623  0.49947  1.0000
  S   S19       1.0  0.13005  0.49458  0.79924  1.0000
  H   H82       1.0  0.99585  0.47717  0.70993  1.0000
  H   H83       1.0  0.99228  0.46475  0.66800  1.0000
  Fe  Fe9       1.0  0.05070  0.58528  0.37661  1.0000
  S   S20       1.0  0.05571  0.57537  0.41854  1.0000
  S   S21       1.0  0.02715  0.57472  0.35566  1.0000
  Fe  Fe10      1.0  0.08590  0.60762  0.36459  1.0000
  S   S22       1.0  0.09329  0.59909  0.40639  1.0000
  S   S23       1.0  0.10257  0.62850  0.33474  1.0000
  Fe  Fe11      1.0  0.07815  0.57470  0.39549  1.0000
  S   S24       1.0  0.08468  0.55245  0.40405  1.0000
  Fe  Fe12      1.0  0.07025  0.60046  0.42682  1.0000
  H   H84       1.0  0.06083  0.64919  0.45429  1.0000
  S   S25       1.0  0.07247  0.58282  0.35256  1.0000
  S   S26       1.0  0.06358  0.61081  0.38591  1.0000
  H   H85       1.0  0.19739  0.69417  0.20953  1.0000
  Fe  Fe13      1.0  0.16684  0.52172  0.09501  1.0000
  S   S27       1.0  0.19055  0.53412  0.11290  1.0000
  S   S28       1.0  0.16318  0.52905  0.04869  1.0000
  H   H86       1.0  0.23349  0.74863  0.11523  1.0000
  S   S29       1.0  0.17473  0.51628  0.17577  1.0000
  H   H87       1.0  0.01018  0.52408  0.44220  1.0000
  Fe  Fe14      1.0  0.17601  0.53873  0.14994  1.0000
  S   S30       1.0  0.18188  0.56108  0.17408  1.0000
  H   H88       1.0  0.07467  0.66808  0.44150  1.0000
  H   H89       1.0  0.17758  0.67897  0.26490  1.0000
  S   S31       1.0  0.15250  0.52828  0.13090  1.0000
  H   H90       1.0  0.16309  0.54195  0.99145  1.0000
  Fe  Fe15      1.0  0.16807  0.67027  0.12236  1.0000
  S   S32       1.0  0.19269  0.66938  0.11257  1.0000
  S   S33       1.0  0.15691  0.68158  0.08810  1.0000
  Fe  Fe16      1.0  0.16451  0.65233  0.18199  1.0000
  S   S34       1.0  0.18918  0.65008  0.17474  1.0000
  S   S35       1.0  0.14995  0.63716  0.22180  1.0000
  Fe  Fe17      1.0  0.19730  0.67599  0.15767  1.0000
  S   S36       1.0  0.22282  0.69143  0.16610  1.0000
  Fe  Fe18      1.0  0.18265  0.64401  0.13032  1.0000
  S   S37       1.0  0.18622  0.62479  0.10330  1.0000
  S   S38       1.0  0.17298  0.67873  0.16704  1.0000
  S   S39       1.0  0.15761  0.64446  0.13801  1.0000
  C   C47       1.0  0.15440  0.67668  0.05192  1.0000
  C   C48       1.0  0.16285  0.66796  0.03726  1.0000
  C   C49       1.0  0.00716  0.56877  0.37053  1.0000
  C   C50       1.0  0.14123  0.67942  0.00842  1.0000
  C   C51       1.0  0.14374  0.68246  0.03709  1.0000
  H   H91       1.0  0.17132  0.66366  0.04835  1.0000
  H   H92       1.0  0.15830  0.57807  0.19235  1.0000
  H   H93       1.0  0.13719  0.68923  0.04799  1.0000
  N   N4        1.0  0.19824  0.67096  0.25719  1.0000
  C   C52       1.0  0.19062  0.65299  0.26028  1.0000
  H   H94       1.0  0.14235  0.62022  0.04515  1.0000
  H   H95       1.0  0.07548  0.63478  0.42455  1.0000
  C   C53       1.0  0.22599  0.72293  0.17926  1.0000
  C   C54       1.0  0.22752  0.50984  0.14555  1.0000
  C   C55       1.0  0.13966  0.59610  0.12787  1.0000
  H   H96       1.0  0.23987  0.76774  0.07482  1.0000
  H   H97       1.0  0.21311  0.71961  0.17984  1.0000
  C   C56       1.0  0.18517  0.57893  0.15320  1.0000
  C   C57       1.0  0.18973  0.59352  0.16624  1.0000
  C   C58       1.0  0.19065  0.60780  0.15074  1.0000
  C   C59       1.0  0.18721  0.60751  0.12205  1.0000
  C   C60       1.0  0.18339  0.59301  0.10864  1.0000
  C   C61       1.0  0.18224  0.57870  0.12427  1.0000
  H   H98       1.0  0.19219  0.59371  0.18854  1.0000
  H   H99       1.0  0.19381  0.61896  0.16107  1.0000
  H   H100      1.0  0.18084  0.59273  0.08641  1.0000
  H   H101      1.0  0.17878  0.56745  0.11410  1.0000
  C   C62       1.0  0.16452  0.52088  0.01487  1.0000
  H   H102      1.0  0.21611  0.51507  0.05705  1.0000
  H   H103      1.0  0.10961  0.55172  0.32034  1.0000
  H   H104      1.0  0.12128  0.56308  0.19268  1.0000
  H   H105      1.0  0.17010  0.57032  0.01131  1.0000
  H   H106      1.0  0.00951  0.53166  0.37809  1.0000
  H   H107      1.0  0.09626  0.55914  0.34004  1.0000
  H   H108      1.0  0.07673  0.49751  0.30581  1.0000
  H   H109      1.0  0.14345  0.60832  0.11714  1.0000
  H   H110      1.0  0.10266  0.53029  0.36279  1.0000
  H   H111      1.0  0.12650  0.59199  0.12966  1.0000
  H   H112      1.0  0.10306  0.50817  0.31404  1.0000
  H   H113      1.0  0.22913  0.74715  0.19088  1.0000
  C   C63       1.0  0.11526  0.63040  0.30278  1.0000
  C   C64       1.0  0.12169  0.64554  0.28790  1.0000
  C   C65       1.0  0.13200  0.64779  0.26297  1.0000
  C   C66       1.0  0.13631  0.63496  0.25257  1.0000
  C   C67       1.0  0.12998  0.61985  0.26756  1.0000
  C   C68       1.0  0.11949  0.61755  0.29225  1.0000
  H   H114      1.0  0.11858  0.65562  0.29561  1.0000
  H   H115      1.0  0.13667  0.65949  0.25192  1.0000
  H   H116      1.0  0.13317  0.60978  0.26009  1.0000
  H   H117      1.0  0.11480  0.60585  0.30333  1.0000
  C   C69       1.0  0.06862  0.53599  0.39623  1.0000
  C   C70       1.0  0.05666  0.53813  0.37942  1.0000
  C   C71       1.0  0.04530  0.52482  0.36935  1.0000
  C   C72       1.0  0.04557  0.50937  0.37686  1.0000
  H   H118      1.0  0.19102  0.63260  0.03763  1.0000
  C   C73       1.0  0.06846  0.52052  0.40466  1.0000
  H   H119      1.0  0.05660  0.55002  0.37300  1.0000
  H   H120      1.0  0.03660  0.52656  0.35517  1.0000
  C   C74       1.0  0.23316  0.72874  0.09050  1.0000
  H   H121      1.0  0.07754  0.51880  0.41796  1.0000
  H   H122      1.0  0.17014  0.59553  0.22706  1.0000
  H   H123      1.0  0.12040  0.60772  0.16240  1.0000
  H   H124      1.0  0.10664  0.58757  0.17140  1.0000
  Fe  Fe19      1.0  0.18747  0.51069  0.13711  1.0000
  H   H125      1.0  0.14539  0.62716  0.99639  1.0000
  H   H126      1.0  0.09680  0.56055  0.30156  1.0000
  H   H127      1.0  0.16165  0.63484  0.03590  1.0000
  C   C75       1.0  0.16176  0.60965  0.04000  1.0000
  H   H128      1.0  0.15893  0.57702  0.03742  1.0000
  H   H129      1.0  0.08217  0.66587  0.38524  1.0000
  H   H130      1.0  0.22718  0.52658  0.08360  1.0000
  C   C76       1.0  0.15536  0.62340  0.04790  1.0000
  H   H131      1.0  0.09816  0.51978  0.23593  1.0000
  H   H132      1.0  0.14347  0.57513  0.22051  1.0000
  H   H133      1.0  0.22100  0.69572  0.30561  1.0000
  H   H134      1.0  0.19284  0.67474  0.30103  1.0000
  H   H135      1.0  0.13276  0.68388  0.99765  1.0000
  H   H136      1.0  0.18155  0.69915  0.22730  1.0000
  H   H137      1.0  0.15205  0.59848  0.04722  1.0000
  H   H138      1.0  0.17144  0.60956  0.05420  1.0000
  H   H139      1.0  0.14379  0.55469  0.17614  1.0000
  C   C77       1.0  0.08187  0.64682  0.43175  1.0000
  C   C78       1.0  0.09585  0.51522  0.25862  1.0000
  H   H140      1.0  0.22742  0.50635  0.07905  1.0000
  C   C79       1.0  0.16402  0.53007  0.98979  1.0000
  H   H141      1.0  0.18725  0.64816  0.23917  1.0000
  H   H142      1.0  0.22671  0.73232  0.07308  1.0000
  C   C80       1.0  0.11138  0.63800  0.43609  1.0000
  H   H143      1.0  0.17019  0.63363  0.27894  1.0000
  H   H144      1.0  0.02023  0.54330  0.42595  1.0000
  C   C81       1.0  0.14997  0.58371  0.20253  1.0000
  H   H145      1.0  0.15754  0.62594  0.07052  1.0000
  H   H146      1.0  0.10787  0.60343  0.19418  1.0000
  N   N5        1.0  0.13845  0.58641  0.18153  1.0000
  H   H147      1.0  0.07385  0.53918  0.31172  1.0000
  C   C82       1.0  0.16047  0.66508  0.00803  1.0000
  C   C83       1.0  0.21209  0.67449  0.23526  1.0000
  C   C84       1.0  0.12805  0.59457  0.19673  1.0000
  H   H148      1.0  0.09969  0.68009  0.41965  1.0000
  C   C85       1.0  0.22751  0.51772  0.06780  1.0000
  C   C86       1.0  0.10273  0.66703  0.35934  1.0000
  H   H149      1.0  0.99775  0.55773  0.33244  1.0000
  H   H150      1.0  0.15868  0.59326  0.15135  1.0000
  C   C87       1.0  0.21328  0.69444  0.28731  1.0000
  H   H151      1.0  0.14642  0.56634  0.14265  1.0000
  C   C88       1.0  0.23230  0.52591  0.15216  1.0000
  H   H152      1.0  0.21008  0.66923  0.29623  1.0000
  H   H153      1.0  0.11692  0.64791  0.44969  1.0000
  H   H154      1.0  0.08275  0.53183  0.26669  1.0000
  H   H155      1.0  0.01254  0.57881  0.41108  1.0000
  H   H156      1.0  0.12208  0.58736  0.21655  1.0000
  H   H157      1.0  0.12905  0.54935  0.15065  1.0000
  H   H158      1.0  0.15239  0.60955  0.16160  1.0000
  H   H159      1.0  0.14394  0.58865  0.11302  1.0000
  N   N6        1.0  0.08802  0.52318  0.30779  1.0000
  H   H160      1.0  0.00522  0.50385  0.37297  1.0000
  C   C89       1.0  0.10194  0.51970  0.32096  1.0000
  C   C90       1.0  0.17939  0.62461  0.99787  1.0000
  C   C91       1.0  0.08403  0.53663  0.32166  1.0000
  H   H161      1.0  0.18448  0.59782  0.02100  1.0000
  C   C92       1.0  0.10128  0.51852  0.35384  1.0000
  C   C93       1.0  0.19421  0.63046  0.01545  1.0000
  H   H162      1.0  0.22398  0.72023  0.10550  1.0000
  H   H163      1.0  0.08576  0.50390  0.25957  1.0000
  H   H164      1.0  0.10675  0.51270  0.26518  1.0000
  H   H165      1.0  0.17453  0.63473  0.99607  1.0000
  C   C94       1.0  0.16324  0.57881  0.01465  1.0000
  C   C95       1.0  0.23512  0.73858  0.18547  1.0000
  H   H166      1.0  0.15300  0.57528  0.00093  1.0000
  H   H167      1.0  0.10865  0.67969  0.36378  1.0000
  H   H168      1.0  0.07957  0.53314  0.34411  1.0000
  S   S40       1.0  0.06683  0.61007  0.47043  1.0000
  H   H169      1.0  0.10503  0.66895  0.44775  1.0000
  C   C96       1.0  0.17555  0.64673  0.28083  1.0000
  H   H170      1.0  0.12669  0.69112  0.41320  1.0000
  H   H171      1.0  0.05389  0.51798  0.30395  1.0000
  H   H172      1.0  0.09664  0.66719  0.33924  1.0000
  H   H173      1.0  0.16686  0.60851  0.19948  1.0000
  C   C97       1.0  0.01515  0.53048  0.42146  1.0000
  C   C98       1.0  0.11506  0.59833  0.17972  1.0000
  H   H174      1.0  0.15393  0.60328  0.23183  1.0000
  H   H175      1.0  0.14019  0.49932  0.23501  1.0000
  N   N7        1.0  0.16691  0.60924  0.00915  1.0000
  N   N8        1.0  0.09620  0.65525  0.41170  1.0000
  C   C99       1.0  0.09011  0.65834  0.38326  1.0000
  C   C100      1.0  0.00257  0.52884  0.39905  1.0000
  H   H176      1.0  0.20534  0.70191  0.29039  1.0000
  C   C101      1.0  0.10543  0.67070  0.42408  1.0000
  S   S41       1.0  0.20727  0.49913  0.13990  1.0000
  H   H177      1.0  0.02495  0.52607  0.41368  1.0000
  H   H178      1.0  0.23999  0.51478  0.02941  1.0000
  C   C102      1.0  0.14954  0.67079  0.99356  1.0000
  H   H179      1.0  0.06205  0.65487  0.41735  1.0000
  C   C103      1.0  0.12336  0.67785  0.41438  1.0000
  H   H180      1.0  0.20541  0.71762  0.01888  1.0000
  H   H181      1.0  0.21767  0.68749  0.22990  1.0000
  H   H182      1.0  0.12683  0.67455  0.39329  1.0000
  C   C104      1.0  0.22586  0.66811  0.24299  1.0000
  H   H183      1.0  0.11168  0.66088  0.35497  1.0000
  H   H184      1.0  0.99747  0.53880  0.40077  1.0000
  H   H185      1.0  0.13087  0.67481  0.43061  1.0000
  C   C105      1.0  0.05878  0.50860  0.29657  1.0000
  C   C106      1.0  0.99744  0.50036  0.39301  1.0000
  H   H186      1.0  0.20210  0.64210  0.00556  1.0000
  H   H187      1.0  0.09859  0.63302  0.39798  1.0000
  H   H188      1.0  0.12040  0.63201  0.43070  1.0000
  H   H189      1.0  0.11350  0.52871  0.31332  1.0000
  H   H190      1.0  0.08558  0.64462  0.45345  1.0000
  H   H191      1.0  0.20140  0.62217  0.01553  1.0000
  H   H192      1.0  0.10311  0.53876  0.27385  1.0000
  Fe  Fe20      1.0  0.15185  0.50529  0.15491  1.0000
  C   C107      1.0  0.19263  0.71666  0.01943  1.0000
  H   H193      1.0  0.18707  0.70904  0.03904  1.0000
  C   C108      1.0  0.07370  0.50829  0.31213  1.0000
  H   H194      1.0  0.16620  0.65217  0.27563  1.0000
  C   C109      1.0  0.18581  0.67811  0.24687  1.0000
  C   C110      1.0  0.12835  0.57013  0.17354  1.0000
  C   C111      1.0  0.13759  0.55973  0.15998  1.0000
  C   C112      1.0  0.16071  0.59876  0.21572  1.0000
  H   H195      1.0  0.11642  0.64884  0.39349  1.0000
  C   C113      1.0  0.10573  0.64384  0.40828  1.0000
  C   C114      1.0  0.14792  0.59678  0.15632  1.0000
  H   H196      1.0  0.13535  0.60634  0.20364  1.0000
  H   H197      1.0  0.17843  0.64847  0.30337  1.0000
  H   H198      1.0  0.11928  0.57089  0.15859  1.0000
  H   H199      1.0  0.17804  0.67017  0.23188  1.0000
  C   C115      1.0  0.17440  0.59604  0.00687  1.0000
  S   S42       1.0  0.16440  0.49776  0.11736  1.0000
  H   H200      1.0  0.22352  0.53210  0.15429  1.0000
  C   C116      1.0  0.20344  0.67664  0.28596  1.0000
  C   C117      1.0  0.23913  0.50200  0.14318  1.0000
  C   C118      1.0  0.99485  0.56026  0.35392  1.0000
  H   H201      1.0  0.20041  0.70385  0.24272  1.0000
  H   H202      1.0  0.14206  0.59657  0.00263  1.0000
  C   C119      1.0  0.09228  0.52802  0.27664  1.0000
  H   H203      1.0  0.20782  0.66955  0.21476  1.0000
  C   C120      1.0  0.09750  0.55287  0.32052  1.0000
  C   C121      1.0  0.00321  0.57219  0.39812  1.0000
  C   C122      1.0  0.19187  0.69480  0.23091  1.0000
  C   C123      1.0  0.23355  0.71162  0.17273  1.0000
  H   H204      1.0  0.06098  0.50982  0.27310  1.0000
  H   H205      1.0  0.19154  0.72879  0.02150  1.0000
  C   C124      1.0  0.06931  0.65549  0.43615  1.0000
  H   H206      1.0  0.19910  0.64697  0.26817  1.0000
  H   H207      1.0  0.22168  0.69940  0.26861  1.0000
  H   H208      1.0  0.22227  0.65486  0.24365  1.0000
  H   H209      1.0  0.08273  0.64683  0.37509  1.0000
  C   C125      1.0  0.05675  0.50723  0.39541  1.0000
  H   H210      1.0  0.16709  0.65856  0.99670  1.0000
  H   H211      1.0  0.11131  0.51451  0.36095  1.0000
  H   H212      1.0  0.23979  0.53456  0.03320  1.0000
  H   H213      1.0  0.09011  0.50964  0.36317  1.0000
  H   H214      1.0  0.10138  0.62889  0.44853  1.0000
  H   H215      1.0  0.17397  0.71378  0.99102  1.0000
  C   C126      1.0  0.18408  0.70892  0.99331  1.0000
  H   H216      1.0  0.23096  0.67255  0.26323  1.0000
  C   C127      1.0  0.16562  0.50548  0.01225  1.0000
  H   H217      1.0  0.23564  0.67253  0.22597  1.0000
  H   H218      1.0  0.99435  0.52743  0.34176  1.0000
  C   C128      1.0  0.15266  0.60537  0.99096  1.0000
  H   H219      1.0  0.24087  0.72198  0.08208  1.0000
  H   H220      1.0  0.20111  0.68858  0.00702  1.0000
  H   H221      1.0  0.00570  0.49942  0.40971  1.0000
  H   H222      1.0  0.06978  0.50575  0.33511  1.0000
  H   H223      1.0  0.16594  0.49820  0.03121  1.0000
  H   H224      1.0  0.19103  0.50255  0.23380  1.0000
  H   H225      1.0  0.17802  0.69603  0.99899  1.0000
  C   C129      1.0  0.24159  0.52412  0.04514  1.0000
  H   H226      1.0  0.04921  0.49702  0.30161  1.0000
  H   H227      1.0  0.09280  0.59776  0.48700  1.0000
  Fe  Fe21      1.0  0.05229  0.58689  0.67486  1.0000
  S   S43       1.0  0.06461  0.57332  0.64804  1.0000
  S   S44       1.0  0.02620  0.58435  0.66805  1.0000
  Fe  Fe22      1.0  0.08374  0.60617  0.70125  1.0000
  S   S45       1.0  0.09825  0.59442  0.67468  1.0000
  S   S46       1.0  0.09055  0.62113  0.74062  1.0000
  Fe  Fe23      1.0  0.08346  0.59694  0.63747  1.0000
  S   S47       1.0  0.09432  0.59998  0.59140  1.0000
  Fe  Fe24      1.0  0.07824  0.57191  0.68654  1.0000
  S   S48       1.0  0.08390  0.55009  0.70237  1.0000
  S   S49       1.0  0.07064  0.61095  0.66289  1.0000
  S   S50       1.0  0.06422  0.58310  0.71448  1.0000
  C   C130      1.0  0.08751  0.53084  0.57143  1.0000
  H   H228      1.0  0.21347  0.56331  0.86104  1.0000
  S   S51       1.0  0.17629  0.52385  0.79935  1.0000
  H   H229      1.0  0.13280  0.51974  0.74160  1.0000
  C   C131      1.0  0.23495  0.51213  0.84940  1.0000
  S   S52       1.0  0.19132  0.52924  0.86276  1.0000
  C   C132      1.0  0.12413  0.52648  0.74214  1.0000
  Fe  Fe25      1.0  0.17509  0.53845  0.83653  1.0000
  S   S53       1.0  0.17953  0.56452  0.82407  1.0000
  Fe  Fe26      1.0  0.19126  0.51329  0.82695  1.0000
  S   S54       1.0  0.21494  0.51276  0.80538  1.0000
  S   S55       1.0  0.15243  0.52094  0.85634  1.0000
  H   H230      1.0  0.09395  0.51021  0.55574  1.0000
  Fe  Fe27      1.0  0.15936  0.66047  0.92122  1.0000
  S   S56       1.0  0.18215  0.65611  0.93028  1.0000
  S   S57       1.0  0.14560  0.66792  0.95708  1.0000
  Fe  Fe28      1.0  0.16173  0.65318  0.85763  1.0000
  S   S58       1.0  0.18561  0.64919  0.86332  1.0000
  S   S59       1.0  0.15309  0.64795  0.81216  1.0000
  Fe  Fe29      1.0  0.17376  0.63509  0.90355  1.0000
  S   S60       1.0  0.17460  0.61089  0.92008  1.0000
  Fe  Fe30      1.0  0.19206  0.67093  0.88942  1.0000
  S   S61       1.0  0.21713  0.68771  0.89636  1.0000
  S   S62       1.0  0.14985  0.63814  0.89737  1.0000
  S   S63       1.0  0.16926  0.67624  0.88098  1.0000
  C   C133      1.0  0.22776  0.70821  0.88709  1.0000
  C   C134      1.0  0.22251  0.71747  0.86729  1.0000
  C   C135      1.0  0.05707  0.52129  0.61169  1.0000
  H   H231      1.0  0.05621  0.64161  0.72886  1.0000
  H   H232      1.0  0.13041  0.53926  0.74518  1.0000
  H   H233      1.0  0.21150  0.71219  0.85717  1.0000
  H   H234      1.0  0.00992  0.54842  0.64672  1.0000
  H   H235      1.0  0.11731  0.53566  0.64478  1.0000
  C   C136      1.0  0.01163  0.53915  0.63287  1.0000
  C   C137      1.0  0.23364  0.51460  0.82017  1.0000
  C   C138      1.0  0.17863  0.57710  0.85147  1.0000
  C   C139      1.0  0.17415  0.57109  0.87967  1.0000
  C   C140      1.0  0.17311  0.58157  0.90080  1.0000
  C   C141      1.0  0.17639  0.59797  0.89367  1.0000
  C   C142      1.0  0.18102  0.60390  0.86553  1.0000
  C   C143      1.0  0.18226  0.59351  0.84455  1.0000
  H   H236      1.0  0.17141  0.55842  0.88517  1.0000
  H   H237      1.0  0.16960  0.57693  0.92261  1.0000
  H   H238      1.0  0.18377  0.61651  0.85991  1.0000
  H   H239      1.0  0.18601  0.59822  0.82286  1.0000
  H   H240      1.0  0.21517  0.68461  0.98229  1.0000
  N   N9        1.0  0.19417  0.71147  0.96578  1.0000
  C   C144      1.0  0.10808  0.62787  0.76046  1.0000
  C   C145      1.0  0.12350  0.63040  0.74828  1.0000
  C   C146      1.0  0.13701  0.63673  0.76430  1.0000
  C   C147      1.0  0.13541  0.64033  0.79297  1.0000
  C   C148      1.0  0.11997  0.63752  0.80532  1.0000
  C   C149      1.0  0.10648  0.63152  0.78910  1.0000
  H   H241      1.0  0.12507  0.62792  0.72625  1.0000
  H   H242      1.0  0.14883  0.63891  0.75432  1.0000
  H   H243      1.0  0.11843  0.64023  0.82722  1.0000
  H   H244      1.0  0.09469  0.62979  0.79881  1.0000
  C   C150      1.0  0.06726  0.53338  0.69867  1.0000
  C   C151      1.0  0.05255  0.53530  0.69291  1.0000
  C   C152      1.0  0.03973  0.52200  0.68705  1.0000
  C   C153      1.0  0.04178  0.50694  0.68605  1.0000
  C   C154      1.0  0.05623  0.50491  0.69321  1.0000
  C   C155      1.0  0.06887  0.51809  0.69995  1.0000
  H   H245      1.0  0.05107  0.54702  0.69286  1.0000
  H   H246      1.0  0.02843  0.52346  0.68263  1.0000
  H   H247      1.0  0.14447  0.54606  0.70164  1.0000
  H   H248      1.0  0.07995  0.51642  0.70548  1.0000
  C   C156      1.0  0.08557  0.60153  0.55827  1.0000
  C   C157      1.0  0.09285  0.59825  0.53303  1.0000
  C   C158      1.0  0.08690  0.60014  0.50614  1.0000
  C   C159      1.0  0.06638  0.60882  0.52929  1.0000
  C   C160      1.0  0.07209  0.60655  0.55624  1.0000
  H   H249      1.0  0.10332  0.59443  0.53423  1.0000
  H   H250      1.0  0.06638  0.60921  0.57534  1.0000
  N   N10       1.0  0.13812  0.59288  0.80669  1.0000
  C   C161      1.0  0.15421  0.60515  0.79894  1.0000
  C   C162      1.0  0.13042  0.59914  0.83083  1.0000
  C   C163      1.0  0.12840  0.59134  0.78068  1.0000
  C   C164      1.0  0.14073  0.57721  0.81511  1.0000
  C   C165      1.0  0.16396  0.60164  0.77344  1.0000
  C   C166      1.0  0.13912  0.60127  0.85879  1.0000
  C   C167      1.0  0.11006  0.58587  0.78567  1.0000
  C   C168      1.0  0.12595  0.56324  0.82631  1.0000
  H   H251      1.0  0.15289  0.61713  0.79405  1.0000
  H   H252      1.0  0.16201  0.60673  0.81707  1.0000
  H   H253      1.0  0.11804  0.59141  0.83669  1.0000
  H   H254      1.0  0.12921  0.61095  0.82405  1.0000
  H   H255      1.0  0.13143  0.60303  0.76809  1.0000
  H   H256      1.0  0.13135  0.58300  0.76592  1.0000
  H   H257      1.0  0.14589  0.57263  0.79665  1.0000
  H   H258      1.0  0.15002  0.57872  0.83083  1.0000
  H   H259      1.0  0.17492  0.61207  0.76889  1.0000
  H   H260      1.0  0.16799  0.59113  0.77836  1.0000
  H   H261      1.0  0.15739  0.60004  0.75372  1.0000
  H   H262      1.0  0.13154  0.60449  0.87543  1.0000
  H   H263      1.0  0.14125  0.59018  0.86700  1.0000
  H   H264      1.0  0.15050  0.61130  0.85654  1.0000
  H   H265      1.0  0.10600  0.59539  0.79506  1.0000
  H   H266      1.0  0.10531  0.57459  0.79912  1.0000
  H   H267      1.0  0.10462  0.58378  0.76478  1.0000
  H   H268      1.0  0.11963  0.55676  0.80844  1.0000
  H   H269      1.0  0.11751  0.56689  0.84031  1.0000
  H   H270      1.0  0.12989  0.55473  0.84000  1.0000
  C   C169      1.0  0.99514  0.54929  0.72108  1.0000
  H   H271      1.0  0.05625  0.61318  0.52801  1.0000
  H   H272      1.0  0.21792  0.71365  0.97971  1.0000
  H   H273      1.0  0.06150  0.62448  0.71677  1.0000
  H   H274      1.0  0.11603  0.52171  0.76148  1.0000
  C   C170      1.0  0.05581  0.51973  0.51547  1.0000
  C   C171      1.0  0.11402  0.52426  0.71580  1.0000
  H   H275      1.0  0.22436  0.50894  0.86374  1.0000
  H   H276      1.0  0.10661  0.51144  0.71684  1.0000
  C   C172      1.0  0.06839  0.54458  0.55615  1.0000
  H   H277      1.0  0.05544  0.54298  0.55481  1.0000
  N   N11       1.0  0.12313  0.52908  0.68717  1.0000
  H   H278      1.0  0.06977  0.56714  0.57464  1.0000
  C   C173      1.0  0.09218  0.51547  0.57612  1.0000
  C   C174      1.0  0.00937  0.56018  0.70829  1.0000
  H   H279      1.0  0.14208  0.50857  0.64487  1.0000
  H   H280      1.0  0.12132  0.55697  0.71509  1.0000
  H   H281      1.0  0.99561  0.54195  0.73989  1.0000
  C   C175      1.0  0.20818  0.70526  0.96868  1.0000
  H   H282      1.0  0.13301  0.49802  0.91049  1.0000
  H   H283      1.0  0.10817  0.50604  0.64444  1.0000
  H   H284      1.0  0.04495  0.51119  0.52661  1.0000
  H   H285      1.0  0.21227  0.58796  0.83005  1.0000
  H   H286      1.0  0.01893  0.55685  0.59596  1.0000
  H   H287      1.0  0.01818  0.53284  0.64575  1.0000
  H   H288      1.0  0.04617  0.51648  0.57242  1.0000
  H   H289      1.0  0.19039  0.73442  0.95763  1.0000
  C   C176      1.0  0.11134  0.52882  0.66484  1.0000
  H   H290      1.0  0.12403  0.50487  0.68324  1.0000
  N   N12       1.0  0.02891  0.61204  0.74085  1.0000
  C   C177      1.0  0.01150  0.60363  0.73655  1.0000
  C   C178      1.0  0.03680  0.59922  0.74424  1.0000
  C   C179      1.0  0.03598  0.62248  0.71416  1.0000
  C   C180      1.0  0.03009  0.62192  0.76653  1.0000
  H   H291      1.0  0.21681  0.55358  0.76326  1.0000
  H   H292      1.0  0.05396  0.53143  0.51059  1.0000
  H   H293      1.0  0.08334  0.50632  0.59045  1.0000
  C   C181      1.0  0.04592  0.62601  0.78181  1.0000
  H   H294      1.0  0.01026  0.59530  0.71907  1.0000
  H   H295      1.0  0.00547  0.59602  0.75590  1.0000
  H   H296      1.0  0.04977  0.60424  0.74680  1.0000
  H   H297      1.0  0.03596  0.59262  0.72448  1.0000
  H   H298      1.0  0.03416  0.61513  0.69518  1.0000
  H   H299      1.0  0.02989  0.63160  0.71027  1.0000
  H   H300      1.0  0.02788  0.63342  0.76073  1.0000
  H   H301      1.0  0.02052  0.61554  0.78312  1.0000
  H   H302      1.0  0.07422  0.55069  0.53534  1.0000
  H   H303      1.0  0.99347  0.57613  0.65470  1.0000
  N   N13       1.0  0.07115  0.52856  0.56074  1.0000
  H   H304      1.0  0.19473  0.67942  0.97417  1.0000
  H   H305      1.0  0.16370  0.70075  0.91796  1.0000
  H   H306      1.0  0.01835  0.57787  0.76413  1.0000
  C   C182      1.0  0.99725  0.51551  0.60604  1.0000
  C   C183      1.0  0.07082  0.52130  0.53219  1.0000
  H   H307      1.0  0.02577  0.53948  0.59268  1.0000
  H   H308      1.0  0.05821  0.50468  0.57979  1.0000
  H   H309      1.0  0.08905  0.53675  0.59185  1.0000
  H   H310      1.0  0.21374  0.74719  0.92492  1.0000
  C   C184      1.0  0.13492  0.54567  0.68680  1.0000
  C   C185      1.0  0.12770  0.55904  0.69375  1.0000
  C   C186      1.0  0.14199  0.52029  0.65258  1.0000
  C   C187      1.0  0.22027  0.56195  0.80589  1.0000
  C   C188      1.0  0.00883  0.56997  0.68439  1.0000
  C   C189      1.0  0.18404  0.70242  0.94328  1.0000
  H   H311      1.0  0.15596  0.62691  0.96267  1.0000
  H   H312      1.0  0.18363  0.62345  0.97565  1.0000
  H   H313      1.0  0.13700  0.52595  0.63551  1.0000
  H   H314      1.0  0.17959  0.59616  0.98474  1.0000
  Fe  Fe31      1.0  0.15433  0.50542  0.81999  1.0000
  H   H315      1.0  0.04462  0.61793  0.80122  1.0000
  Fe  Fe32      1.0  0.16877  0.51029  0.87994  1.0000
  H   H316      1.0  0.07102  0.55229  0.60058  1.0000
  H   H317      1.0  0.13747  0.57061  0.69364  1.0000
  C   C190      1.0  0.22655  0.55661  0.77820  1.0000
  C   C191      1.0  0.13211  0.51744  0.68139  1.0000
  H   H318      1.0  0.13579  0.61468  0.96946  1.0000
  H   H319      1.0  0.00179  0.52576  0.68681  1.0000
  C   C192      1.0  0.17013  0.70837  0.93453  1.0000
  H   H320      1.0  0.10286  0.53513  0.67184  1.0000
  H   H321      1.0  0.05086  0.51007  0.62481  1.0000
  H   H322      1.0  0.10376  0.51846  0.58631  1.0000
  H   H323      1.0  0.23238  0.57549  0.87101  1.0000
  H   H324      1.0  0.09680  0.53917  0.55625  1.0000
  H   H325      1.0  0.08783  0.56228  0.57594  1.0000
  C   C193      1.0  0.23176  0.73354  0.86004  1.0000
  H   H326      1.0  0.05661  0.62604  0.76864  1.0000
  C   C194      1.0  0.21002  0.73397  0.92881  1.0000
  H   H327      1.0  0.11948  0.56055  0.67750  1.0000
  H   H328      1.0  0.05757  0.63834  0.69199  1.0000
  C   C195      1.0  0.16558  0.50859  0.95999  1.0000
  H   H329      1.0  0.20298  0.72878  0.91072  1.0000
  H   H330      1.0  0.14131  0.54923  0.66542  1.0000
  C   C196      1.0  0.23710  0.55339  0.83812  1.0000
  H   H331      1.0  0.14071  0.51761  0.69797  1.0000
  C   C197      1.0  0.02324  0.54791  0.60754  1.0000
  C   C198      1.0  0.05804  0.51726  0.58027  1.0000
  C   C199      1.0  0.20032  0.72916  0.95770  1.0000
  H   H332      1.0  0.22776  0.74050  0.84424  1.0000
  H   H333      1.0  0.08133  0.52838  0.51792  1.0000
  H   H334      1.0  0.06878  0.52588  0.62093  1.0000
  H   H335      1.0  0.03480  0.55475  0.61592  1.0000
  H   H336      1.0  0.02833  0.59198  0.78940  1.0000
  H   H337      1.0  0.16421  0.53129  0.94364  1.0000
  H   H338      1.0  0.10537  0.53095  0.71915  1.0000
  H   H339      1.0  0.19142  0.70230  0.92350  1.0000
  H   H340      1.0  0.22990  0.54560  0.78197  1.0000
  H   H341      1.0  0.22110  0.73060  0.92871  1.0000
  C   C200      1.0  0.16465  0.52404  0.96257  1.0000
  H   H342      1.0  0.21447  0.57093  0.79961  1.0000
  H   H343      1.0  0.21009  0.55161  0.81507  1.0000
  H   H344      1.0  0.17860  0.68958  0.95049  1.0000
  C   C201      1.0  0.10107  0.51211  0.65695  1.0000
  H   H345      1.0  0.21309  0.59004  0.86734  1.0000
  C   C202      1.0  0.07462  0.55705  0.57836  1.0000
  H   H346      1.0  0.03824  0.57956  0.77256  1.0000
  C   C203      1.0  0.22451  0.57303  0.85293  1.0000
  H   H347      1.0  0.02069  0.56112  0.71715  1.0000
  H   H348      1.0  0.21380  0.70458  0.94734  1.0000
  C   C204      1.0  0.05383  0.63213  0.71344  1.0000
  C   C205      1.0  0.21999  0.58842  0.84801  1.0000
  C   C206      1.0  0.02989  0.58656  0.76916  1.0000
  H   H349      1.0  0.16115  0.70710  0.95245  1.0000
  C   C207      1.0  0.07375  0.60570  0.50403  1.0000
  H   H350      1.0  0.09152  0.51345  0.64349  1.0000
  H   H351      1.0  0.01754  0.51101  0.62784  1.0000
  H   H352      1.0  0.23072  0.59915  0.84509  1.0000
  S   S64       1.0  0.16536  0.49984  0.92636  1.0000
  H   H353      1.0  0.17427  0.72082  0.92503  1.0000
  H   H354      1.0  0.00017  0.50695  0.67116  1.0000
  H   H355      1.0  0.05020  0.52977  0.61469  1.0000
  H   H356      1.0  0.15449  0.52786  0.65498  1.0000
  H   H357      1.0  0.04860  0.63823  0.78961  1.0000
  H   H358      1.0  0.22635  0.54300  0.84485  1.0000
  N   N14       1.0  0.99565  0.52817  0.62540  1.0000
  C   C208      1.0  0.00704  0.50476  0.61620  1.0000
  H   H359      1.0  0.23676  0.56610  0.76732  1.0000
  C   C209      1.0  0.99401  0.56852  0.67310  1.0000
  H   H360      1.0  0.99367  0.54317  0.58861  1.0000
  N   N15       1.0  0.23239  0.56771  0.82785  1.0000
  H   H361      1.0  0.23261  0.59375  0.79316  1.0000
  H   H362      1.0  0.20825  0.73558  0.97399  1.0000
  H   H363      1.0  0.00206  0.52073  0.58423  1.0000
  H   H364      1.0  0.07172  0.50898  0.53456  1.0000
  H   H365      1.0  0.09513  0.50424  0.67592  1.0000
  H   H366      1.0  0.15498  0.59939  0.97161  1.0000
  C   C210      1.0  0.20437  0.68851  0.98399  1.0000
  H   H367      1.0  0.00267  0.62411  0.74456  1.0000
  H   H368      1.0  0.05741  0.51479  0.49463  1.0000
  H   H369      1.0  0.00379  0.61967  0.70730  1.0000
  H   H370      1.0  0.10863  0.50142  0.87554  1.0000
  C   C211      1.0  0.14729  0.61948  0.97960  1.0000
  C   C212      1.0  0.16602  0.49937  0.98505  1.0000
  C   C213      1.0  0.00123  0.61448  0.72961  1.0000
  C   C214      1.0  0.99365  0.51529  0.67711  1.0000
  H   H371      1.0  0.01213  0.50043  0.59738  1.0000
  H   H372      1.0  0.12808  0.49571  0.96127  1.0000
  H   H373      1.0  0.34235  0.49446  0.01151  1.0000
  H   H374      1.0  0.42681  0.42094  0.42614  1.0000
  Fe  Fe33      1.0  0.39686  0.45628  0.33061  1.0000
  S   S65       1.0  0.37216  0.45378  0.34911  1.0000
  S   S66       1.0  0.40305  0.43384  0.32060  1.0000
  Fe  Fe34      1.0  0.37383  0.47616  0.32181  1.0000
  H   H375      1.0  0.36539  0.46459  0.08976  1.0000
  Fe  Fe35      1.0  0.38488  0.46982  0.38230  1.0000
  S   S67       1.0  0.37649  0.46229  0.42897  1.0000
  S   S68       1.0  0.39740  0.47714  0.30033  1.0000
  S   S69       1.0  0.40931  0.47123  0.36491  1.0000
  Fe  Fe36      1.0  0.47445  0.40017  0.35706  1.0000
  S   S70       1.0  0.46016  0.37483  0.34935  1.0000
  S   S71       1.0  0.46761  0.42309  0.35768  1.0000
  S   S72       1.0  0.35304  0.48198  0.30121  1.0000
  Fe  Fe37      1.0  0.48257  0.37328  0.32539  1.0000
  C   C215      1.0  0.34779  0.48885  0.10896  1.0000
  Fe  Fe38      1.0  0.47080  0.36827  0.38922  1.0000
  S   S73       1.0  0.45694  0.35170  0.42667  1.0000
  C   C216      1.0  0.40226  0.48015  0.45786  1.0000
  H   H376      1.0  0.35455  0.48565  0.41852  1.0000
  C   C217      1.0  0.41586  0.39751  0.41217  1.0000
  H   H377      1.0  0.48507  0.18325  0.03746  1.0000
  Fe  Fe39      1.0  0.46327  0.06192  0.35335  1.0000
  S   S74       1.0  0.45577  0.03661  0.33915  1.0000
  S   S75       1.0  0.47041  0.08606  0.32659  1.0000
  Fe  Fe40      1.0  0.46203  0.05025  0.41793  1.0000
  S   S76       1.0  0.45470  0.02445  0.40772  1.0000
  C   C218      1.0  0.45749  0.33949  0.48061  1.0000
  Fe  Fe41      1.0  0.47259  0.03231  0.37059  1.0000
  Fe  Fe42      1.0  0.43830  0.03065  0.37754  1.0000
  S   S77       1.0  0.41267  0.01419  0.37912  1.0000
  S   S78       1.0  0.48124  0.05774  0.38240  1.0000
  S   S79       1.0  0.44436  0.05631  0.39002  1.0000
  H   H378      1.0  0.43777  0.05023  0.48140  1.0000
  H   H379      1.0  0.48749  0.34318  0.43791  1.0000
  H   H380      1.0  0.47666  0.22936  0.07302  1.0000
  H   H381      1.0  0.39264  0.43432  0.47136  1.0000
  C   C219      1.0  0.47682  0.18975  0.09266  1.0000
  H   H382      1.0  0.40808  0.07081  0.24741  1.0000
  S   S80       1.0  0.48998  0.01867  0.36403  1.0000
  H   H383      1.0  0.35728  0.45375  0.05945  1.0000
  C   C220      1.0  0.47606  0.09370  0.29024  1.0000
  S   S81       1.0  0.38435  0.49191  0.35699  1.0000
  H   H384      1.0  0.41024  0.39174  0.39312  1.0000
  H   H385      1.0  0.33285  0.45780  0.06543  1.0000
  H   H386      1.0  0.46316  0.17481  0.12905  1.0000
  H   H387      1.0  0.42109  0.46116  0.42202  1.0000
  H   H388      1.0  0.43240  0.03209  0.29286  1.0000
  C   C221      1.0  0.37528  0.41519  0.39383  1.0000
  H   H389      1.0  0.40657  0.41725  0.46002  1.0000
  C   C222      1.0  0.40980  0.48563  0.48291  1.0000
  C   C223      1.0  0.32161  0.47851  0.08962  1.0000
  H   H390      1.0  0.36757  0.41058  0.41357  1.0000
  C   C224      1.0  0.34138  0.46494  0.08022  1.0000
  C   C225      1.0  0.47497  0.08375  0.26754  1.0000
  H   H391      1.0  0.47547  0.48881  0.37944  1.0000
  C   C226      1.0  0.47031  0.49423  0.36214  1.0000
  H   H392      1.0  0.39703  0.44242  0.41137  1.0000
  C   C227      1.0  0.36348  0.49014  0.24395  1.0000
  H   H393      1.0  0.36858  0.40895  0.37607  1.0000
  C   C228      1.0  0.46591  0.36838  0.47608  1.0000
  N   N16       1.0  0.33923  0.48107  0.08374  1.0000
  H   H394      1.0  0.37702  0.42808  0.38925  1.0000
  H   H395      1.0  0.43265  0.44803  0.41682  1.0000
  H   H396      1.0  0.33942  0.47431  0.02434  1.0000
  C   C229      1.0  0.42139  0.43120  0.32952  1.0000
  C   C230      1.0  0.43369  0.44369  0.33944  1.0000
  C   C231      1.0  0.44781  0.44101  0.34768  1.0000
  C   C232      1.0  0.44983  0.42585  0.34597  1.0000
  C   C233      1.0  0.43759  0.41338  0.33583  1.0000
  C   C234      1.0  0.42345  0.41607  0.32760  1.0000
  H   H397      1.0  0.43234  0.45542  0.34062  1.0000
  H   H398      1.0  0.45725  0.45072  0.35536  1.0000
  H   H399      1.0  0.43903  0.40168  0.33434  1.0000
  H   H400      1.0  0.41403  0.40636  0.31983  1.0000
  H   H401      1.0  0.44789  0.47574  0.37475  1.0000
  C   C235      1.0  0.46058  0.35362  0.46340  1.0000
  N   N17       1.0  0.40288  0.42011  0.41532  1.0000
  H   H402      1.0  0.48321  0.18512  0.13637  1.0000
  H   H403      1.0  0.32400  0.48367  0.03033  1.0000
  H   H404      1.0  0.36492  0.47470  0.05561  1.0000
  C   C236      1.0  0.38706  0.46879  0.45968  1.0000
  H   H405      1.0  0.31452  0.45693  0.11954  1.0000
  C   C237      1.0  0.48544  0.11708  0.25559  1.0000
  H   H406      1.0  0.47121  0.07092  0.27180  1.0000
  C   C238      1.0  0.47867  0.09041  0.23913  1.0000
  H   H407      1.0  0.40898  0.39124  0.43188  1.0000
  C   C239      1.0  0.33701  0.48550  0.02956  1.0000
  H   H408      1.0  0.31939  0.47570  0.13690  1.0000
  S   S82       1.0  0.47147  0.05783  0.46138  1.0000
  C   C240      1.0  0.39647  0.41534  0.44583  1.0000
  H   H409      1.0  0.34681  0.47981  0.12689  1.0000
  C   C241      1.0  0.38564  0.42443  0.45881  1.0000
  H   H410      1.0  0.42785  0.39590  0.41210  1.0000
  C   C242      1.0  0.47660  0.22435  0.09510  1.0000
  H   H411      1.0  0.46586  0.19085  0.08324  1.0000
  C   C243      1.0  0.40729  0.43789  0.40826  1.0000
  H   H412      1.0  0.47831  0.17859  0.08453  1.0000
  H   H413      1.0  0.40807  0.48492  0.43718  1.0000
  S   S83       1.0  0.48767  0.11474  0.19617  1.0000
  H   H414      1.0  0.49101  0.36080  0.22089  1.0000
  C   C244      1.0  0.47293  0.18635  0.12507  1.0000
  H   H415      1.0  0.44909  0.49448  0.38878  1.0000
  H   H416      1.0  0.44545  0.49117  0.35153  1.0000
  H   H417      1.0  0.30117  0.46848  0.11987  1.0000
  N   N18       1.0  0.41855  0.05703  0.29831  1.0000
  C   C245      1.0  0.40637  0.05006  0.27709  1.0000
  C   C246      1.0  0.41419  0.04628  0.32537  1.0000
  C   C247      1.0  0.43509  0.05792  0.28725  1.0000
  C   C248      1.0  0.41844  0.07377  0.30339  1.0000
  C   C249      1.0  0.40943  0.05872  0.24710  1.0000
  C   C250      1.0  0.39984  0.04752  0.34396  1.0000
  C   C251      1.0  0.43684  0.04221  0.27657  1.0000
  C   C252      1.0  0.42960  0.08252  0.32596  1.0000
  H   H418      1.0  0.40514  0.03723  0.27446  1.0000
  H   H419      1.0  0.39430  0.05000  0.28504  1.0000
  H   H420      1.0  0.42442  0.04832  0.33918  1.0000
  H   H421      1.0  0.41135  0.03345  0.32058  1.0000
  H   H422      1.0  0.43971  0.06744  0.26975  1.0000
  H   H423      1.0  0.44370  0.06165  0.30409  1.0000
  H   H424      1.0  0.42219  0.08161  0.28343  1.0000
  H   H425      1.0  0.40614  0.07401  0.30892  1.0000
  H   H426      1.0  0.40035  0.05177  0.23305  1.0000
  H   H427      1.0  0.46804  0.37939  0.46308  1.0000
  H   H428      1.0  0.41100  0.44059  0.38520  1.0000
  H   H429      1.0  0.38897  0.04548  0.33195  1.0000
  H   H430      1.0  0.39699  0.03814  0.36177  1.0000
  H   H431      1.0  0.40265  0.05919  0.35383  1.0000
  C   C253      1.0  0.42083  0.44849  0.42502  1.0000
  H   H432      1.0  0.44970  0.04389  0.27159  1.0000
  H   H433      1.0  0.43072  0.03894  0.25665  1.0000
  H   H434      1.0  0.44031  0.09167  0.31538  1.0000
  H   H435      1.0  0.43383  0.07456  0.34015  1.0000
  H   H436      1.0  0.42329  0.08875  0.33988  1.0000
  H   H437      1.0  0.39669  0.41351  0.37267  1.0000
  H   H438      1.0  0.48228  0.11831  0.30117  1.0000
  H   H439      1.0  0.47725  0.23418  0.10943  1.0000
  C   C254      1.0  0.39108  0.41132  0.39477  1.0000
  H   H440      1.0  0.31449  0.47183  0.07267  1.0000
  C   C255      1.0  0.35199  0.48957  0.26578  1.0000
  C   C256      1.0  0.41791  0.41558  0.41047  1.0000
  H   H441      1.0  0.47753  0.08254  0.22182  1.0000
  H   H442      1.0  0.38753  0.39816  0.39953  1.0000
  H   H443      1.0  0.42127  0.05962  0.23698  1.0000
  H   H444      1.0  0.37665  0.41618  0.47439  1.0000
  H   H445      1.0  0.31927  0.49021  0.08947  1.0000
  H   H446      1.0  0.42388  0.42050  0.38921  1.0000
  H   H447      1.0  0.42514  0.99960  0.33318  1.0000
  H   H448      1.0  0.33814  0.45750  0.10067  1.0000
  C   C257      1.0  0.35827  0.46473  0.07095  1.0000
  C   C258      1.0  0.48399  0.10713  0.23281  1.0000
  H   H449      1.0  0.47903  0.20871  0.04683  1.0000
  H   H450      1.0  0.38977  0.40230  0.44833  1.0000
  C   C259      1.0  0.48135  0.11041  0.28395  1.0000
  H   H451      1.0  0.41910  0.44519  0.44820  1.0000
  H   H452      1.0  0.49034  0.16425  0.00628  1.0000
  S   S84       1.0  0.48480  0.36588  0.27948  1.0000
  C   C260      1.0  0.34456  0.49212  0.05718  1.0000
  H   H453      1.0  0.37887  0.42915  0.44351  1.0000
  C   C261      1.0  0.49087  0.20771  0.05198  1.0000
  H   H454      1.0  0.47220  0.48818  0.34260  1.0000
  H   H455      1.0  0.37350  0.48604  0.24854  1.0000
  C   C262      1.0  0.31401  0.46935  0.11819  1.0000
  C   C263      1.0  0.45217  0.48888  0.36971  1.0000
  S   S85       1.0  0.48365  0.39346  0.39805  1.0000
  H   H456      1.0  0.45321  0.32805  0.47124  1.0000
  H   H457      1.0  0.46873  0.19567  0.13475  1.0000
  H   H458      1.0  0.46512  0.21482  0.10067  1.0000
  H   H459      1.0  0.37287  0.49199  0.09396  1.0000
  H   H460      1.0  0.48939  0.12994  0.25130  1.0000
  Fe  Fe43      1.0  0.40765  0.49175  0.33666  1.0000
  H   H461      1.0  0.42141  0.49466  0.48122  1.0000
  H   H462      1.0  0.33003  0.49453  0.27592  1.0000
  N   N19       1.0  0.49121  0.20400  0.08348  1.0000
  C   C264      1.0  0.33902  0.49493  0.25926  1.0000
  C   C265      1.0  0.49116  0.21852  0.09910  1.0000
  H   H463      1.0  0.36794  0.45389  0.48840  1.0000
  C   C266      1.0  0.37971  0.46268  0.48675  1.0000
  Fe  Fe44      1.0  0.42586  0.47794  0.63891  1.0000
  H   H464      1.0  0.46199  0.12806  0.59947  1.0000
  Fe  Fe45      1.0  0.39783  0.44931  0.63053  1.0000
  S   S86       1.0  0.38326  0.46422  0.61268  1.0000
  S   S87       1.0  0.38956  0.42220  0.63574  1.0000
  Fe  Fe46      1.0  0.40609  0.47802  0.58730  1.0000
  C   C267      1.0  0.42199  0.07788  0.65121  1.0000
  Fe  Fe47      1.0  0.39218  0.48042  0.64868  1.0000
  H   H465      1.0  0.27316  0.47520  0.76745  1.0000
  S   S88       1.0  0.41974  0.46195  0.60287  1.0000
  S   S89       1.0  0.40482  0.46426  0.66822  1.0000
  Fe  Fe48      1.0  0.45769  0.37973  0.64645  1.0000
  S   S90       1.0  0.46330  0.35679  0.64023  1.0000
  S   S91       1.0  0.43323  0.37885  0.66435  1.0000
  Fe  Fe49      1.0  0.47440  0.36887  0.59757  1.0000
  C   C268      1.0  0.48044  0.00180  0.71172  1.0000
  C   C269      1.0  0.30725  0.49456  0.76890  1.0000
  N   N20       1.0  0.29551  0.48147  0.78788  1.0000
  S   S92       1.0  0.46734  0.39092  0.60307  1.0000
  C   C270      1.0  0.44892  0.12350  0.59822  1.0000
  H   H466      1.0  0.44208  0.43644  0.74580  1.0000
  C   C271      1.0  0.44485  0.05096  0.49974  1.0000
  Fe  Fe50      1.0  0.46175  0.05890  0.68401  1.0000
  S   S93       1.0  0.46684  0.03613  0.69673  1.0000
  S   S94       1.0  0.47048  0.08354  0.70398  1.0000
  Fe  Fe51      1.0  0.44855  0.04521  0.62699  1.0000
  S   S95       1.0  0.45288  0.02176  0.63587  1.0000
  S   S96       1.0  0.43707  0.04933  0.58616  1.0000
  Fe  Fe52      1.0  0.44309  0.02250  0.68030  1.0000
  H   H467      1.0  0.47813  0.35031  0.73460  1.0000
  S   S97       1.0  0.43692  0.04527  0.67090  1.0000
  C   C272      1.0  0.44659  0.05047  0.55164  1.0000
  C   C273      1.0  0.43756  0.04937  0.52752  1.0000
  C   C274      1.0  0.47038  0.05513  0.51996  1.0000
  H   H468      1.0  0.43989  0.36920  0.57224  1.0000
  H   H469      1.0  0.31404  0.48985  0.75317  1.0000
  C   C275      1.0  0.46304  0.05318  0.54772  1.0000
  H   H470      1.0  0.42484  0.04733  0.53030  1.0000
  H   H471      1.0  0.46107  0.43181  0.64686  1.0000
  H   H472      1.0  0.44930  0.45600  0.72998  1.0000
  H   H473      1.0  0.47013  0.05406  0.56605  1.0000
  H   H474      1.0  0.43311  0.34868  0.54652  1.0000
  C   C276      1.0  0.44299  0.40950  0.72751  1.0000
  H   H475      1.0  0.44493  0.13420  0.60037  1.0000
  C   C277      1.0  0.40962  0.35354  0.55291  1.0000
  S   S98       1.0  0.46888  0.35342  0.55951  1.0000
  C   C278      1.0  0.48070  0.08168  0.95993  1.0000
  H   H476      1.0  0.46908  0.13180  0.91917  1.0000
  H   H477      1.0  0.45009  0.07632  0.61794  1.0000
  C   C279      1.0  0.47644  0.09233  0.73717  1.0000
  C   C280      1.0  0.47248  0.08365  0.76363  1.0000
  Fe  Fe53      1.0  0.48691  0.36867  0.65877  1.0000
  H   H478      1.0  0.46595  0.07100  0.76446  1.0000
  S   S99       1.0  0.48020  0.39055  0.66863  1.0000
  H   H479      1.0  0.41560  0.35526  0.62500  1.0000
  H   H480      1.0  0.37667  0.36639  0.59721  1.0000
  H   H481      1.0  0.26882  0.48514  0.84284  1.0000
  H   H482      1.0  0.44242  0.39709  0.72274  1.0000
  H   H483      1.0  0.39992  0.34191  0.55707  1.0000
  C   C281      1.0  0.46554  0.35449  0.52259  1.0000
  C   C282      1.0  0.46826  0.36882  0.50576  1.0000
  H   H484      1.0  0.45478  0.44923  0.63888  1.0000
  H   H485      1.0  0.46922  0.00365  0.72028  1.0000
  C   C283      1.0  0.47385  0.11221  0.94509  1.0000
  C   C284      1.0  0.46013  0.33993  0.50971  1.0000
  H   H486      1.0  0.42612  0.39687  0.56563  1.0000
  H   H487      1.0  0.46655  0.44800  0.76630  1.0000
  H   H488      1.0  0.41843  0.43182  0.72819  1.0000
  C   C285      1.0  0.41355  0.34935  0.60443  1.0000
  H   H489      1.0  0.48112  0.11222  0.96381  1.0000
  C   C286      1.0  0.36953  0.48475  0.72964  1.0000
  H   H490      1.0  0.48477  0.26970  0.74405  1.0000
  C   C287      1.0  0.28294  0.47005  0.77162  1.0000
  H   H491      1.0  0.44602  0.11893  0.57687  1.0000
  H   H492      1.0  0.45759  0.10665  0.90248  1.0000
  H   H493      1.0  0.37544  0.47584  0.72647  1.0000
  H   H494      1.0  0.36342  0.47788  0.77442  1.0000
  C   C288      1.0  0.47660  0.09143  0.78922  1.0000
  S   S100      1.0  0.45069  0.48337  0.65376  1.0000
  C   C289      1.0  0.40254  0.41082  0.64222  1.0000
  C   C290      1.0  0.41813  0.41484  0.62959  1.0000
  C   C291      1.0  0.42777  0.40501  0.63541  1.0000
  C   C292      1.0  0.42187  0.39136  0.65430  1.0000
  C   C293      1.0  0.40627  0.38736  0.66635  1.0000
  C   C294      1.0  0.39663  0.39686  0.66005  1.0000
  H   H495      1.0  0.42269  0.42546  0.61532  1.0000
  H   H496      1.0  0.43976  0.40814  0.62574  1.0000
  H   H497      1.0  0.40155  0.37682  0.68079  1.0000
  H   H498      1.0  0.38457  0.39353  0.66958  1.0000
  C   C295      1.0  0.40233  0.47971  0.51004  1.0000
  C   C296      1.0  0.38731  0.46804  0.51179  1.0000
  C   C297      1.0  0.46913  0.10477  0.89595  1.0000
  H   H499      1.0  0.31310  0.48115  0.81825  1.0000
  H   H500      1.0  0.40560  0.37695  0.60747  1.0000
  C   C298      1.0  0.45795  0.49420  0.70630  1.0000
  H   H501      1.0  0.38137  0.46343  0.53246  1.0000
  N   N21       1.0  0.41400  0.36150  0.58047  1.0000
  C   C299      1.0  0.48927  0.11657  0.76245  1.0000
  H   H502      1.0  0.45466  0.08043  0.88642  1.0000
  C   C300      1.0  0.48490  0.10885  0.73690  1.0000
  H   H503      1.0  0.48898  0.13677  0.93175  1.0000
  H   H504      1.0  0.41405  0.08477  0.64456  1.0000
  C   C301      1.0  0.43476  0.43933  0.68927  1.0000
  H   H505      1.0  0.47683  0.08687  0.97889  1.0000
  N   N22       1.0  0.44856  0.09895  0.63153  1.0000
  H   H506      1.0  0.47318  0.08456  0.80941  1.0000
  C   C302      1.0  0.41894  0.42947  0.70533  1.0000
  S   S101      1.0  0.41170  0.48810  0.54087  1.0000
  C   C303      1.0  0.36271  0.48597  0.75690  1.0000
  H   H507      1.0  0.45961  0.09475  0.85665  1.0000
  C   C304      1.0  0.45142  0.44418  0.73023  1.0000
  H   H508      1.0  0.43695  0.11688  0.64029  1.0000
  C   C305      1.0  0.46368  0.44837  0.68180  1.0000
  H   H509      1.0  0.28528  0.47289  0.72476  1.0000
  C   C306      1.0  0.28734  0.48950  0.80857  1.0000
  H   H510      1.0  0.47057  0.09789  0.64839  1.0000
  H   H511      1.0  0.45791  0.32879  0.52237  1.0000
  C   C307      1.0  0.30455  0.47269  0.80507  1.0000
  H   H512      1.0  0.41825  0.33925  0.52340  1.0000
  C   C308      1.0  0.48873  0.34808  0.74186  1.0000
  C   C309      1.0  0.47626  0.13003  0.93700  1.0000
  H   H513      1.0  0.26760  0.46769  0.82416  1.0000
  H   H514      1.0  0.43508  0.45211  0.68812  1.0000
  C   C310      1.0  0.43017  0.37413  0.57813  1.0000
  C   C311      1.0  0.38463  0.35882  0.59570  1.0000
  H   H515      1.0  0.43310  0.37902  0.59932  1.0000
  N   N23       1.0  0.44988  0.43779  0.70096  1.0000
  C   C312      1.0  0.31401  0.46362  0.78835  1.0000
  H   H516      1.0  0.40161  0.34011  0.60735  1.0000
  C   C313      1.0  0.46509  0.10705  0.64096  1.0000
  C   C314      1.0  0.47298  0.08542  0.93281  1.0000
  H   H517      1.0  0.46114  0.12840  0.65891  1.0000
  H   H518      1.0  0.48312  0.05746  0.51720  1.0000
  H   H519      1.0  0.49110  0.01927  0.74205  1.0000
  H   H520      1.0  0.27723  0.45865  0.78472  1.0000
  C   C315      1.0  0.28836  0.46567  0.74220  1.0000
  H   H521      1.0  0.41641  0.07088  0.67134  1.0000
  H   H522      1.0  0.45979  0.08096  0.93747  1.0000
  H   H523      1.0  0.30593  0.45305  0.77887  1.0000
  H   H524      1.0  0.38024  0.35031  0.57903  1.0000
  H   H525      1.0  0.32274  0.47134  0.77192  1.0000
  H   H526      1.0  0.28147  0.45304  0.73888  1.0000
  H   H527      1.0  0.42465  0.33243  0.62146  1.0000
  H   H528      1.0  0.42732  0.38479  0.53594  1.0000
  H   H529      1.0  0.45052  0.41266  0.74589  1.0000
  C   C316      1.0  0.43886  0.08888  0.65693  1.0000
  H   H530      1.0  0.32111  0.45901  0.80344  1.0000
  C   C317      1.0  0.46619  0.11874  0.66478  1.0000
  H   H531      1.0  0.42228  0.06902  0.63535  1.0000
  H   H532      1.0  0.47544  0.07762  0.91655  1.0000
  H   H533      1.0  0.46448  0.46121  0.68295  1.0000
  H   H534      1.0  0.46050  0.11246  0.68537  1.0000
  S   S102      1.0  0.47266  0.06022  0.63909  1.0000
  H   H535      1.0  0.43806  0.08451  0.59686  1.0000
  C   C318      1.0  0.46769  0.44643  0.74310  1.0000
  H   H536      1.0  0.44530  0.08104  0.66638  1.0000
  H   H537      1.0  0.46273  0.42041  0.69773  1.0000
  H   H538      1.0  0.40904  0.43279  0.69579  1.0000
  H   H539      1.0  0.47444  0.08671  0.86892  1.0000
  H   H540      1.0  0.29635  0.46346  0.82037  1.0000
  C   C319      1.0  0.46330  0.09353  0.58560  1.0000
  H   H541      1.0  0.47908  0.29982  0.80072  1.0000
  H   H542      1.0  0.30109  0.46657  0.73934  1.0000
  H   H543      1.0  0.48812  0.11578  0.71675  1.0000
  H   H544      1.0  0.43712  0.09648  0.67422  1.0000
  H   H545      1.0  0.40124  0.37847  0.57126  1.0000
  C   C320      1.0  0.48236  0.28929  0.79384  1.0000
  H   H546      1.0  0.38336  0.35225  0.61682  1.0000
  H   H547      1.0  0.48037  0.29266  0.72758  1.0000
  H   H548      1.0  0.44418  0.41483  0.68233  1.0000
  N   N24       1.0  0.47812  0.10274  0.92179  1.0000
  H   H549      1.0  0.48351  0.00981  0.69201  1.0000
  H   H550      1.0  0.42223  0.33132  0.58424  1.0000
  H   H551      1.0  0.47594  0.11574  0.88248  1.0000
  H   H552      1.0  0.47097  0.00035  0.65466  1.0000
  H   H553      1.0  0.47244  0.13553  0.95567  1.0000
  H   H554      1.0  0.43070  0.40913  0.73395  1.0000
  H   H555      1.0  0.44490  0.39539  0.55295  1.0000
  C   C321      1.0  0.45027  0.42075  0.70083  1.0000
  Fe  Fe54      1.0  0.47596  0.03669  0.65145  1.0000
  C   C322      1.0  0.44027  0.11070  0.62201  1.0000
  H   H556      1.0  0.42854  0.10427  0.61373  1.0000
  C   C323      1.0  0.48501  0.10796  0.78895  1.0000
  C   C324      1.0  0.44927  0.08781  0.60838  1.0000
  H   H557      1.0  0.46113  0.10668  0.95306  1.0000
  H   H558      1.0  0.47467  0.09347  0.59466  1.0000
  H   H559      1.0  0.40469  0.36109  0.53875  1.0000
  H   H560      1.0  0.28291  0.47496  0.84931  1.0000
  H   H561      1.0  0.40569  0.99601  0.66457  1.0000
  C   C325      1.0  0.43202  0.38852  0.55679  1.0000
  H   H562      1.0  0.47200  0.43603  0.74034  1.0000
  C   C326      1.0  0.46350  0.44473  0.64998  1.0000
  H   H563      1.0  0.46465  0.10544  0.57534  1.0000
  C   C327      1.0  0.42539  0.33980  0.60134  1.0000
  H   H564      1.0  0.47675  0.06850  0.96465  1.0000
  C   C328      1.0  0.40193  0.36976  0.58864  1.0000
  H   H565      1.0  0.43796  0.34752  0.59797  1.0000
  H   H566      1.0  0.41636  0.41652  0.70242  1.0000
  H   H567      1.0  0.47687  0.45742  0.73351  1.0000
  H   H568      1.0  0.47519  0.44746  0.68891  1.0000
  C   C329      1.0  0.46436  0.09076  0.87612  1.0000
  H   H569      1.0  0.47233  0.38017  0.51546  1.0000
  H   H570      1.0  0.43358  0.43563  0.66710  1.0000
  H   H571      1.0  0.46113  0.08493  0.56852  1.0000
  H   H572      1.0  0.47540  0.45110  0.63922  1.0000
  C   C330      1.0  0.27608  0.47846  0.83237  1.0000
  S   S103      1.0  0.43057  0.99857  0.70487  1.0000
  H   H573      1.0  0.47824  0.33933  0.78427  1.0000
  H   H574      1.0  0.45922  0.48264  0.71164  1.0000
  H   H575      1.0  0.42813  0.35999  0.51742  1.0000
  S   S104      1.0  0.48914  0.11723  0.82229  1.0000
  H   H576      1.0  0.48799  0.42273  0.66676  1.0000
  H   H577      1.0  0.48870  0.26231  0.79006  1.0000
  C   C331      1.0  0.42324  0.35039  0.53462  1.0000
  H   H578      1.0  0.47421  0.28381  0.77731  1.0000
  H   H579      1.0  0.47337  0.11393  0.62317  1.0000
  H   H580      1.0  0.49055  0.38748  0.75004  1.0000
  C   C332      1.0  0.48883  0.34185  0.77010  1.0000
  H   H581      1.0  0.48027  0.28081  0.81287  1.0000
  C   C333      1.0  0.46135  0.05404  0.49579  1.0000
  S   S105      1.0  0.37779  0.49469  0.67183  1.0000
  Fe  Fe55      1.0  0.49032  0.40008  0.62432  1.0000
  H   H582      1.0  0.47897  0.12455  0.66855  1.0000
  C   C334      1.0  0.36872  0.49505  0.70660  1.0000
  S   S106      1.0  0.41417  0.49530  0.62174  1.0000
  H   H583      1.0  0.49152  0.48130  0.64380  1.0000
  S   S107      1.0  0.44735  0.54526  0.44502  1.0000
  H   H584      1.0  0.34696  0.83308  0.48776  1.0000
  Fe  Fe56      1.0  0.43776  0.66877  0.21504  1.0000
  S   S108      1.0  0.45989  0.66309  0.20020  1.0000
  S   S109      1.0  0.43657  0.69184  0.23439  1.0000
  Fe  Fe57      1.0  0.41604  0.63528  0.20288  1.0000
  S   S110      1.0  0.43655  0.62758  0.18679  1.0000
  S   S111      1.0  0.39078  0.61801  0.20841  1.0000
  Fe  Fe58      1.0  0.44918  0.63910  0.22486  1.0000
  C   C335      1.0  0.41120  0.97450  0.33670  1.0000
  Fe  Fe59      1.0  0.44537  0.65195  0.16371  1.0000
  S   S112      1.0  0.45725  0.65770  0.11861  1.0000
  S   S113      1.0  0.42797  0.64546  0.24209  1.0000
  S   S114      1.0  0.42388  0.65899  0.17734  1.0000
  Fe  Fe60      1.0  0.45514  0.78463  0.19285  1.0000
  S   S115      1.0  0.46789  0.80920  0.17145  1.0000
  S   S116      1.0  0.46755  0.76553  0.19106  1.0000
  Fe  Fe61      1.0  0.42578  0.79359  0.20852  1.0000
  S   S117      1.0  0.43624  0.81843  0.18858  1.0000
  S   S118      1.0  0.40155  0.78695  0.23173  1.0000
  Fe  Fe62      1.0  0.44450  0.80678  0.15178  1.0000
  S   S119      1.0  0.43799  0.81403  0.10752  1.0000
  Fe  Fe63      1.0  0.45862  0.81892  0.21018  1.0000
  S   S120      1.0  0.47219  0.84256  0.23045  1.0000
  S   S121      1.0  0.43243  0.78178  0.17091  1.0000
  S   S122      1.0  0.44744  0.79446  0.23245  1.0000
  H   H585      1.0  0.28110  0.85043  0.19567  1.0000
  S   S123      1.0  0.32695  0.54222  0.16316  1.0000
  Fe  Fe64      1.0  0.31970  0.52294  0.08978  1.0000
  S   S124      1.0  0.31496  0.54586  0.09857  1.0000
  H   H586      1.0  0.43862  0.99268  0.44098  1.0000
  Fe  Fe65      1.0  0.33819  0.55258  0.11993  1.0000
  S   S125      1.0  0.35914  0.57502  0.10889  1.0000
  Fe  Fe66      1.0  0.30382  0.53326  0.14075  1.0000
  S   S126      1.0  0.28061  0.53755  0.15628  1.0000
  S   S127      1.0  0.34367  0.53049  0.10789  1.0000
  Fe  Fe67      1.0  0.32358  0.77841  0.16711  1.0000
  S   S128      1.0  0.33154  0.80490  0.15777  1.0000
  S   S129      1.0  0.34170  0.76594  0.15689  1.0000
  Fe  Fe68      1.0  0.28948  0.77683  0.18329  1.0000
  S   S130      1.0  0.29558  0.80375  0.17617  1.0000
  S   S131      1.0  0.26284  0.76313  0.19278  1.0000
  Fe  Fe69      1.0  0.30877  0.80071  0.13593  1.0000
  S   S132      1.0  0.30737  0.81444  0.09446  1.0000
  Fe  Fe70      1.0  0.31805  0.80585  0.19917  1.0000
  S   S133      1.0  0.33439  0.82605  0.22417  1.0000
  S   S134      1.0  0.30177  0.77404  0.14198  1.0000
  S   S135      1.0  0.31100  0.77909  0.20946  1.0000
  S   S136      1.0  0.47390  0.93678  0.36741  1.0000
  Fe  Fe71      1.0  0.35706  0.88452  0.35962  1.0000
  S   S137      1.0  0.36306  0.87656  0.40285  1.0000
  S   S138      1.0  0.33760  0.86641  0.33590  1.0000
  Fe  Fe72      1.0  0.37986  0.91911  0.36456  1.0000
  S   S139      1.0  0.38728  0.91345  0.40760  1.0000
  S   S140      1.0  0.39360  0.94267  0.33975  1.0000
  Fe  Fe73      1.0  0.38823  0.89083  0.38917  1.0000
  S   S141      1.0  0.40884  0.88289  0.40104  1.0000
  Fe  Fe74      1.0  0.36156  0.89977  0.41854  1.0000
  H   H587      1.0  0.38667  0.52818  0.26182  1.0000
  S   S142      1.0  0.38274  0.89709  0.34503  1.0000
  S   S143      1.0  0.35357  0.90708  0.37636  1.0000
  C   C336      1.0  0.39896  0.96228  0.35200  1.0000
  H   H588      1.0  0.41717  0.97169  0.31804  1.0000
  C   C337      1.0  0.45521  0.92316  0.37857  1.0000
  C   C338      1.0  0.45362  0.91309  0.40310  1.0000
  C   C339      1.0  0.43931  0.90075  0.41009  1.0000
  C   C340      1.0  0.42628  0.89902  0.39342  1.0000
  C   C341      1.0  0.42743  0.90995  0.37023  1.0000
  C   C342      1.0  0.44199  0.92185  0.36248  1.0000
  H   H589      1.0  0.46345  0.91473  0.41668  1.0000
  H   H590      1.0  0.43835  0.89257  0.42846  1.0000
  H   H591      1.0  0.41729  0.90881  0.35751  1.0000
  H   H592      1.0  0.44308  0.92974  0.34367  1.0000
  C   C343      1.0  0.33512  0.83645  0.25624  1.0000
  C   C344      1.0  0.32169  0.83431  0.27485  1.0000
  C   C345      1.0  0.32275  0.84352  0.29900  1.0000
  C   C346      1.0  0.33724  0.85491  0.30525  1.0000
  C   C347      1.0  0.35070  0.85696  0.28673  1.0000
  C   C348      1.0  0.34961  0.84786  0.26242  1.0000
  H   H593      1.0  0.31045  0.82563  0.27061  1.0000
  H   H594      1.0  0.31223  0.84177  0.31306  1.0000
  H   H595      1.0  0.36193  0.86565  0.29105  1.0000
  H   H596      1.0  0.36010  0.84971  0.24828  1.0000
  C   C349      1.0  0.30606  0.80553  0.06116  1.0000
  C   C350      1.0  0.30524  0.81453  0.03611  1.0000
  S   S144      1.0  0.48593  0.90067  0.40045  1.0000
  H   H597      1.0  0.48343  0.53370  0.38062  1.0000
  C   C351      1.0  0.30412  0.78273  0.03267  1.0000
  C   C352      1.0  0.30561  0.78961  0.05923  1.0000
  H   H598      1.0  0.30558  0.82686  0.03735  1.0000
  H   H599      1.0  0.47065  0.53024  0.48691  1.0000
  H   H600      1.0  0.30371  0.77037  0.03148  1.0000
  H   H601      1.0  0.30639  0.78257  0.07820  1.0000
  C   C353      1.0  0.39117  0.96609  0.37589  1.0000
  H   H602      1.0  0.25805  0.56251  0.09154  1.0000
  H   H603      1.0  0.37764  0.78853  0.99545  1.0000
  H   H604      1.0  0.30832  0.86019  0.42979  1.0000
  H   H605      1.0  0.35112  0.50372  0.42799  1.0000
  H   H606      1.0  0.34206  0.85781  0.14771  1.0000
  C   C354      1.0  0.46784  0.61639  0.11950  1.0000
  C   C355      1.0  0.48524  0.84808  0.31345  1.0000
  C   C356      1.0  0.47120  0.51820  0.33325  1.0000
  C   C357      1.0  0.25537  0.51019  0.14671  1.0000
  C   C358      1.0  0.26021  0.52633  0.15293  1.0000
  C   C359      1.0  0.31721  0.84636  0.16552  1.0000
  C   C360      1.0  0.47731  0.60512  0.31885  1.0000
  C   C361      1.0  0.25035  0.71630  0.17197  1.0000
  C   C362      1.0  0.48145  0.63695  0.44081  1.0000
  H   H607      1.0  0.32480  0.87310  0.48365  1.0000
  H   H608      1.0  0.48798  0.61371  0.21908  1.0000
  H   H609      1.0  0.26635  0.54590  0.02021  1.0000
  H   H610      1.0  0.35304  0.77712  0.03191  1.0000
  C   C363      1.0  0.38486  0.78027  0.21127  1.0000
  C   C364      1.0  0.37012  0.78124  0.22175  1.0000
  C   C365      1.0  0.35681  0.77686  0.20516  1.0000
  C   C366      1.0  0.35803  0.77086  0.17848  1.0000
  C   C367      1.0  0.37262  0.76929  0.16842  1.0000
  C   C368      1.0  0.38611  0.77432  0.18454  1.0000
  H   H611      1.0  0.36908  0.78577  0.24249  1.0000
  H   H612      1.0  0.34559  0.77805  0.21312  1.0000
  H   H613      1.0  0.37364  0.76484  0.14763  1.0000
  H   H614      1.0  0.39748  0.77378  0.17615  1.0000
  C   C369      1.0  0.44426  0.81029  0.07256  1.0000
  C   C370      1.0  0.43663  0.81421  0.04893  1.0000
  C   C371      1.0  0.30456  0.88256  0.18867  1.0000
  C   C372      1.0  0.26472  0.76759  0.11096  1.0000
  C   C373      1.0  0.45675  0.80393  0.06762  1.0000
  H   H615      1.0  0.42700  0.81918  0.05239  1.0000
  N   N25       1.0  0.38451  0.52008  0.43679  1.0000
  H   H616      1.0  0.34746  0.86708  0.46963  1.0000
  C   C374      1.0  0.38215  0.60641  0.18027  1.0000
  C   C375      1.0  0.39089  0.60665  0.15465  1.0000
  C   C376      1.0  0.38374  0.59695  0.13292  1.0000
  C   C377      1.0  0.36783  0.58694  0.13665  1.0000
  C   C378      1.0  0.35911  0.58665  0.16232  1.0000
  C   C379      1.0  0.36625  0.59638  0.18401  1.0000
  H   H617      1.0  0.40316  0.61430  0.15163  1.0000
  H   H618      1.0  0.39067  0.59709  0.11336  1.0000
  H   H619      1.0  0.34680  0.57913  0.16531  1.0000
  H   H620      1.0  0.35941  0.59621  0.20376  1.0000
  C   C380      1.0  0.44774  0.65078  0.08704  1.0000
  H   H621      1.0  0.27669  0.77511  0.10180  1.0000
  S   S145      1.0  0.42691  0.51517  0.32893  1.0000
  C   C381      1.0  0.42632  0.63284  0.06245  1.0000
  C   C382      1.0  0.43312  0.63854  0.08796  1.0000
  H   H622      1.0  0.42715  0.63332  0.10832  1.0000
  C   C383      1.0  0.44557  0.71220  0.22182  1.0000
  C   C384      1.0  0.45535  0.71670  0.19663  1.0000
  C   C385      1.0  0.46195  0.73305  0.18739  1.0000
  C   C386      1.0  0.45853  0.74504  0.20278  1.0000
  C   C387      1.0  0.44874  0.74053  0.22794  1.0000
  C   C388      1.0  0.44245  0.72424  0.23750  1.0000
  H   H623      1.0  0.45793  0.70760  0.18440  1.0000
  H   H624      1.0  0.46969  0.73640  0.16813  1.0000
  H   H625      1.0  0.44634  0.74961  0.24044  1.0000
  H   H626      1.0  0.43509  0.72091  0.25720  1.0000
  H   H627      1.0  0.26476  0.56279  0.05510  1.0000
  H   H628      1.0  0.39587  0.60410  0.99155  1.0000
  H   H629      1.0  0.32735  0.50460  0.22673  1.0000
  C   C389      1.0  0.44087  0.53702  0.41309  1.0000
  C   C390      1.0  0.44410  0.54672  0.38780  1.0000
  C   C391      1.0  0.43978  0.53997  0.36189  1.0000
  C   C392      1.0  0.43178  0.52360  0.36141  1.0000
  C   C393      1.0  0.42812  0.51397  0.38684  1.0000
  C   C394      1.0  0.43289  0.52064  0.41266  1.0000
  H   H630      1.0  0.44978  0.55949  0.38821  1.0000
  H   H631      1.0  0.44251  0.54747  0.34226  1.0000
  H   H632      1.0  0.24413  0.77247  0.13256  1.0000
  H   H633      1.0  0.43072  0.51307  0.43213  1.0000
  C   C395      1.0  0.36188  0.52242  0.47227  1.0000
  H   H634      1.0  0.45764  0.60660  0.12990  1.0000
  H   H635      1.0  0.37854  0.63376  0.06932  1.0000
  H   H636      1.0  0.31071  0.81038  0.45119  1.0000
  C   C396      1.0  0.26080  0.51328  0.06765  1.0000
  H   H637      1.0  0.28190  0.54304  0.03960  1.0000
  C   C397      1.0  0.26213  0.77701  0.04846  1.0000
  H   H638      1.0  0.34961  0.52133  0.46613  1.0000
  H   H639      1.0  0.38332  0.49654  0.42383  1.0000
  H   H640      1.0  0.38162  0.95684  0.38767  1.0000
  S   S146      1.0  0.48697  0.61557  0.37258  1.0000
  C   C398      1.0  0.39807  0.52150  0.45592  1.0000
  C   C399      1.0  0.24851  0.53402  0.15617  1.0000
  H   H641      1.0  0.47276  0.63925  0.45646  1.0000
  H   H642      1.0  0.28720  0.52416  0.06555  1.0000
  H   H643      1.0  0.32029  0.83640  0.17665  1.0000
  N   N26       1.0  0.37684  0.55485  0.21445  1.0000
  C   C400      1.0  0.38392  0.56033  0.18446  1.0000
  C   C401      1.0  0.38269  0.56895  0.23262  1.0000
  C   C402      1.0  0.35887  0.54989  0.21378  1.0000
  C   C403      1.0  0.38221  0.54087  0.22399  1.0000
  C   C404      1.0  0.37709  0.54890  0.16093  1.0000
  C   C405      1.0  0.40094  0.57587  0.23403  1.0000
  C   C406      1.0  0.34923  0.54998  0.24188  1.0000
  C   C407      1.0  0.37793  0.53418  0.25517  1.0000
  H   H644      1.0  0.38243  0.57205  0.17801  1.0000
  H   H645      1.0  0.39703  0.56243  0.18308  1.0000
  H   H646      1.0  0.37765  0.56615  0.25492  1.0000
  H   H647      1.0  0.37842  0.57894  0.22480  1.0000
  H   H648      1.0  0.35535  0.55804  0.19850  1.0000
  H   H649      1.0  0.35411  0.53768  0.20585  1.0000
  H   H650      1.0  0.37697  0.53051  0.21096  1.0000
  H   H651      1.0  0.39529  0.54343  0.21968  1.0000
  H   H652      1.0  0.36432  0.54741  0.15827  1.0000
  H   H653      1.0  0.38352  0.55419  0.14020  1.0000
  H   H654      1.0  0.37869  0.53700  0.16468  1.0000
  H   H655      1.0  0.40363  0.58541  0.24946  1.0000
  H   H656      1.0  0.40629  0.56671  0.24159  1.0000
  H   H657      1.0  0.40683  0.58173  0.21328  1.0000
  H   H658      1.0  0.35082  0.56241  0.24787  1.0000
  H   H659      1.0  0.35209  0.54302  0.25976  1.0000
  H   H660      1.0  0.33632  0.54446  0.23867  1.0000
  H   H661      1.0  0.26471  0.72711  0.10764  1.0000
  H   H662      1.0  0.37877  0.54343  0.27059  1.0000
  C   C408      1.0  0.27008  0.53646  0.03173  1.0000
  C   C409      1.0  0.33254  0.87469  0.22539  1.0000
  H   H663      1.0  0.46280  0.80092  0.08544  1.0000
  C   C410      1.0  0.34875  0.50082  0.20940  1.0000
  C   C411      1.0  0.33873  0.52836  0.01105  1.0000
  C   C412      1.0  0.48073  0.51474  0.41211  1.0000
  H   H664      1.0  0.38164  0.54171  0.45251  1.0000
  C   C413      1.0  0.46919  0.63266  0.30334  1.0000
  H   H665      1.0  0.39407  0.57283  0.04787  1.0000
  H   H666      1.0  0.46503  0.75457  0.01495  1.0000
  H   H667      1.0  0.29918  0.86436  0.15796  1.0000
  H   H668      1.0  0.38348  0.59347  0.06535  1.0000
  H   H669      1.0  0.32948  0.87117  0.42956  1.0000
  C   C414      1.0  0.47627  0.52081  0.38355  1.0000
  H   H670      1.0  0.25636  0.70767  0.16703  1.0000
  N   N27       1.0  0.44609  0.96960  0.39818  1.0000
  C   C415      1.0  0.44633  0.96643  0.36686  1.0000
  C   C416      1.0  0.44167  0.95360  0.41475  1.0000
  C   C417      1.0  0.46265  0.97983  0.40444  1.0000
  H   H671      1.0  0.45174  0.97757  0.32379  1.0000
  C   C418      1.0  0.42473  0.94221  0.41101  1.0000
  H   H672      1.0  0.45303  0.95787  0.36251  1.0000
  H   H673      1.0  0.43406  0.96062  0.36008  1.0000
  H   H674      1.0  0.44251  0.95481  0.43796  1.0000
  H   H675      1.0  0.45036  0.94726  0.40901  1.0000
  H   H676      1.0  0.47175  0.97599  0.39220  1.0000
  H   H677      1.0  0.28542  0.83233  0.18696  1.0000
  H   H678      1.0  0.25210  0.53362  0.09867  1.0000
  H   H679      1.0  0.29450  0.88548  0.17893  1.0000
  S   S147      1.0  0.47624  0.58957  0.44251  1.0000
  H   H680      1.0  0.41538  0.94707  0.41941  1.0000
  H   H681      1.0  0.42266  0.93933  0.38859  1.0000
  H   H682      1.0  0.42313  0.93066  0.42327  1.0000
  H   H683      1.0  0.30828  0.83939  0.21986  1.0000
  C   C419      1.0  0.43031  0.98119  0.43480  1.0000
  H   H684      1.0  0.30008  0.87806  0.21074  1.0000
  H   H685      1.0  0.46618  0.64335  0.29760  1.0000
  H   H686      1.0  0.34264  0.85325  0.44266  1.0000
  N   N28       1.0  0.25811  0.52838  0.05603  1.0000
  H   H687      1.0  0.28011  0.50375  0.07742  1.0000
  C   C420      1.0  0.48110  0.79369  0.26761  1.0000
  H   H688      1.0  0.47103  0.59817  0.27643  1.0000
  H   H689      1.0  0.47639  0.62415  0.43588  1.0000
  H   H690      1.0  0.30345  0.85651  0.22865  1.0000
  H   H691      1.0  0.26265  0.74061  0.05986  1.0000
  C   C421      1.0  0.47843  0.53625  0.32452  1.0000
  C   C422      1.0  0.47486  0.63067  0.33048  1.0000
  H   H692      1.0  0.48296  0.65990  0.41833  1.0000
  H   H693      1.0  0.36294  0.77014  0.99106  1.0000
  C   C423      1.0  0.32287  0.51836  0.01395  1.0000
  H   H694      1.0  0.46444  0.63263  0.15003  1.0000
  H   H695      1.0  0.39428  0.62575  0.03077  1.0000
  H   H696      1.0  0.32991  0.84276  0.12717  1.0000
  H   H697      1.0  0.45599  0.71831  0.00471  1.0000
  H   H698      1.0  0.34525  0.88077  0.22933  1.0000
  H   H699      1.0  0.36586  0.52517  0.25748  1.0000
  H   H700      1.0  0.30540  0.85926  0.48213  1.0000
  H   H701      1.0  0.28313  0.73357  0.08659  1.0000
  H   H702      1.0  0.46367  0.52070  0.38639  1.0000
  H   H703      1.0  0.41796  0.98188  0.43692  1.0000
  H   H704      1.0  0.31861  0.87770  0.15439  1.0000
  C   C424      1.0  0.46172  0.80187  0.03948  1.0000
  H   H705      1.0  0.35109  0.61310  0.01773  1.0000
  H   H706      1.0  0.33935  0.87551  0.18090  1.0000
  N   N29       1.0  0.44339  0.87171  0.33392  1.0000
  C   C425      1.0  0.45740  0.88571  0.34101  1.0000
  C   C426      1.0  0.43693  0.86169  0.36130  1.0000
  C   C427      1.0  0.43085  0.87817  0.32192  1.0000
  C   C428      1.0  0.44939  0.86251  0.31229  1.0000
  C   C429      1.0  0.46416  0.89918  0.31727  1.0000
  C   C430      1.0  0.44881  0.85530  0.37726  1.0000
  C   C431      1.0  0.41322  0.86752  0.32647  1.0000
  C   C432      1.0  0.43722  0.84730  0.30259  1.0000
  H   H707      1.0  0.45419  0.89142  0.35998  1.0000
  H   H708      1.0  0.46766  0.88169  0.34687  1.0000
  H   H709      1.0  0.42656  0.85110  0.35784  1.0000
  H   H710      1.0  0.43229  0.86876  0.37651  1.0000
  H   H711      1.0  0.43106  0.88947  0.33171  1.0000
  H   H712      1.0  0.43347  0.88142  0.29866  1.0000
  H   H713      1.0  0.45446  0.87014  0.29254  1.0000
  H   H714      1.0  0.45934  0.85889  0.32063  1.0000
  H   H715      1.0  0.46892  0.89492  0.29813  1.0000
  H   H716      1.0  0.45534  0.90517  0.31125  1.0000
  H   H717      1.0  0.47432  0.90856  0.32547  1.0000
  H   H718      1.0  0.45379  0.84763  0.36417  1.0000
  H   H719      1.0  0.45864  0.86508  0.38527  1.0000
  H   H720      1.0  0.44240  0.84775  0.39635  1.0000
  H   H721      1.0  0.40884  0.86701  0.34907  1.0000
  H   H722      1.0  0.41103  0.85515  0.32011  1.0000
  H   H723      1.0  0.40570  0.87294  0.31377  1.0000
  H   H724      1.0  0.43157  0.83851  0.32059  1.0000
  H   H725      1.0  0.44355  0.84133  0.28811  1.0000
  H   H726      1.0  0.42806  0.85021  0.29009  1.0000
  N   N30       1.0  0.40262  0.72623  0.18783  1.0000
  C   C433      1.0  0.40325  0.72913  0.21921  1.0000
  C   C434      1.0  0.39472  0.70851  0.18527  1.0000
  C   C435      1.0  0.39284  0.73579  0.17464  1.0000
  C   C436      1.0  0.41950  0.73175  0.17481  1.0000
  C   C437      1.0  0.40920  0.74684  0.22675  1.0000
  C   C438      1.0  0.40328  0.69724  0.19824  1.0000
  C   C439      1.0  0.38318  0.72895  0.14901  1.0000
  C   C440      1.0  0.42169  0.72899  0.14312  1.0000
  H   H727      1.0  0.39122  0.72365  0.23034  1.0000
  H   H728      1.0  0.41122  0.72330  0.22962  1.0000
  H   H729      1.0  0.39334  0.70553  0.16271  1.0000
  H   H730      1.0  0.38236  0.70475  0.19545  1.0000
  H   H731      1.0  0.38370  0.73724  0.19053  1.0000
  H   H732      1.0  0.40055  0.74819  0.16793  1.0000
  H   H733      1.0  0.42522  0.74479  0.17678  1.0000
  H   H734      1.0  0.42693  0.72584  0.18652  1.0000
  H   H735      1.0  0.40864  0.74732  0.25030  1.0000
  H   H736      1.0  0.42181  0.75289  0.21922  1.0000
  H   H737      1.0  0.40168  0.75384  0.21861  1.0000
  H   H738      1.0  0.40392  0.69778  0.22165  1.0000
  H   H739      1.0  0.39641  0.68467  0.19447  1.0000
  H   H740      1.0  0.41540  0.69944  0.18803  1.0000
  H   H741      1.0  0.39035  0.72571  0.13190  1.0000
  H   H742      1.0  0.37829  0.73811  0.13961  1.0000
  H   H743      1.0  0.37279  0.71833  0.15600  1.0000
  H   H744      1.0  0.41700  0.71617  0.13872  1.0000
  H   H745      1.0  0.43469  0.73296  0.13688  1.0000
  H   H746      1.0  0.41635  0.73629  0.12953  1.0000
  N   N31       1.0  0.39089  0.82681  0.16152  1.0000
  C   C441      1.0  0.40552  0.82885  0.14188  1.0000
  C   C442      1.0  0.37870  0.81129  0.15492  1.0000
  C   C443      1.0  0.39562  0.82528  0.19166  1.0000
  C   C444      1.0  0.38526  0.84117  0.15682  1.0000
  C   C445      1.0  0.41969  0.84431  0.14392  1.0000
  C   C446      1.0  0.37223  0.81070  0.12496  1.0000
  C   C447      1.0  0.38277  0.82376  0.21584  1.0000
  C   C448      1.0  0.36781  0.83930  0.16711  1.0000
  H   H747      1.0  0.41015  0.81850  0.14519  1.0000
  H   H748      1.0  0.40260  0.82893  0.11918  1.0000
  H   H749      1.0  0.36822  0.80763  0.17039  1.0000
  H   H750      1.0  0.38394  0.80140  0.15710  1.0000
  H   H751      1.0  0.39996  0.81474  0.19449  1.0000
  H   H752      1.0  0.40572  0.83581  0.19647  1.0000
  H   H753      1.0  0.39315  0.85158  0.16725  1.0000
  H   H754      1.0  0.38647  0.84491  0.13366  1.0000
  H   H755      1.0  0.42923  0.84439  0.12760  1.0000
  H   H756      1.0  0.41638  0.85527  0.13924  1.0000
  H   H757      1.0  0.42520  0.84492  0.16466  1.0000
  H   H758      1.0  0.36195  0.79956  0.12431  1.0000
  H   H759      1.0  0.36784  0.82088  0.11955  1.0000
  H   H760      1.0  0.38121  0.80999  0.10827  1.0000
  H   H761      1.0  0.37993  0.83509  0.21768  1.0000
  H   H762      1.0  0.38757  0.82132  0.23638  1.0000
  H   H763      1.0  0.37171  0.81370  0.21399  1.0000
  H   H764      1.0  0.36758  0.84946  0.18009  1.0000
  H   H765      1.0  0.36156  0.82829  0.18040  1.0000
  H   H766      1.0  0.36058  0.83986  0.14864  1.0000
  C   C449      1.0  0.39544  0.98205  0.38400  1.0000
  H   H767      1.0  0.47295  0.53897  0.30494  1.0000
  C   C450      1.0  0.30404  0.84908  0.21057  1.0000
  H   H768      1.0  0.33635  0.59525  0.02993  1.0000
  H   H769      1.0  0.26722  0.76138  0.13043  1.0000
  H   H770      1.0  0.38913  0.98496  0.40210  1.0000
  C   C451      1.0  0.27425  0.73788  0.09837  1.0000
  S   S148      1.0  0.42497  0.63127  0.00423  1.0000
  C   C452      1.0  0.38128  0.61930  0.03445  1.0000
  H   H771      1.0  0.25440  0.78721  0.10396  1.0000
  H   H772      1.0  0.26171  0.51848  0.99981  1.0000
  C   C453      1.0  0.31772  0.86860  0.44136  1.0000
  C   C454      1.0  0.48083  0.64720  0.41375  1.0000
  C   C455      1.0  0.34791  0.59997  0.01714  1.0000
  H   H773      1.0  0.37359  0.56855  0.04104  1.0000
  Fe  Fe75      1.0  0.33142  0.51959  0.15051  1.0000
  C   C456      1.0  0.48275  0.60452  0.20397  1.0000
  H   H774      1.0  0.33551  0.78248  0.03819  1.0000
  C   C457      1.0  0.43404  0.97819  0.40367  1.0000
  H   H775      1.0  0.36716  0.53221  0.42880  1.0000
  C   C458      1.0  0.45417  0.80590  0.01584  1.0000
  H   H776      1.0  0.47439  0.82818  0.28769  1.0000
  H   H777      1.0  0.37634  0.88996  0.47789  1.0000
  C   C459      1.0  0.46785  0.62103  0.28347  1.0000
  H   H778      1.0  0.48698  0.66062  0.15744  1.0000
  H   H779      1.0  0.46301  0.62160  0.10140  1.0000
  H   H780      1.0  0.38237  0.52516  0.39175  1.0000
  H   H781      1.0  0.47224  0.79831  0.27876  1.0000
  Fe  Fe76      1.0  0.47109  0.56378  0.43419  1.0000
  C   C460      1.0  0.45533  0.65738  0.06032  1.0000
  C   C461      1.0  0.32983  0.85286  0.14044  1.0000
  H   H782      1.0  0.48907  0.64623  0.39602  1.0000
  H   H783      1.0  0.27905  0.51707  0.01760  1.0000
  H   H784      1.0  0.41299  0.54712  0.41513  1.0000
  H   H785      1.0  0.45836  0.51627  0.33829  1.0000
  H   H786      1.0  0.27238  0.73535  0.17704  1.0000
  C   C462      1.0  0.35290  0.84549  0.47914  1.0000
  S   S149      1.0  0.46210  0.62342  0.24788  1.0000
  H   H787      1.0  0.48160  0.64038  0.12631  1.0000
  C   C463      1.0  0.36009  0.59294  0.03040  1.0000
  C   C464      1.0  0.44839  0.65184  0.03476  1.0000
  H   H788      1.0  0.33125  0.82131  0.45263  1.0000
  H   H789      1.0  0.47345  0.50222  0.41834  1.0000
  C   C465      1.0  0.30942  0.87040  0.17075  1.0000
  C   C466      1.0  0.44146  0.81194  0.02080  1.0000
  C   C467      1.0  0.48540  0.86744  0.26496  1.0000
  H   H790      1.0  0.39999  0.60133  0.04003  1.0000
  C   C468      1.0  0.31479  0.83508  0.46103  1.0000
  S   S150      1.0  0.34715  0.50712  0.17339  1.0000
  C   C469      1.0  0.24973  0.76337  0.06687  1.0000
  N   N32       1.0  0.25618  0.75558  0.09052  1.0000
  H   H791      1.0  0.27817  0.51882  0.10087  1.0000
  C   C470      1.0  0.27747  0.51524  0.07859  1.0000
  C   C471      1.0  0.25639  0.55539  0.07237  1.0000
  H   H792      1.0  0.37556  0.62655  0.02157  1.0000
  H   H793      1.0  0.48322  0.81460  0.23993  1.0000
  H   H794      1.0  0.25205  0.54645  0.16125  1.0000
  H   H795      1.0  0.46667  0.66682  0.05936  1.0000
  C   C472      1.0  0.28661  0.84135  0.20301  1.0000
  H   H796      1.0  0.47741  0.63959  0.19435  1.0000
  H   H797      1.0  0.44774  0.76579  0.03695  1.0000
  H   H798      1.0  0.32696  0.86185  0.12629  1.0000
  C   C473      1.0  0.30395  0.80768  0.00942  1.0000
  C   C474      1.0  0.47484  0.61071  0.17945  1.0000
  C   C475      1.0  0.26786  0.74814  0.07754  1.0000
  H   H799      1.0  0.27161  0.78464  0.06081  1.0000
  C   C476      1.0  0.30331  0.79170  0.00762  1.0000
  H   H800      1.0  0.34209  0.50361  0.06033  1.0000
  C   C477      1.0  0.47470  0.62960  0.14010  1.0000
  C   C478      1.0  0.31927  0.81954  0.46308  1.0000
  C   C479      1.0  0.31786  0.86248  0.47262  1.0000
  H   H801      1.0  0.43033  0.97140  0.45027  1.0000
  H   H802      1.0  0.38433  0.61703  0.08061  1.0000
  C   C480      1.0  0.47928  0.85067  0.26353  1.0000
  H   H803      1.0  0.46360  0.61227  0.18864  1.0000
  H   H804      1.0  0.45406  0.51634  0.47273  1.0000
  H   H805      1.0  0.33544  0.76820  0.01251  1.0000
  C   C481      1.0  0.48851  0.63945  0.18235  1.0000
  H   H806      1.0  0.34493  0.53269  0.02981  1.0000
  H   H807      1.0  0.30188  0.83195  0.46790  1.0000
  H   H808      1.0  0.24395  0.75441  0.05157  1.0000
  H   H809      1.0  0.34600  0.59649  0.99488  1.0000
  C   C482      1.0  0.38569  0.57696  0.03505  1.0000
  C   C483      1.0  0.25949  0.73202  0.17764  1.0000
  S   S151      1.0  0.31278  0.51146  0.04783  1.0000
  C   C484      1.0  0.38707  0.59425  0.04230  1.0000
  S   S152      1.0  0.34990  0.90149  0.46228  1.0000
  H   H810      1.0  0.35764  0.49574  0.05247  1.0000
  H   H811      1.0  0.37049  0.50212  0.12496  1.0000
  H   H812      1.0  0.31844  0.81440  0.48523  1.0000
  H   H813      1.0  0.34197  0.49735  0.11753  1.0000
  C   C485      1.0  0.36561  0.49869  0.10400  1.0000
  H   H814      1.0  0.39497  0.55243  0.41006  1.0000
  H   H815      1.0  0.45440  0.65699  0.01440  1.0000
  H   H816      1.0  0.32772  0.86596  0.24387  1.0000
  H   H817      1.0  0.46908  0.96805  0.44215  1.0000
  H   H818      1.0  0.26309  0.78666  0.13727  1.0000
  C   C486      1.0  0.25193  0.74324  0.18470  1.0000
  H   H819      1.0  0.47439  0.78145  0.26162  1.0000
  H   H820      1.0  0.31467  0.89384  0.18915  1.0000
  H   H821      1.0  0.35669  0.59014  0.05357  1.0000
  H   H822      1.0  0.27224  0.54304  0.08715  1.0000
  H   H823      1.0  0.42194  0.50134  0.38659  1.0000
  C   C487      1.0  0.34292  0.77932  0.02121  1.0000
  H   H824      1.0  0.27948  0.83491  0.22249  1.0000
  H   H825      1.0  0.41515  0.62324  0.06364  1.0000
  H   H826      1.0  0.47838  0.52227  0.42901  1.0000
  H   H827      1.0  0.47180  0.51146  0.31397  1.0000
  C   C488      1.0  0.43387  0.63943  0.03568  1.0000
  H   H828      1.0  0.46697  0.98606  0.34728  1.0000
  H   H829      1.0  0.32655  0.88396  0.22526  1.0000
  C   C489      1.0  0.47196  0.60726  0.29150  1.0000
  C   C490      1.0  0.39176  0.52655  0.40721  1.0000
  H   H830      1.0  0.36390  0.61439  0.07194  1.0000
  H   H831      1.0  0.35607  0.80370  0.00999  1.0000
  C   C491      1.0  0.24243  0.74317  0.10692  1.0000
  H   H832      1.0  0.47160  0.79725  0.03599  1.0000
  H   H833      1.0  0.40574  0.54755  0.38081  1.0000
  H   H834      1.0  0.40608  0.53404  0.45574  1.0000
  C   C492      1.0  0.49115  0.87449  0.29045  1.0000
  H   H835      1.0  0.43557  0.81517  0.00294  1.0000
  C   C493      1.0  0.40186  0.54443  0.40372  1.0000
  H   H836      1.0  0.47344  0.59478  0.21666  1.0000
  C   C494      1.0  0.37546  0.50258  0.43449  1.0000
  N   N33       1.0  0.31550  0.85837  0.18639  1.0000
  C   C495      1.0  0.49116  0.86487  0.31500  1.0000
  H   H837      1.0  0.47905  0.98906  0.43710  1.0000
  H   H838      1.0  0.26781  0.77220  0.03099  1.0000
  C   C496      1.0  0.33179  0.86636  0.19711  1.0000
  H   H839      1.0  0.33827  0.85747  0.20044  1.0000
  C   C497      1.0  0.37663  0.62092  0.06591  1.0000
  H   H840      1.0  0.37206  0.49590  0.45549  1.0000
  H   H841      1.0  0.25806  0.50375  0.05216  1.0000
  C   C498      1.0  0.45385  0.98122  0.34591  1.0000
  H   H842      1.0  0.30578  0.84066  0.15562  1.0000
  C   C499      1.0  0.34183  0.85418  0.46612  1.0000
  H   H843      1.0  0.27850  0.75759  0.06734  1.0000
  H   H844      1.0  0.39944  0.51959  0.39908  1.0000
  C   C500      1.0  0.27293  0.52539  0.00901  1.0000
  S   S153      1.0  0.30752  0.50979  0.13113  1.0000
  C   C501      1.0  0.44287  0.76014  0.01729  1.0000
  H   H845      1.0  0.47107  0.60055  0.16546  1.0000
  H   H846      1.0  0.43021  0.75281  0.02220  1.0000
  N   N34       1.0  0.37751  0.60243  0.02504  1.0000
  H   H847      1.0  0.31576  0.83852  0.43781  1.0000
  C   C502      1.0  0.47899  0.61692  0.33851  1.0000
  S   S154      1.0  0.48330  0.56841  0.39039  1.0000
  H   H848      1.0  0.38903  0.57611  0.01234  1.0000
  H   H849      1.0  0.40558  0.51437  0.44798  1.0000
  C   C503      1.0  0.46737  0.97965  0.43556  1.0000
  C   C504      1.0  0.47916  0.84105  0.28813  1.0000
  H   H850      1.0  0.46469  0.99257  0.39717  1.0000
  C   C505      1.0  0.37408  0.52971  0.44668  1.0000
  H   H851      1.0  0.28046  0.74484  0.11579  1.0000
  H   H852      1.0  0.35761  0.58088  0.02195  1.0000
  N   N35       1.0  0.32455  0.84877  0.47724  1.0000
  C   C506      1.0  0.25585  0.77902  0.12147  1.0000
  H   H853      1.0  0.24654  0.73827  0.12617  1.0000
  C   C507      1.0  0.34871  0.79343  0.99850  1.0000
  H   H854      1.0  0.48048  0.59451  0.32447  1.0000
  H   H855      1.0  0.42253  0.97193  0.39459  1.0000
  H   H856      1.0  0.26413  0.50398  0.14483  1.0000
  H   H857      1.0  0.25226  0.50781  0.08613  1.0000
  H   H858      1.0  0.47703  0.61151  0.11049  1.0000
  H   H859      1.0  0.44782  0.73804  0.01944  1.0000
  C   C508      1.0  0.38285  0.60262  0.99399  1.0000
  H   H860      1.0  0.47558  0.54368  0.34107  1.0000
  C   C509      1.0  0.33746  0.50066  0.23134  1.0000
  C   C510      1.0  0.31504  0.51275  0.98935  1.0000
  H   H861      1.0  0.25616  0.78526  0.03906  1.0000
  N   N36       1.0  0.47857  0.51205  0.35774  1.0000
  C   C511      1.0  0.45290  0.74970  0.00696  1.0000
  H   H862      1.0  0.31496  0.88008  0.44114  1.0000
  H   H863      1.0  0.33797  0.79666  0.99267  1.0000
  H   H864      1.0  0.46864  0.64279  0.40590  1.0000
  H   H865      1.0  0.28096  0.53281  0.99125  1.0000
  H   H866      1.0  0.30281  0.50493  0.99136  1.0000
  H   H867      1.0  0.36188  0.84491  0.46225  1.0000
  N   N37       1.0  0.48481  0.62585  0.16276  1.0000
  H   H868      1.0  0.24390  0.55331  0.06671  1.0000
  C   C512      1.0  0.25991  0.53963  0.07967  1.0000
  H   H869      1.0  0.44343  0.77033  0.00232  1.0000
  H   H870      1.0  0.43787  0.99016  0.39204  1.0000
  H   H871      1.0  0.48565  0.87508  0.24617  1.0000
  H   H872      1.0  0.36245  0.50312  0.39536  1.0000
  H   H873      1.0  0.44858  0.99092  0.34904  1.0000
  H   H874      1.0  0.48507  0.84046  0.33223  1.0000
  H   H875      1.0  0.47612  0.63994  0.34530  1.0000
  C   C513      1.0  0.41577  0.99032  0.34528  1.0000
  H   H876      1.0  0.48356  0.79754  0.22207  1.0000
  C   C514      1.0  0.40786  0.99419  0.36890  1.0000
  C   C515      1.0  0.48845  0.80464  0.24046  1.0000
  H   H877      1.0  0.45878  0.98227  0.45076  1.0000
  H   H878      1.0  0.36173  0.51050  0.48087  1.0000
  Fe  Fe77      1.0  0.49007  0.59439  0.39967  1.0000
  H   H879      1.0  0.30331  0.81472  0.99033  1.0000
  H   H880      1.0  0.48953  0.79254  0.28348  1.0000
  C   C516      1.0  0.36010  0.49887  0.41811  1.0000
  H   H881      1.0  0.36717  0.51005  0.09122  1.0000
  C   C517      1.0  0.39369  0.51633  0.48774  1.0000
  H   H882      1.0  0.49144  0.61613  0.47408  1.0000
  H   H883      1.0  0.49152  0.54001  0.31971  1.0000
  C   C518      1.0  0.36179  0.49560  0.21595  1.0000
  H   H884      1.0  0.37061  0.49566  0.19923  1.0000
  S   S155      1.0  0.46315  0.53527  0.74466  1.0000
  C   C519      1.0  0.46254  0.60305  0.82960  1.0000
  Fe  Fe78      1.0  0.43057  0.64116  0.95767  1.0000
  S   S156      1.0  0.41844  0.65814  0.93972  1.0000
  H   H885      1.0  0.38655  0.92341  0.54563  1.0000
  Fe  Fe79      1.0  0.44208  0.63474  0.89676  1.0000
  S   S157      1.0  0.43084  0.65146  0.87522  1.0000
  Fe  Fe80      1.0  0.44043  0.66807  0.91013  1.0000
  S   S158      1.0  0.45459  0.69477  0.90212  1.0000
  Fe  Fe81      1.0  0.40996  0.64026  0.90660  1.0000
  S   S159      1.0  0.38387  0.63123  0.89764  1.0000
  S   S160      1.0  0.45328  0.65193  0.92989  1.0000
  S   S161      1.0  0.42047  0.62268  0.92629  1.0000
  Fe  Fe82      1.0  0.44227  0.78333  0.88726  1.0000
  S   S162      1.0  0.46593  0.80061  0.89793  1.0000
  S   S163      1.0  0.43462  0.75731  0.87424  1.0000
  Fe  Fe83      1.0  0.42493  0.80746  0.89953  1.0000
  S   S164      1.0  0.44699  0.82569  0.91284  1.0000
  S   S165      1.0  0.40315  0.81547  0.89718  1.0000
  Fe  Fe84      1.0  0.45900  0.82008  0.87302  1.0000
  S   S166      1.0  0.47208  0.84394  0.84635  1.0000
  Fe  Fe85      1.0  0.45184  0.80512  0.93643  1.0000
  H   H886      1.0  0.46482  0.68251  0.77662  1.0000
  S   S167      1.0  0.43649  0.80228  0.85957  1.0000
  S   S168      1.0  0.42862  0.78733  0.92624  1.0000
  H   H887      1.0  0.41224  0.59754  0.88466  1.0000
  S   S169      1.0  0.32495  0.53331  0.80506  1.0000
  Fe  Fe86      1.0  0.33825  0.52899  0.88280  1.0000
  S   S170      1.0  0.32549  0.54635  0.87006  1.0000
  H   H888      1.0  0.29253  0.71217  0.85619  1.0000
  Fe  Fe87      1.0  0.30958  0.52630  0.84640  1.0000
  S   S171      1.0  0.28249  0.51922  0.85710  1.0000
  Fe  Fe88      1.0  0.34185  0.55175  0.83050  1.0000
  S   S172      1.0  0.35782  0.57613  0.81298  1.0000
  S   S173      1.0  0.35552  0.53551  0.84424  1.0000
  Fe  Fe89      1.0  0.30766  0.80868  0.86878  1.0000
  S   S174      1.0  0.30324  0.78678  0.84394  1.0000
  S   S175      1.0  0.31894  0.83389  0.84681  1.0000
  Fe  Fe90      1.0  0.30124  0.78860  0.92735  1.0000
  S   S176      1.0  0.29680  0.76564  0.90499  1.0000
  H   H889      1.0  0.25667  0.73427  0.81633  1.0000
  Fe  Fe91      1.0  0.31794  0.77910  0.87585  1.0000
  S   S177      1.0  0.33731  0.76816  0.86511  1.0000
  Fe  Fe92      1.0  0.28231  0.77533  0.87578  1.0000
  S   S178      1.0  0.25806  0.76046  0.86098  1.0000
  S   S179      1.0  0.32331  0.80132  0.89966  1.0000
  S   S180      1.0  0.28558  0.79793  0.89907  1.0000
  S   S181      1.0  0.46864  0.94015  0.67436  1.0000
  Fe  Fe93      1.0  0.35131  0.87825  0.69047  1.0000
  S   S182      1.0  0.36774  0.86856  0.66428  1.0000
  S   S183      1.0  0.32965  0.86065  0.71599  1.0000
  Fe  Fe94      1.0  0.37129  0.91311  0.67288  1.0000
  S   S184      1.0  0.38930  0.90561  0.64697  1.0000
  S   S185      1.0  0.37261  0.93938  0.67176  1.0000
  Fe  Fe95      1.0  0.36848  0.88746  0.62962  1.0000
  S   S186      1.0  0.37332  0.88381  0.58249  1.0000
  Fe  Fe96      1.0  0.38694  0.88757  0.68331  1.0000
  S   S187      1.0  0.40753  0.88140  0.70095  1.0000
  S   S188      1.0  0.35021  0.89567  0.65395  1.0000
  S   S189      1.0  0.37071  0.89652  0.71108  1.0000
  C   C520      1.0  0.38988  0.95539  0.67849  1.0000
  H   H890      1.0  0.40005  0.94136  0.70571  1.0000
  C   C521      1.0  0.36694  0.88962  0.54952  1.0000
  C   C522      1.0  0.35417  0.89577  0.54789  1.0000
  C   C523      1.0  0.34933  0.89968  0.52106  1.0000
  C   C524      1.0  0.43225  0.54197  0.54840  1.0000
  H   H891      1.0  0.40817  0.94111  0.64191  1.0000
  C   C525      1.0  0.37489  0.88764  0.52403  1.0000
  H   H892      1.0  0.34781  0.89721  0.56723  1.0000
  H   H893      1.0  0.33927  0.90418  0.52003  1.0000
  H   H894      1.0  0.47393  0.98228  0.64244  1.0000
  H   H895      1.0  0.38476  0.88286  0.52496  1.0000
  C   C526      1.0  0.45167  0.92474  0.68734  1.0000
  C   C527      1.0  0.43663  0.92662  0.68520  1.0000
  C   C528      1.0  0.42289  0.91345  0.69123  1.0000
  C   C529      1.0  0.42426  0.89846  0.69911  1.0000
  C   C530      1.0  0.43927  0.89688  0.70323  1.0000
  C   C531      1.0  0.45301  0.91006  0.69736  1.0000
  H   H896      1.0  0.43558  0.93808  0.67806  1.0000
  H   H897      1.0  0.41128  0.91486  0.68933  1.0000
  H   H898      1.0  0.44031  0.88534  0.70984  1.0000
  H   H899      1.0  0.46463  0.90866  0.69955  1.0000
  C   C532      1.0  0.32305  0.83953  0.80953  1.0000
  C   C533      1.0  0.33655  0.85264  0.80039  1.0000
  C   C534      1.0  0.33936  0.85855  0.77152  1.0000
  C   C535      1.0  0.32834  0.85185  0.75147  1.0000
  C   C536      1.0  0.31495  0.83863  0.76054  1.0000
  C   C537      1.0  0.31243  0.83238  0.78921  1.0000
  H   H900      1.0  0.34483  0.85834  0.81585  1.0000
  H   H901      1.0  0.34979  0.86862  0.76503  1.0000
  H   H902      1.0  0.30627  0.83336  0.74539  1.0000
  H   H903      1.0  0.30188  0.82245  0.79582  1.0000
  H   H904      1.0  0.44091  0.72387  0.83153  1.0000
  H   H905      1.0  0.42455  0.55639  0.72346  1.0000
  C   C538      1.0  0.43356  0.82580  0.79772  1.0000
  C   C539      1.0  0.45924  0.61679  0.83859  1.0000
  C   C540      1.0  0.25122  0.73145  0.89313  1.0000
  C   C541      1.0  0.26396  0.51771  0.84195  1.0000
  C   C542      1.0  0.26269  0.52035  0.81272  1.0000
  H   H906      1.0  0.39358  0.52570  0.69461  1.0000
  H   H907      1.0  0.46157  0.73411  0.82629  1.0000
  H   H908      1.0  0.36006  0.93447  0.59734  1.0000
  H   H909      1.0  0.27329  0.52361  0.79844  1.0000
  C   C543      1.0  0.32227  0.84393  0.50871  1.0000
  C   C544      1.0  0.47788  0.85376  0.81133  1.0000
  H   H910      1.0  0.48007  0.78464  0.95022  1.0000
  H   H911      1.0  0.47646  0.74307  0.98017  1.0000
  C   C545      1.0  0.38594  0.80238  0.88399  1.0000
  C   C546      1.0  0.38403  0.78612  0.88166  1.0000
  C   C547      1.0  0.36924  0.77565  0.87462  1.0000
  C   C548      1.0  0.35648  0.78150  0.86949  1.0000
  C   C549      1.0  0.35887  0.79793  0.86986  1.0000
  C   C550      1.0  0.37343  0.80829  0.87760  1.0000
  H   H912      1.0  0.39370  0.78150  0.88643  1.0000
  H   H913      1.0  0.36753  0.76296  0.87406  1.0000
  H   H914      1.0  0.34945  0.80269  0.86436  1.0000
  H   H915      1.0  0.37486  0.82087  0.87914  1.0000
  C   C551      1.0  0.37746  0.61551  0.87462  1.0000
  C   C552      1.0  0.38459  0.61666  0.84711  1.0000
  C   C553      1.0  0.37840  0.60457  0.82830  1.0000
  C   C554      1.0  0.36534  0.59106  0.83714  1.0000
  C   C555      1.0  0.35844  0.58979  0.86484  1.0000
  C   C556      1.0  0.36430  0.60210  0.88332  1.0000
  H   H916      1.0  0.39459  0.62707  0.84007  1.0000
  H   H917      1.0  0.38375  0.60567  0.80687  1.0000
  H   H918      1.0  0.34830  0.57953  0.87180  1.0000
  H   H919      1.0  0.35857  0.60126  0.90440  1.0000
  C   C557      1.0  0.44843  0.71211  0.89756  1.0000
  C   C558      1.0  0.43241  0.71125  0.89603  1.0000
  C   C559      1.0  0.42834  0.72527  0.88977  1.0000
  C   C560      1.0  0.44014  0.74037  0.88584  1.0000
  C   C561      1.0  0.45612  0.74125  0.88811  1.0000
  C   C562      1.0  0.46021  0.72720  0.89370  1.0000
  H   H920      1.0  0.42318  0.69975  0.89895  1.0000
  H   H921      1.0  0.41595  0.72440  0.88764  1.0000
  H   H922      1.0  0.46538  0.75267  0.88430  1.0000
  H   H923      1.0  0.47266  0.72800  0.89449  1.0000
  H   H924      1.0  0.45436  0.98402  0.64610  1.0000
  H   H925      1.0  0.47046  0.63975  0.77616  1.0000
  H   H926      1.0  0.42916  0.54281  0.67546  1.0000
  H   H927      1.0  0.44384  0.83095  0.81076  1.0000
  H   H928      1.0  0.45066  0.72809  0.79590  1.0000
  H   H929      1.0  0.46059  0.59284  0.84458  1.0000
  C   C563      1.0  0.45938  0.52082  0.71954  1.0000
  C   C564      1.0  0.45561  0.52451  0.69208  1.0000
  C   C565      1.0  0.45232  0.51280  0.67210  1.0000
  N   N38       1.0  0.41057  0.53132  0.72752  1.0000
  H   H930      1.0  0.42511  0.53741  0.53001  1.0000
  C   C566      1.0  0.46038  0.50561  0.72677  1.0000
  H   H931      1.0  0.45493  0.53630  0.68638  1.0000
  H   H932      1.0  0.45819  0.96513  0.76907  1.0000
  C   C567      1.0  0.30006  0.50585  0.75216  1.0000
  H   H933      1.0  0.48513  0.53170  0.52482  1.0000
  N   N39       1.0  0.44376  0.69347  0.81340  1.0000
  H   H934      1.0  0.42525  0.96371  0.58977  1.0000
  C   C568      1.0  0.48323  0.63035  0.50318  1.0000
  C   C569      1.0  0.35514  0.49762  0.76182  1.0000
  H   H935      1.0  0.42425  0.93878  0.61915  1.0000
  H   H936      1.0  0.36014  0.51457  0.69386  1.0000
  C   C570      1.0  0.24625  0.74059  0.87266  1.0000
  H   H937      1.0  0.40322  0.54649  0.69692  1.0000
  H   H938      1.0  0.44905  0.51559  0.65116  1.0000
  H   H939      1.0  0.30063  0.72986  0.87581  1.0000
  C   C571      1.0  0.24506  0.59418  0.79593  1.0000
  C   C572      1.0  0.45856  0.87408  0.57941  1.0000
  C   C573      1.0  0.43743  0.73761  0.96622  1.0000
  S   S190      1.0  0.30148  0.78209  0.97505  1.0000
  H   H940      1.0  0.38207  0.54254  0.76838  1.0000
  S   S191      1.0  0.32168  0.50846  0.86145  1.0000
  C   C574      1.0  0.40588  0.58853  0.86989  1.0000
  H   H941      1.0  0.41867  0.90370  0.60701  1.0000
  C   C575      1.0  0.33893  0.52664  0.95918  1.0000
  H   H942      1.0  0.38181  0.55760  0.91441  1.0000
  H   H943      1.0  0.31680  0.51251  0.94334  1.0000
  C   C576      1.0  0.48914  0.87100  0.75728  1.0000
  H   H944      1.0  0.28830  0.75253  0.78271  1.0000
  H   H945      1.0  0.39085  0.53404  0.85552  1.0000
  C   C577      1.0  0.41475  0.67557  0.82756  1.0000
  H   H946      1.0  0.40852  0.50669  0.77229  1.0000
  H   H947      1.0  0.39423  0.58157  0.94098  1.0000
  H   H948      1.0  0.35303  0.78437  0.92870  1.0000
  H   H949      1.0  0.42383  0.70915  0.79340  1.0000
  N   N40       1.0  0.45357  0.52747  0.54352  1.0000
  C   C578      1.0  0.46737  0.54284  0.54313  1.0000
  H   H950      1.0  0.46947  0.52603  0.59320  1.0000
  C   C579      1.0  0.26448  0.73990  0.79718  1.0000
  H   H951      1.0  0.32529  0.76422  0.96813  1.0000
  C   C580      1.0  0.36802  0.80734  0.95960  1.0000
  H   H952      1.0  0.46578  0.55186  0.52717  1.0000
  H   H953      1.0  0.46756  0.54823  0.56414  1.0000
  H   H954      1.0  0.46808  0.73778  0.94708  1.0000
  C   C581      1.0  0.48044  0.87039  0.80758  1.0000
  H   H955      1.0  0.41266  0.53938  0.65331  1.0000
  C   C582      1.0  0.24996  0.51349  0.86010  1.0000
  H   H956      1.0  0.33051  0.85178  0.55021  1.0000
  H   H957      1.0  0.46054  0.98539  0.75763  1.0000
  N   N41       1.0  0.32142  0.90251  0.75881  1.0000
  C   C583      1.0  0.30984  0.88933  0.74390  1.0000
  C   C584      1.0  0.32595  0.91747  0.73915  1.0000
  C   C585      1.0  0.31268  0.90520  0.78545  1.0000
  C   C586      1.0  0.33562  0.89727  0.76591  1.0000
  C   C587      1.0  0.30174  0.87356  0.76204  1.0000
  C   C588      1.0  0.33246  0.91571  0.70891  1.0000
  C   C589      1.0  0.32191  0.91859  0.80388  1.0000
  C   C590      1.0  0.35167  0.91055  0.76868  1.0000
  H   H958      1.0  0.30013  0.89345  0.73535  1.0000
  H   H959      1.0  0.31589  0.88600  0.72502  1.0000
  H   H960      1.0  0.33507  0.92754  0.74804  1.0000
  H   H961      1.0  0.31546  0.92178  0.73659  1.0000
  H   H962      1.0  0.30153  0.90775  0.77992  1.0000
  H   H963      1.0  0.30881  0.89422  0.80012  1.0000
  H   H964      1.0  0.33299  0.88951  0.78604  1.0000
  H   H965      1.0  0.33818  0.88963  0.74935  1.0000
  H   H966      1.0  0.29667  0.86379  0.74772  1.0000
  H   H967      1.0  0.31022  0.86984  0.77515  1.0000
  H   H968      1.0  0.29168  0.87452  0.77608  1.0000
  H   H969      1.0  0.33835  0.92777  0.69821  1.0000
  H   H970      1.0  0.34139  0.90926  0.70922  1.0000
  H   H971      1.0  0.32268  0.90939  0.69557  1.0000
  H   H972      1.0  0.31342  0.92057  0.82033  1.0000
  H   H973      1.0  0.32747  0.93022  0.79173  1.0000
  H   H974      1.0  0.33088  0.91490  0.81574  1.0000
  H   H975      1.0  0.35669  0.91697  0.74787  1.0000
  H   H976      1.0  0.36051  0.90490  0.77624  1.0000
  H   H977      1.0  0.35097  0.91944  0.78401  1.0000
  H   H978      1.0  0.48414  0.97574  0.74501  1.0000
  S   S192      1.0  0.46807  0.57768  0.62213  1.0000
  C   C591      1.0  0.47955  0.58310  0.58915  1.0000
  H   H979      1.0  0.42373  0.55730  0.77208  1.0000
  H   H980      1.0  0.40482  0.51688  0.49835  1.0000
  C   C592      1.0  0.42592  0.74691  0.95809  1.0000
  H   H981      1.0  0.44450  0.92177  0.58837  1.0000
  H   H982      1.0  0.37738  0.81320  0.97423  1.0000
  H   H983      1.0  0.47073  0.62503  0.49735  1.0000
  H   H984      1.0  0.46433  0.89944  0.57721  1.0000
  C   C593      1.0  0.46010  0.76275  0.95766  1.0000
  C   C594      1.0  0.38600  0.58193  0.92407  1.0000
  H   H985      1.0  0.43406  0.68192  0.77571  1.0000
  H   H986      1.0  0.26221  0.73672  0.90330  1.0000
  H   H987      1.0  0.46929  0.67009  0.80370  1.0000
  C   C595      1.0  0.43959  0.52954  0.56085  1.0000
  H   H988      1.0  0.41957  0.49691  0.75160  1.0000
  H   H989      1.0  0.42230  0.96472  0.71852  1.0000
  C   C596      1.0  0.32294  0.51702  0.96208  1.0000
  C   C597      1.0  0.24213  0.71532  0.90000  1.0000
  H   H990      1.0  0.40953  0.58592  0.82404  1.0000
  N   N42       1.0  0.41774  0.84491  0.81182  1.0000
  C   C598      1.0  0.40278  0.84461  0.82900  1.0000
  C   C599      1.0  0.43206  0.85519  0.82582  1.0000
  C   C600      1.0  0.41809  0.85179  0.78180  1.0000
  C   C601      1.0  0.38699  0.83793  0.81435  1.0000
  C   C602      1.0  0.43406  0.84944  0.85643  1.0000
  C   C603      1.0  0.41705  0.86899  0.77871  1.0000
  H   H991      1.0  0.40345  0.85667  0.83598  1.0000
  H   H992      1.0  0.40144  0.83719  0.84931  1.0000
  H   H993      1.0  0.44331  0.85651  0.81285  1.0000
  H   H994      1.0  0.43157  0.86762  0.82700  1.0000
  H   H995      1.0  0.42940  0.85234  0.76976  1.0000
  H   H996      1.0  0.40869  0.84383  0.76938  1.0000
  H   H997      1.0  0.43651  0.83083  0.77544  1.0000
  H   H998      1.0  0.37687  0.83746  0.82963  1.0000
  H   H999      1.0  0.38627  0.84575  0.79564  1.0000
  H   H1000     1.0  0.44519  0.85761  0.86420  1.0000
  H   H1001     1.0  0.43529  0.83731  0.85747  1.0000
  H   H1002     1.0  0.42409  0.84966  0.87141  1.0000
  H   H1003     1.0  0.42916  0.87789  0.77504  1.0000
  H   H1004     1.0  0.41097  0.87238  0.79724  1.0000
  H   H1005     1.0  0.40999  0.87006  0.76022  1.0000
  N   N43       1.0  0.44502  0.89056  0.60974  1.0000
  C   C604      1.0  0.44881  0.90629  0.62361  1.0000
  C   C605      1.0  0.43874  0.87725  0.63280  1.0000
  C   C606      1.0  0.43251  0.88910  0.58843  1.0000
  C   C607      1.0  0.46003  0.88969  0.59434  1.0000
  C   C608      1.0  0.33678  0.76536  0.95624  1.0000
  C   C609      1.0  0.45130  0.87405  0.65188  1.0000
  C   C610      1.0  0.41683  0.89147  0.59995  1.0000
  H   H1006     1.0  0.39989  0.52763  0.77107  1.0000
  H   H1007     1.0  0.43853  0.90672  0.63773  1.0000
  H   H1008     1.0  0.45875  0.90763  0.63790  1.0000
  H   H1009     1.0  0.43221  0.86572  0.62384  1.0000
  H   H1010     1.0  0.42961  0.87973  0.64739  1.0000
  H   H1011     1.0  0.43726  0.89761  0.56951  1.0000
  H   H1012     1.0  0.34304  0.75811  0.96761  1.0000
  H   H1013     1.0  0.42973  0.51795  0.56424  1.0000
  H   H1014     1.0  0.47016  0.89207  0.60852  1.0000
  H   H1015     1.0  0.42391  0.54418  0.56489  1.0000
  C   C611      1.0  0.46086  0.51434  0.58875  1.0000
  H   H1016     1.0  0.40534  0.67366  0.84506  1.0000
  H   H1017     1.0  0.44509  0.86521  0.66960  1.0000
  H   H1018     1.0  0.45941  0.86883  0.64003  1.0000
  H   H1019     1.0  0.45842  0.88498  0.66166  1.0000
  H   H1020     1.0  0.38511  0.82555  0.80798  1.0000
  H   H1021     1.0  0.37559  0.56911  0.88820  1.0000
  H   H1022     1.0  0.38288  0.97275  0.65300  1.0000
  C   C612      1.0  0.44833  0.52388  0.51383  1.0000
  H   H1023     1.0  0.44957  0.86341  0.59013  1.0000
  H   H1024     1.0  0.45551  0.87523  0.55693  1.0000
  N   N44       1.0  0.40091  0.57182  0.88412  1.0000
  H   H1025     1.0  0.47013  0.87157  0.57961  1.0000
  C   C613      1.0  0.41337  0.56998  0.90363  1.0000
  C   C614      1.0  0.39275  0.54186  0.87375  1.0000
  H   H1026     1.0  0.41740  0.66414  0.82642  1.0000
  C   C615      1.0  0.42949  0.57010  0.88950  1.0000
  H   H1027     1.0  0.42069  0.60480  0.83614  1.0000
  H   H1028     1.0  0.43468  0.71418  0.75952  1.0000
  H   H1029     1.0  0.41641  0.57988  0.91834  1.0000
  H   H1030     1.0  0.40870  0.55905  0.91834  1.0000
  H   H1031     1.0  0.38913  0.59425  0.91410  1.0000
  H   H1032     1.0  0.33405  0.75975  0.93560  1.0000
  H   H1033     1.0  0.36779  0.83092  0.94435  1.0000
  C   C616      1.0  0.45722  0.51325  0.55705  1.0000
  H   H1034     1.0  0.40238  0.53952  0.88575  1.0000
  C   C617      1.0  0.42936  0.68974  0.83422  1.0000
  H   H1035     1.0  0.43780  0.58251  0.88621  1.0000
  H   H1036     1.0  0.42853  0.56426  0.86911  1.0000
  H   H1037     1.0  0.43498  0.56311  0.90364  1.0000
  N   N45       1.0  0.40141  0.94786  0.58365  1.0000
  C   C618      1.0  0.41396  0.95722  0.60259  1.0000
  C   C619      1.0  0.40106  0.95894  0.55844  1.0000
  C   C620      1.0  0.40621  0.93378  0.57393  1.0000
  C   C621      1.0  0.38571  0.94227  0.60101  1.0000
  C   C622      1.0  0.35897  0.81930  0.95227  1.0000
  C   C623      1.0  0.39727  0.55948  0.86209  1.0000
  C   C624      1.0  0.39964  0.92656  0.54601  1.0000
  C   C625      1.0  0.37080  0.93314  0.58584  1.0000
  H   H1038     1.0  0.42729  0.95583  0.63983  1.0000
  H   H1039     1.0  0.41007  0.96660  0.61303  1.0000
  H   H1040     1.0  0.39260  0.95279  0.54280  1.0000
  H   H1041     1.0  0.41294  0.96304  0.54640  1.0000
  H   H1042     1.0  0.41943  0.93718  0.57034  1.0000
  H   H1043     1.0  0.40278  0.92380  0.59077  1.0000
  H   H1044     1.0  0.38629  0.93396  0.61897  1.0000
  H   H1045     1.0  0.38314  0.95221  0.61195  1.0000
  H   H1046     1.0  0.25537  0.57542  0.80420  1.0000
  C   C626      1.0  0.46358  0.97979  0.68670  1.0000
  C   C627      1.0  0.35423  0.50787  0.73877  1.0000
  H   H1047     1.0  0.43262  0.68714  0.85607  1.0000
  C   C628      1.0  0.38559  0.56937  0.90204  1.0000
  C   C629      1.0  0.40468  0.98410  0.67317  1.0000
  C   C630      1.0  0.24827  0.55584  0.86302  1.0000
  H   H1048     1.0  0.40360  0.50618  0.71919  1.0000
  H   H1049     1.0  0.46744  0.51088  0.54586  1.0000
  H   H1050     1.0  0.47405  0.58408  0.51754  1.0000
  H   H1051     1.0  0.37050  0.93787  0.56381  1.0000
  H   H1052     1.0  0.27381  0.70286  0.78234  1.0000
  N   N46       1.0  0.29004  0.73690  0.81864  1.0000
  C   C631      1.0  0.30699  0.74691  0.82307  1.0000
  C   C632      1.0  0.28182  0.73145  0.84781  1.0000
  C   C633      1.0  0.28204  0.74758  0.80372  1.0000
  C   C634      1.0  0.29048  0.72319  0.80085  1.0000
  C   C635      1.0  0.31718  0.75579  0.79626  1.0000
  C   C636      1.0  0.28966  0.72186  0.86722  1.0000
  H   H1053     1.0  0.37184  0.77205  0.93832  1.0000
  C   C637      1.0  0.27551  0.70811  0.80343  1.0000
  H   H1054     1.0  0.30712  0.75606  0.83865  1.0000
  H   H1055     1.0  0.31379  0.73947  0.83270  1.0000
  H   H1056     1.0  0.26920  0.72409  0.84686  1.0000
  H   H1057     1.0  0.28128  0.74200  0.85948  1.0000
  H   H1058     1.0  0.28264  0.75811  0.81640  1.0000
  C   C638      1.0  0.41850  0.94745  0.62703  1.0000
  H   H1059     1.0  0.29290  0.72734  0.77790  1.0000
  H   H1060     1.0  0.30060  0.71888  0.80664  1.0000
  S   S193      1.0  0.46133  0.80337  0.98079  1.0000
  H   H1061     1.0  0.31370  0.76637  0.78918  1.0000
  H   H1062     1.0  0.40554  0.98221  0.57805  1.0000
  S   S194      1.0  0.34687  0.49854  0.79695  1.0000
  H   H1063     1.0  0.28127  0.71625  0.88586  1.0000
  H   H1064     1.0  0.43879  0.73119  0.94692  1.0000
  H   H1065     1.0  0.43610  0.54314  0.72237  1.0000
  C   C639      1.0  0.36924  0.78193  0.97992  1.0000
  H   H1066     1.0  0.44191  0.55334  0.76594  1.0000
  C   C640      1.0  0.48638  0.85434  0.76094  1.0000
  H   H1067     1.0  0.41708  0.52258  0.66872  1.0000
  H   H1068     1.0  0.27737  0.69869  0.81806  1.0000
  H   H1069     1.0  0.38324  0.61328  0.95138  1.0000
  C   C641      1.0  0.46495  0.73763  0.97030  1.0000
  H   H1070     1.0  0.45073  0.69930  0.76862  1.0000
  C   C642      1.0  0.45616  0.70874  0.82054  1.0000
  H   H1071     1.0  0.41791  0.69646  0.76473  1.0000
  H   H1072     1.0  0.42913  0.87704  0.57967  1.0000
  Fe  Fe97      1.0  0.48978  0.93155  0.67638  1.0000
  C   C643      1.0  0.45171  0.72433  0.81828  1.0000
  H   H1073     1.0  0.25984  0.74946  0.78869  1.0000
  H   H1074     1.0  0.36954  0.92018  0.58610  1.0000
  H   H1075     1.0  0.46601  0.50479  0.59525  1.0000
  C   C644      1.0  0.48436  0.54175  0.53729  1.0000
  H   H1076     1.0  0.45994  0.70745  0.84252  1.0000
  C   C645      1.0  0.45367  0.49770  0.67912  1.0000
  C   C646      1.0  0.42534  0.54488  0.73308  1.0000
  H   H1077     1.0  0.48562  0.89660  0.53645  1.0000
  C   C647      1.0  0.40132  0.95319  0.69638  1.0000
  C   C648      1.0  0.33043  0.85718  0.52844  1.0000
  H   H1078     1.0  0.38922  0.62771  0.97728  1.0000
  S   S195      1.0  0.45219  0.61699  0.87463  1.0000
  C   C649      1.0  0.41399  0.96647  0.70356  1.0000
  C   C650      1.0  0.45375  0.92154  0.60334  1.0000
  C   C651      1.0  0.42880  0.54803  0.76457  1.0000
  H   H1079     1.0  0.44225  0.66832  0.81365  1.0000
  H   H1080     1.0  0.40741  0.56126  0.84623  1.0000
  C   C652      1.0  0.46845  0.60242  0.80145  1.0000
  C   C653      1.0  0.48572  0.87887  0.78077  1.0000
  S   S196      1.0  0.48016  0.61603  0.74696  1.0000
  H   H1081     1.0  0.35913  0.53972  0.98178  1.0000
  H   H1082     1.0  0.37457  0.80637  0.93944  1.0000
  S   S197      1.0  0.46267  0.57625  0.70554  1.0000
  H   H1083     1.0  0.45951  0.64058  0.82558  1.0000
  S   S198      1.0  0.48905  0.56009  0.68038  1.0000
  C   C654      1.0  0.46194  0.62994  0.81899  1.0000
  H   H1084     1.0  0.39519  0.59184  0.86445  1.0000
  C   C655      1.0  0.24726  0.58072  0.81614  1.0000
  C   C656      1.0  0.39172  0.97088  0.66669  1.0000
  C   C657      1.0  0.41802  0.82790  0.81068  1.0000
  C   C658      1.0  0.46006  0.51970  0.49281  1.0000
  C   C659      1.0  0.34676  0.53232  0.98380  1.0000
  H   H1085     1.0  0.45372  0.67893  0.84071  1.0000
  C   C660      1.0  0.41398  0.51558  0.72696  1.0000
  C   C661      1.0  0.47143  0.61567  0.78200  1.0000
  H   H1086     1.0  0.29630  0.49905  0.81916  1.0000
  H   H1087     1.0  0.42502  0.53733  0.77953  1.0000
  H   H1088     1.0  0.43024  0.75431  0.93788  1.0000
  H   H1089     1.0  0.26416  0.71013  0.80995  1.0000
  C   C662      1.0  0.24760  0.51864  0.80192  1.0000
  H   H1090     1.0  0.45226  0.77036  0.95952  1.0000
  C   C663      1.0  0.36090  0.50652  0.71141  1.0000
  H   H1091     1.0  0.40948  0.67799  0.80764  1.0000
  Fe  Fe98      1.0  0.47487  0.55902  0.72137  1.0000
  H   H1092     1.0  0.41559  0.82161  0.83229  1.0000
  H   H1093     1.0  0.40822  0.82082  0.79803  1.0000
  C   C664      1.0  0.47164  0.58147  0.56365  1.0000
  H   H1094     1.0  0.44139  0.55362  0.54204  1.0000
  H   H1095     1.0  0.46713  0.71128  0.80625  1.0000
  C   C665      1.0  0.46814  0.62942  0.79098  1.0000
  H   H1096     1.0  0.40534  0.93471  0.52714  1.0000
  H   H1097     1.0  0.42422  0.51649  0.71169  1.0000
  H   H1098     1.0  0.42719  0.58792  0.84368  1.0000
  H   H1099     1.0  0.48737  0.51088  0.66593  1.0000
  H   H1100     1.0  0.38140  0.53803  0.88714  1.0000
  H   H1101     1.0  0.40257  0.91529  0.54354  1.0000
  H   H1102     1.0  0.43200  0.81280  0.79736  1.0000
  C   C666      1.0  0.35721  0.89757  0.49557  1.0000
  H   H1103     1.0  0.47206  0.96085  0.72481  1.0000
  C   C667      1.0  0.39006  0.54377  0.74888  1.0000
  C   C668      1.0  0.41689  0.53483  0.67282  1.0000
  C   C669      1.0  0.41810  0.50876  0.75518  1.0000
  C   C670      1.0  0.42842  0.70407  0.77516  1.0000
  H   H1104     1.0  0.42494  0.70007  0.83661  1.0000
  H   H1105     1.0  0.38262  0.54366  0.73045  1.0000
  H   H1106     1.0  0.38683  0.51870  0.74551  1.0000
  C   C671      1.0  0.41566  0.98203  0.69227  1.0000
  H   H1107     1.0  0.25084  0.59411  0.77450  1.0000
  H   H1108     1.0  0.25124  0.60605  0.80404  1.0000
  C   C672      1.0  0.34672  0.78310  0.95008  1.0000
  C   C673      1.0  0.37935  0.77852  0.95492  1.0000
  H   H1109     1.0  0.25872  0.56680  0.85971  1.0000
  C   C674      1.0  0.39684  0.52962  0.74897  1.0000
  Fe  Fe99      1.0  0.48311  0.59482  0.72347  1.0000
  H   H1110     1.0  0.44971  0.51213  0.60231  1.0000
  H   H1111     1.0  0.34841  0.51685  0.74197  1.0000
  C   C675      1.0  0.40526  0.53464  0.69845  1.0000
  H   H1112     1.0  0.41079  0.88254  0.61761  1.0000
  H   H1113     1.0  0.24628  0.70829  0.91543  1.0000
  H   H1114     1.0  0.47101  0.59180  0.79499  1.0000
  C   C676      1.0  0.39657  0.97400  0.56541  1.0000
  C   C677      1.0  0.37015  0.89168  0.49726  1.0000
  H   H1115     1.0  0.39621  0.98084  0.54516  1.0000
  C   C678      1.0  0.41646  0.59170  0.84190  1.0000
  C   C679      1.0  0.45901  0.71983  0.98144  1.0000
  H   H1116     1.0  0.33779  0.78942  0.94675  1.0000
  H   H1117     1.0  0.40847  0.88976  0.58258  1.0000
  H   H1118     1.0  0.38738  0.56077  0.84924  1.0000
  H   H1119     1.0  0.37386  0.57915  0.93465  1.0000
  H   H1120     1.0  0.29703  0.51437  0.76629  1.0000
  H   H1121     1.0  0.25075  0.51135  0.88272  1.0000
  H   H1122     1.0  0.46535  0.92326  0.59145  1.0000
  H   H1123     1.0  0.43694  0.51381  0.51471  1.0000
  C   C680      1.0  0.43965  0.69424  0.78275  1.0000
  H   H1124     1.0  0.47832  0.87677  0.82565  1.0000
  H   H1125     1.0  0.45911  0.96658  0.68542  1.0000
  H   H1126     1.0  0.32985  0.76053  0.80169  1.0000
  S   S199      1.0  0.34982  0.53106  0.92553  1.0000
  Fe  Fe100     1.0  0.33801  0.51667  0.82131  1.0000
  H   H1127     1.0  0.44303  0.53326  0.58256  1.0000
  H   H1128     1.0  0.32652  0.83367  0.51408  1.0000
  H   H1129     1.0  0.26329  0.73124  0.78042  1.0000
  H   H1130     1.0  0.41417  0.73823  0.95408  1.0000
  C   C681      1.0  0.45088  0.68005  0.81799  1.0000
  H   H1131     1.0  0.49029  0.54161  0.55757  1.0000
  H   H1132     1.0  0.47881  0.83303  0.78985  1.0000
  H   H1133     1.0  0.31663  0.50216  0.78172  1.0000
  H   H1134     1.0  0.45544  0.93209  0.61633  1.0000
  H   H1135     1.0  0.48540  0.64288  0.50889  1.0000
  H   H1136     1.0  0.31671  0.74785  0.77854  1.0000
  C   C682      1.0  0.46627  0.68132  0.79978  1.0000
  C   C683      1.0  0.45936  0.97339  0.74996  1.0000
  N   N47       1.0  0.47786  0.98468  0.70469  1.0000
  H   H1137     1.0  0.27992  0.49569  0.79727  1.0000
  H   H1138     1.0  0.45338  0.98290  0.69662  1.0000
  C   C684      1.0  0.48062  0.84576  0.78754  1.0000
  H   H1139     1.0  0.39957  0.55549  0.74865  1.0000
  C   C685      1.0  0.48029  0.58536  0.53697  1.0000
  H   H1140     1.0  0.46039  0.76041  0.93464  1.0000
  N   N48       1.0  0.35793  0.79102  0.97213  1.0000
  Fe  Fe101     1.0  0.47876  0.57911  0.66555  1.0000
  H   H1141     1.0  0.47667  0.69113  0.80602  1.0000
  H   H1142     1.0  0.35217  0.82167  0.97100  1.0000
  H   H1143     1.0  0.46347  0.50284  0.74794  1.0000
  H   H1144     1.0  0.25423  0.58666  0.83392  1.0000
  H   H1145     1.0  0.45875  0.57722  0.56461  1.0000
  H   H1146     1.0  0.44814  0.96891  0.73896  1.0000
  H   H1147     1.0  0.38618  0.77074  0.96300  1.0000
  H   H1148     1.0  0.44697  0.50211  0.55539  1.0000
  H   H1149     1.0  0.38454  0.97092  0.57646  1.0000
  H   H1150     1.0  0.48856  0.97271  0.67418  1.0000
  H   H1151     1.0  0.49087  0.53452  0.63903  1.0000
  C   C686      1.0  0.47405  0.97337  0.73097  1.0000
  H   H1152     1.0  0.44576  0.53428  0.50328  1.0000
  H   H1153     1.0  0.48740  0.89156  0.77846  1.0000
  H   H1154     1.0  0.30912  0.51318  0.73567  1.0000
  H   H1155     1.0  0.38833  0.78960  0.94532  1.0000
  H   H1156     1.0  0.42971  0.51633  0.76211  1.0000
  H   H1157     1.0  0.46354  0.50927  0.50049  1.0000
  H   H1158     1.0  0.44869  0.71268  0.97004  1.0000
  H   H1159     1.0  0.35093  0.81528  0.93483  1.0000
  H   H1160     1.0  0.42383  0.75453  0.97482  1.0000
  C   C687      1.0  0.46609  0.98715  0.65578  1.0000
  H   H1161     1.0  0.36832  0.61653  0.97481  1.0000
  H   H1162     1.0  0.32383  0.86598  0.53047  1.0000
  C   C688      1.0  0.38059  0.61583  0.97359  1.0000
  H   H1163     1.0  0.24675  0.52056  0.77927  1.0000
  H   H1164     1.0  0.38860  0.52469  0.49859  1.0000
  H   H1165     1.0  0.34296  0.86358  0.52108  1.0000
  H   H1166     1.0  0.30931  0.83959  0.51558  1.0000
  H   H1167     1.0  0.48622  0.76769  0.95884  1.0000
  H   H1168     1.0  0.46870  0.71451  0.97730  1.0000
  H   H1169     1.0  0.36428  0.53054  0.49006  1.0000
  H   H1170     1.0  0.25309  0.54564  0.86493  1.0000
  H   H1171     1.0  0.28936  0.49926  0.74123  1.0000
  N   N49       1.0  0.45362  0.74716  0.97552  1.0000
  H   H1172     1.0  0.37672  0.59096  0.98502  1.0000
  C   C689      1.0  0.47696  0.77337  0.96398  1.0000
  H   H1173     1.0  0.43100  0.72811  0.98290  1.0000
  H   H1174     1.0  0.48450  0.62334  0.52270  1.0000
  H   H1175     1.0  0.48887  0.84800  0.74308  1.0000
  H   H1176     1.0  0.24339  0.54924  0.82059  1.0000
  H   H1177     1.0  0.36001  0.85264  0.49561  1.0000
  H   H1178     1.0  0.38573  0.50384  0.49162  1.0000
  H   H1179     1.0  0.47749  0.77688  0.98632  1.0000
  H   H1180     1.0  0.24169  0.55578  0.88369  1.0000
  Fe  Fe102     1.0  0.56540  0.48060  0.43236  1.0000
  S   S200      1.0  0.53998  0.46503  0.43676  1.0000
  S   S201      1.0  0.58622  0.47255  0.44272  1.0000
  H   H1181     1.0  0.59092  0.11122  0.23045  1.0000
  S   S202      1.0  0.52918  0.39887  0.38251  1.0000
  Fe  Fe103     1.0  0.52486  0.31618  0.17432  1.0000
  S   S203      1.0  0.54903  0.31248  0.17392  1.0000
  H   H1182     1.0  0.57227  0.13218  0.20688  1.0000
  Fe  Fe104     1.0  0.52523  0.31662  0.10843  1.0000
  S   S204      1.0  0.54905  0.31285  0.10481  1.0000
  C   C690      1.0  0.70437  0.42537  0.11321  1.0000
  Fe  Fe105     1.0  0.53964  0.29437  0.14140  1.0000
  S   S205      1.0  0.54668  0.27149  0.14009  1.0000
  Fe  Fe106     1.0  0.55590  0.33106  0.13758  1.0000
  S   S206      1.0  0.57758  0.35287  0.12804  1.0000
  S   S207      1.0  0.51505  0.29693  0.14345  1.0000
  S   S208      1.0  0.53248  0.33589  0.13973  1.0000
  Fe  Fe107     1.0  0.50678  0.15466  0.10759  1.0000
  S   S209      1.0  0.52796  0.17490  0.11870  1.0000
  C   C691      1.0  0.49960  0.15868  0.00461  1.0000
  H   H1183     1.0  0.53162  0.13732  0.99792  1.0000
  S   S210      1.0  0.52274  0.15805  0.18476  1.0000
  H   H1184     1.0  0.66364  0.47240  0.23232  1.0000
  Fe  Fe108     1.0  0.51359  0.17544  0.15907  1.0000
  S   S211      1.0  0.50843  0.19794  0.17373  1.0000
  Fe  Fe109     1.0  0.53510  0.15587  0.14290  1.0000
  S   S212      1.0  0.55880  0.15160  0.13529  1.0000
  H   H1185     1.0  0.54999  0.28494  0.26243  1.0000
  S   S213      1.0  0.51479  0.13552  0.12934  1.0000
  Fe  Fe110     1.0  0.66819  0.17895  0.13690  1.0000
  S   S214      1.0  0.66623  0.20167  0.15430  1.0000
  S   S215      1.0  0.67706  0.18229  0.08982  1.0000
  Fe  Fe111     1.0  0.65932  0.16070  0.19662  1.0000
  S   S216      1.0  0.65741  0.18253  0.21710  1.0000
  S   S217      1.0  0.65126  0.13565  0.22002  1.0000
  Fe  Fe112     1.0  0.64424  0.18587  0.17904  1.0000
  S   S218      1.0  0.62217  0.19325  0.18634  1.0000
  Fe  Fe113     1.0  0.67989  0.19648  0.19043  1.0000
  S   S219      1.0  0.69817  0.21725  0.21021  1.0000
  S   S220      1.0  0.64506  0.16349  0.15912  1.0000
  S   S221      1.0  0.68296  0.17424  0.17243  1.0000
  Fe  Fe114     1.0  0.63741  0.45025  0.21969  1.0000
  S   S222      1.0  0.65073  0.43385  0.23580  1.0000
  S   S223      1.0  0.62814  0.46775  0.24465  1.0000
  Fe  Fe115     1.0  0.63691  0.43809  0.15852  1.0000
  S   S224      1.0  0.64991  0.42094  0.17106  1.0000
  S   S225      1.0  0.62622  0.43549  0.11522  1.0000
  Fe  Fe116     1.0  0.63368  0.41538  0.21060  1.0000
  S   S226      1.0  0.61937  0.38986  0.22481  1.0000
  Fe  Fe117     1.0  0.66592  0.44100  0.19422  1.0000
  S   S227      1.0  0.69284  0.44933  0.18154  1.0000
  S   S228      1.0  0.61967  0.43132  0.19710  1.0000
  S   S229      1.0  0.65356  0.45864  0.17940  1.0000
  Fe  Fe118     1.0  0.61092  0.08290  0.36909  1.0000
  S   S230      1.0  0.59438  0.08658  0.40444  1.0000
  S   S231      1.0  0.62932  0.10610  0.34856  1.0000
  Fe  Fe119     1.0  0.59363  0.04606  0.37436  1.0000
  S   S232      1.0  0.57591  0.04769  0.40842  1.0000
  Fe  Fe120     1.0  0.57532  0.06921  0.38170  1.0000
  S   S233      1.0  0.55384  0.07528  0.36829  1.0000
  Fe  Fe121     1.0  0.59676  0.06469  0.42833  1.0000
  S   S234      1.0  0.59942  0.05734  0.47498  1.0000
  S   S235      1.0  0.59144  0.06640  0.34577  1.0000
  S   S236      1.0  0.61489  0.06221  0.39488  1.0000
  C   C692      1.0  0.69093  0.17967  0.25535  1.0000
  C   C693      1.0  0.53736  0.05856  0.36326  1.0000
  C   C694      1.0  0.53560  0.04370  0.37734  1.0000
  C   C695      1.0  0.52122  0.03114  0.37670  1.0000
  C   C696      1.0  0.50872  0.03338  0.36164  1.0000
  C   C697      1.0  0.51073  0.04803  0.34670  1.0000
  C   C698      1.0  0.52500  0.06062  0.34762  1.0000
  H   H1186     1.0  0.54492  0.04214  0.38997  1.0000
  H   H1187     1.0  0.51952  0.02004  0.38913  1.0000
  H   H1188     1.0  0.64081  0.20785  0.05595  1.0000
  H   H1189     1.0  0.52632  0.07208  0.33671  1.0000
  H   H1190     1.0  0.59844  0.16624  0.25752  1.0000
  C   C699      1.0  0.55658  0.28144  0.22014  1.0000
  C   C700      1.0  0.63612  0.44296  0.08149  1.0000
  C   C701      1.0  0.64958  0.45661  0.07830  1.0000
  C   C702      1.0  0.65722  0.46199  0.05110  1.0000
  C   C703      1.0  0.55323  0.09024  0.44028  1.0000
  C   C704      1.0  0.63021  0.43496  0.05718  1.0000
  H   H1191     1.0  0.65403  0.46306  0.09676  1.0000
  H   H1192     1.0  0.61180  0.11820  0.23461  1.0000
  H   H1193     1.0  0.61970  0.42450  0.05943  1.0000
  C   C705      1.0  0.72561  0.43985  0.23282  1.0000
  C   C706      1.0  0.71099  0.44050  0.22265  1.0000
  C   C707      1.0  0.71052  0.44677  0.19496  1.0000
  C   C708      1.0  0.72481  0.45214  0.17756  1.0000
  H   H1194     1.0  0.72585  0.43512  0.25435  1.0000
  H   H1195     1.0  0.70016  0.43631  0.23635  1.0000
  H   H1196     1.0  0.72466  0.45715  0.15620  1.0000
  C   C709      1.0  0.64512  0.12788  0.25600  1.0000
  C   C710      1.0  0.64822  0.13748  0.27931  1.0000
  C   C711      1.0  0.64333  0.13060  0.30735  1.0000
  C   C712      1.0  0.63492  0.11414  0.31256  1.0000
  C   C713      1.0  0.63164  0.10462  0.28919  1.0000
  C   C714      1.0  0.63691  0.11141  0.26125  1.0000
  H   H1197     1.0  0.65442  0.15016  0.27583  1.0000
  H   H1198     1.0  0.64599  0.13811  0.32520  1.0000
  H   H1199     1.0  0.62535  0.09194  0.29270  1.0000
  H   H1200     1.0  0.63454  0.10379  0.24351  1.0000
  C   C715      1.0  0.66695  0.17511  0.05895  1.0000
  C   C716      1.0  0.67433  0.18142  0.03197  1.0000
  S   S237      1.0  0.66209  0.46041  0.99346  1.0000
  C   C717      1.0  0.64451  0.15803  0.03527  1.0000
  C   C718      1.0  0.65199  0.16333  0.06048  1.0000
  H   H1201     1.0  0.68603  0.19028  0.03061  1.0000
  H   H1202     1.0  0.61905  0.17593  0.24765  1.0000
  C   C719      1.0  0.70247  0.24151  0.01485  1.0000
  H   H1203     1.0  0.64629  0.15817  0.08105  1.0000
  C   C720      1.0  0.52983  0.24644  0.22865  1.0000
  H   H1204     1.0  0.68108  0.16827  0.25948  1.0000
  H   H1205     1.0  0.56498  0.38964  0.15813  1.0000
  C   C721      1.0  0.73954  0.25496  0.20083  1.0000
  C   C722      1.0  0.61802  0.47432  0.34001  1.0000
  C   C723      1.0  0.57566  0.16263  0.15212  1.0000
  C   C724      1.0  0.58926  0.15770  0.15043  1.0000
  C   C725      1.0  0.60345  0.16685  0.16147  1.0000
  C   C726      1.0  0.60410  0.18091  0.17458  1.0000
  C   C727      1.0  0.59038  0.18569  0.17690  1.0000
  C   C728      1.0  0.57614  0.17655  0.16568  1.0000
  H   H1206     1.0  0.58885  0.14686  0.14013  1.0000
  H   H1207     1.0  0.61385  0.16303  0.15961  1.0000
  H   H1208     1.0  0.59084  0.19661  0.18694  1.0000
  H   H1209     1.0  0.56565  0.18040  0.16703  1.0000
  C   C729      1.0  0.55766  0.35691  0.00885  1.0000
  H   H1210     1.0  0.62797  0.01952  0.38090  1.0000
  H   H1211     1.0  0.49431  0.08932  0.48484  1.0000
  H   H1212     1.0  0.60488  0.20485  0.05141  1.0000
  C   C730      1.0  0.51722  0.14626  0.02688  1.0000
  H   H1213     1.0  0.67667  0.43364  0.13177  1.0000
  H   H1214     1.0  0.52220  0.21866  0.05976  1.0000
  H   H1215     1.0  0.62599  0.01023  0.46690  1.0000
  H   H1216     1.0  0.52175  0.14226  0.04584  1.0000
  H   H1217     1.0  0.59733  0.11082  0.31127  1.0000
  C   C731      1.0  0.58916  0.36272  0.15532  1.0000
  C   C732      1.0  0.59897  0.37860  0.14974  1.0000
  C   C733      1.0  0.60826  0.38693  0.17091  1.0000
  C   C734      1.0  0.60798  0.37939  0.19783  1.0000
  C   C735      1.0  0.59826  0.36344  0.20341  1.0000
  C   C736      1.0  0.58883  0.35512  0.18224  1.0000
  H   H1218     1.0  0.59933  0.38457  0.12898  1.0000
  H   H1219     1.0  0.61563  0.39923  0.16632  1.0000
  H   H1220     1.0  0.59807  0.35751  0.22413  1.0000
  H   H1221     1.0  0.58146  0.34280  0.18661  1.0000
  H   H1222     1.0  0.68944  0.18382  0.23329  1.0000
  H   H1223     1.0  0.51006  0.10399  0.44154  1.0000
  H   H1224     1.0  0.68473  0.15266  0.22429  1.0000
  C   C737      1.0  0.53776  0.09331  0.45121  1.0000
  H   H1225     1.0  0.64173  0.21676  0.13317  1.0000
  C   C738      1.0  0.67558  0.42055  0.03548  1.0000
  C   C739      1.0  0.61641  0.48077  0.28951  1.0000
  H   H1226     1.0  0.59642  0.13267  0.18757  1.0000
  C   C740      1.0  0.52837  0.09772  0.40474  1.0000
  H   H1227     1.0  0.50190  0.22888  0.09233  1.0000
  C   C741      1.0  0.53549  0.25100  0.14777  1.0000
  C   C742      1.0  0.54329  0.23937  0.14566  1.0000
  C   C743      1.0  0.53511  0.22303  0.15282  1.0000
  C   C744      1.0  0.51905  0.21818  0.16270  1.0000
  C   C745      1.0  0.51123  0.22981  0.16471  1.0000
  C   C746      1.0  0.51929  0.24607  0.15672  1.0000
  H   H1228     1.0  0.55583  0.24304  0.13874  1.0000
  H   H1229     1.0  0.54132  0.21425  0.15136  1.0000
  C   C747      1.0  0.59126  0.38079  0.00508  1.0000
  H   H1230     1.0  0.51306  0.25482  0.15781  1.0000
  H   H1231     1.0  0.56654  0.14600  0.22859  1.0000
  C   C748      1.0  0.51979  0.07046  0.42678  1.0000
  H   H1232     1.0  0.61736  0.13564  0.19215  1.0000
  C   C749      1.0  0.50408  0.35725  0.46675  1.0000
  H   H1233     1.0  0.61030  0.15467  0.21693  1.0000
  H   H1234     1.0  0.58564  0.15208  0.21169  1.0000
  H   H1235     1.0  0.60442  0.11653  0.18443  1.0000
  C   C750      1.0  0.62439  0.46988  0.28160  1.0000
  C   C751      1.0  0.62918  0.46121  0.30313  1.0000
  C   C752      1.0  0.62612  0.46353  0.33208  1.0000
  H   H1236     1.0  0.63527  0.45276  0.29751  1.0000
  H   H1237     1.0  0.62993  0.45679  0.34852  1.0000
  C   C753      1.0  0.53741  0.44698  0.42079  1.0000
  C   C754      1.0  0.54943  0.43974  0.42059  1.0000
  C   C755      1.0  0.54692  0.42495  0.40869  1.0000
  C   C756      1.0  0.53254  0.41757  0.39650  1.0000
  C   C757      1.0  0.52083  0.42516  0.39564  1.0000
  C   C758      1.0  0.52312  0.43968  0.40832  1.0000
  H   H1238     1.0  0.56058  0.44541  0.42979  1.0000
  H   H1239     1.0  0.55610  0.41924  0.40895  1.0000
  H   H1240     1.0  0.57114  0.34089  0.06639  1.0000
  H   H1241     1.0  0.51391  0.44539  0.40797  1.0000
  H   H1242     1.0  0.60012  0.13786  0.29353  1.0000
  C   C759      1.0  0.71762  0.22985  0.19758  1.0000
  C   C760      1.0  0.54466  0.28507  0.24153  1.0000
  H   H1243     1.0  0.57962  0.14123  0.26753  1.0000
  H   H1244     1.0  0.61570  0.13142  0.27887  1.0000
  C   C761      1.0  0.57658  0.14152  0.22231  1.0000
  H   H1245     1.0  0.58234  0.42948  0.31194  1.0000
  H   H1246     1.0  0.54557  0.43276  0.34416  1.0000
  H   H1247     1.0  0.55747  0.42068  0.33824  1.0000
  H   H1248     1.0  0.58057  0.11020  0.29110  1.0000
  H   H1249     1.0  0.66763  0.47254  0.04879  1.0000
  H   H1250     1.0  0.51128  0.38859  0.43832  1.0000
  H   H1251     1.0  0.55860  0.09752  0.42036  1.0000
  C   C762      1.0  0.61309  0.00602  0.41746  1.0000
  H   H1252     1.0  0.71723  0.43253  0.11199  1.0000
  H   H1253     1.0  0.51840  0.23806  0.22241  1.0000
  H   H1254     1.0  0.50928  0.00806  0.31876  1.0000
  H   H1255     1.0  0.69051  0.24316  0.01639  1.0000
  H   H1256     1.0  0.68581  0.15722  0.29837  1.0000
  H   H1257     1.0  0.69924  0.42898  0.13263  1.0000
  H   H1258     1.0  0.50286  0.34219  0.19692  1.0000
  H   H1259     1.0  0.51461  0.25050  0.26205  1.0000
  H   H1260     1.0  0.54617  0.26303  0.99203  1.0000
  H   H1261     1.0  0.54670  0.01456  0.34814  1.0000
  C   C763      1.0  0.56682  0.36738  0.05436  1.0000
  H   H1262     1.0  0.56875  0.31675  0.03972  1.0000
  H   H1263     1.0  0.54037  0.36047  0.05821  1.0000
  C   C764      1.0  0.69427  0.14984  0.23586  1.0000
  H   H1264     1.0  0.51214  0.08296  0.37521  1.0000
  C   C765      1.0  0.68767  0.46633  0.25538  1.0000
  C   C766      1.0  0.49805  0.35416  0.43666  1.0000
  C   C767      1.0  0.73936  0.45125  0.18757  1.0000
  H   H1265     1.0  0.68281  0.45825  0.23816  1.0000
  H   H1266     1.0  0.56818  0.29119  0.21988  1.0000
  C   C768      1.0  0.53099  0.37287  0.44919  1.0000
  C   C769      1.0  0.71315  0.48865  0.21582  1.0000
  H   H1267     1.0  0.68251  0.46257  0.12193  1.0000
  H   H1268     1.0  0.53189  0.40492  0.47973  1.0000
  H   H1269     1.0  0.57621  0.36902  0.07005  1.0000
  N   N50       1.0  0.60433  0.00745  0.44509  1.0000
  H   H1270     1.0  0.58674  0.33267  0.03033  1.0000
  H   H1271     1.0  0.55138  0.07741  0.43706  1.0000
  S   S238      1.0  0.49168  0.36432  0.36453  1.0000
  Fe  Fe122     1.0  0.50369  0.39028  0.37064  1.0000
  H   H1272     1.0  0.55024  0.36997  0.08799  1.0000
  C   C770      1.0  0.55055  0.36134  0.07166  1.0000
  H   H1273     1.0  0.66899  0.40773  0.04072  1.0000
  H   H1274     1.0  0.59108  0.38998  0.02030  1.0000
  H   H1275     1.0  0.52419  0.38634  0.22977  1.0000
  N   N51       1.0  0.70715  0.17752  0.25700  1.0000
  H   H1276     1.0  0.52914  0.06841  0.41248  1.0000
  H   H1277     1.0  0.69225  0.21717  0.00549  1.0000
  H   H1278     1.0  0.50433  0.09736  0.39183  1.0000
  H   H1279     1.0  0.60374  0.38403  0.99579  1.0000
  C   C771      1.0  0.70248  0.22750  0.99636  1.0000
  H   H1280     1.0  0.69848  0.16090  0.32662  1.0000
  H   H1281     1.0  0.53693  0.25289  0.20939  1.0000
  H   H1282     1.0  0.49210  0.21639  0.12232  1.0000
  H   H1283     1.0  0.50632  0.19771  0.11362  1.0000
  H   H1284     1.0  0.49337  0.35658  0.48068  1.0000
  H   H1285     1.0  0.68905  0.48006  0.20235  1.0000
  C   C772      1.0  0.54088  0.37311  0.23987  1.0000
  H   H1286     1.0  0.59667  0.10352  0.27665  1.0000
  H   H1287     1.0  0.61383  0.16313  0.27937  1.0000
  H   H1288     1.0  0.64978  0.21634  0.09795  1.0000
  C   C773      1.0  0.69548  0.48807  0.21862  1.0000
  H   H1289     1.0  0.62367  0.15005  0.23967  1.0000
  H   H1290     1.0  0.54793  0.37234  0.25860  1.0000
  H   H1291     1.0  0.56227  0.00536  0.39009  1.0000
  H   H1292     1.0  0.68773  0.18772  0.29845  1.0000
  H   H1293     1.0  0.56480  0.40666  0.20487  1.0000
  H   H1294     1.0  0.57550  0.38104  0.19666  1.0000
  N   N52       1.0  0.52767  0.27403  0.24297  1.0000
  H   H1295     1.0  0.59755  0.17792  0.06591  1.0000
  H   H1296     1.0  0.52866  0.38590  0.26613  1.0000
  H   H1297     1.0  0.62034  0.99782  0.42062  1.0000
  C   C774      1.0  0.59897  0.21091  0.09319  1.0000
  H   H1298     1.0  0.50615  0.19440  0.03385  1.0000
  C   C775      1.0  0.55241  0.46495  0.32617  1.0000
  H   H1299     1.0  0.57637  0.47019  0.30731  1.0000
  C   C776      1.0  0.54347  0.37970  0.18756  1.0000
  C   C777      1.0  0.56634  0.34026  0.04478  1.0000
  H   H1300     1.0  0.67409  0.40130  0.08604  1.0000
  C   C778      1.0  0.55264  0.38123  0.15829  1.0000
  H   H1301     1.0  0.51991  0.10359  0.36428  1.0000
  H   H1302     1.0  0.68929  0.14389  0.25691  1.0000
  H   H1303     1.0  0.53144  0.30094  0.04786  1.0000
  H   H1304     1.0  0.63420  0.22548  0.10457  1.0000
  C   C779      1.0  0.62591  0.19888  0.10870  1.0000
  C   C780      1.0  0.60504  0.12726  0.19639  1.0000
  H   H1305     1.0  0.73867  0.22975  0.09763  1.0000
  C   C781      1.0  0.63165  0.19581  0.05831  1.0000
  C   C782      1.0  0.63859  0.21538  0.11062  1.0000
  C   C783      1.0  0.61038  0.16462  0.25732  1.0000
  H   H1306     1.0  0.61651  0.19775  0.12580  1.0000
  H   H1307     1.0  0.63170  0.18980  0.11507  1.0000
  H   H1308     1.0  0.53519  0.25707  0.26896  1.0000
  H   H1309     1.0  0.59497  0.44016  0.35697  1.0000
  H   H1310     1.0  0.71441  0.47653  0.21706  1.0000
  H   H1311     1.0  0.51532  0.28376  0.30991  1.0000
  H   H1312     1.0  0.63860  0.18786  0.06520  1.0000
  C   C784      1.0  0.69682  0.42872  0.08554  1.0000
  H   H1313     1.0  0.61270  0.48760  0.27308  1.0000
  C   C785      1.0  0.53076  0.30185  0.00193  1.0000
  C   C786      1.0  0.59367  0.11259  0.28938  1.0000
  C   C787      1.0  0.58319  0.43907  0.36762  1.0000
  H   H1314     1.0  0.57387  0.12244  0.25340  1.0000
  H   H1315     1.0  0.50901  0.06665  0.41438  1.0000
  C   C788      1.0  0.61666  0.01623  0.46480  1.0000
  H   H1316     1.0  0.49980  0.25331  0.22144  1.0000
  C   C789      1.0  0.50615  0.33135  0.26602  1.0000
  C   C790      1.0  0.66989  0.48230  0.24557  1.0000
  S   S239      1.0  0.51508  0.32307  0.06749  1.0000
  H   H1317     1.0  0.68109  0.44369  0.05205  1.0000
  H   H1318     1.0  0.51982  0.41262  0.45791  1.0000
  H   H1319     1.0  0.63450  0.18667  0.01679  1.0000
  C   C791      1.0  0.68719  0.19142  0.27581  1.0000
  H   H1320     1.0  0.51883  0.00985  0.28345  1.0000
  H   H1321     1.0  0.71159  0.25290  0.00730  1.0000
  H   H1322     1.0  0.59367  0.21968  0.08359  1.0000
  C   C792      1.0  0.51977  0.31762  0.03306  1.0000
  H   H1323     1.0  0.53255  0.11075  0.40835  1.0000
  H   H1324     1.0  0.64643  0.39304  0.10870  1.0000
  H   H1325     1.0  0.52209  0.28806  0.20849  1.0000
  S   S240      1.0  0.61415  0.47631  0.37701  1.0000
  N   N53       1.0  0.56936  0.35692  0.03123  1.0000
  H   H1326     1.0  0.69500  0.20392  0.27100  1.0000
  C   C793      1.0  0.51110  0.38657  0.46189  1.0000
  C   C794      1.0  0.50541  0.15371  0.02959  1.0000
  H   H1327     1.0  0.51958  0.04748  0.44579  1.0000
  C   C795      1.0  0.67021  0.40997  0.09865  1.0000
  H   H1328     1.0  0.58985  0.35619  0.00421  1.0000
  H   H1329     1.0  0.55810  0.44820  0.47977  1.0000
  H   H1330     1.0  0.67886  0.44537  0.28467  1.0000
  H   H1331     1.0  0.70126  0.14783  0.29993  1.0000
  H   H1332     1.0  0.50705  0.35191  0.42168  1.0000
  N   N54       1.0  0.59931  0.13457  0.24800  1.0000
  C   C796      1.0  0.60279  0.12990  0.27772  1.0000
  C   C797      1.0  0.61128  0.15073  0.23926  1.0000
  C   C798      1.0  0.60154  0.12219  0.22843  1.0000
  C   C799      1.0  0.58229  0.13479  0.24909  1.0000
  H   H1333     1.0  0.53647  0.23866  0.23749  1.0000
  H   H1334     1.0  0.59795  0.17858  0.10301  1.0000
  H   H1335     1.0  0.53149  0.20670  0.07867  1.0000
  H   H1336     1.0  0.64777  0.40490  0.07637  1.0000
  C   C800      1.0  0.61313  0.48290  0.31846  1.0000
  H   H1337     1.0  0.53386  0.36147  0.45224  1.0000
  C   C801      1.0  0.65182  0.16449  0.00831  1.0000
  H   H1338     1.0  0.71257  0.18406  0.30029  1.0000
  H   H1339     1.0  0.53497  0.08759  0.47307  1.0000
  C   C802      1.0  0.57506  0.45014  0.35251  1.0000
  H   H1340     1.0  0.57572  0.42636  0.36934  1.0000
  H   H1341     1.0  0.58553  0.44288  0.38962  1.0000
  H   H1342     1.0  0.58449  0.40700  0.20950  1.0000
  H   H1343     1.0  0.49860  0.34185  0.30269  1.0000
  C   C803      1.0  0.52449  0.28161  0.29509  1.0000
  H   H1344     1.0  0.50598  0.18824  0.08207  1.0000
  H   H1345     1.0  0.54641  0.38614  0.14202  1.0000
  H   H1346     1.0  0.54496  0.29769  0.23660  1.0000
  H   H1347     1.0  0.70580  0.49128  0.27696  1.0000
  H   H1348     1.0  0.69784  0.14096  0.22342  1.0000
  H   H1349     1.0  0.56789  0.37961  0.04542  1.0000
  H   H1350     1.0  0.56522  0.45075  0.36752  1.0000
  H   H1351     1.0  0.61429  0.18315  0.02760  1.0000
  C   C804      1.0  0.55440  0.43092  0.32822  1.0000
  H   H1352     1.0  0.55296  0.33457  0.22462  1.0000
  C   C805      1.0  0.50986  0.00175  0.29923  1.0000
  H   H1353     1.0  0.53748  0.01952  0.31706  1.0000
  H   H1354     1.0  0.62049  0.21983  0.06547  1.0000
  C   C806      1.0  0.56787  0.38286  0.21476  1.0000
  H   H1355     1.0  0.62638  0.20313  0.01549  1.0000
  H   H1356     1.0  0.55091  0.41614  0.29126  1.0000
  H   H1357     1.0  0.56640  0.35208  0.23749  1.0000
  C   C807      1.0  0.67890  0.45801  0.28364  1.0000
  H   H1358     1.0  0.55285  0.28113  0.19803  1.0000
  H   H1359     1.0  0.68821  0.42210  0.02894  1.0000
  C   C808      1.0  0.50213  0.34215  0.21992  1.0000
  H   H1360     1.0  0.64690  0.41333  0.11035  1.0000
  H   H1361     1.0  0.69902  0.42022  0.07038  1.0000
  H   H1362     1.0  0.67024  0.42430  0.01650  1.0000
  C   C809      1.0  0.58210  0.44180  0.30614  1.0000
  C   C810      1.0  0.54551  0.42442  0.30175  1.0000
  C   C811      1.0  0.55395  0.34669  0.23162  1.0000
  H   H1363     1.0  0.54558  0.34490  0.25067  1.0000
  H   H1364     1.0  0.50034  0.49210  0.35086  1.0000
  C   C812      1.0  0.51514  0.32456  0.00877  1.0000
  H   H1365     1.0  0.50568  0.27198  0.26782  1.0000
  N   N55       1.0  0.56902  0.44548  0.32361  1.0000
  H   H1366     1.0  0.59142  0.43916  0.26375  1.0000
  C   C813      1.0  0.52281  0.14349  0.99962  1.0000
  H   H1367     1.0  0.55299  0.36954  0.15114  1.0000
  H   H1368     1.0  0.57267  0.37829  0.23359  1.0000
  H   H1369     1.0  0.67869  0.48535  0.30710  1.0000
  C   C814      1.0  0.58198  0.44358  0.27339  1.0000
  H   H1370     1.0  0.58510  0.45637  0.26573  1.0000
  H   H1371     1.0  0.53287  0.41771  0.30854  1.0000
  C   C815      1.0  0.54959  0.35641  0.20690  1.0000
  H   H1372     1.0  0.53732  0.34947  0.20143  1.0000
  H   H1373     1.0  0.55754  0.35598  0.18819  1.0000
  C   C816      1.0  0.57845  0.01414  0.46045  1.0000
  H   H1374     1.0  0.71641  0.24905  0.22347  1.0000
  C   C817      1.0  0.51824  0.28003  0.26492  1.0000
  H   H1375     1.0  0.54480  0.43388  0.28613  1.0000
  H   H1376     1.0  0.55612  0.46934  0.34728  1.0000
  C   C818      1.0  0.72381  0.24499  0.20863  1.0000
  N   N56       1.0  0.61867  0.19557  0.08036  1.0000
  C   C819      1.0  0.51525  0.09510  0.38320  1.0000
  H   H1377     1.0  0.59398  0.44994  0.31100  1.0000
  H   H1378     1.0  0.71837  0.49412  0.19441  1.0000
  H   H1379     1.0  0.70512  0.23858  0.03692  1.0000
  H   H1380     1.0  0.54877  0.34966  0.08339  1.0000
  H   H1381     1.0  0.66352  0.43828  0.10882  1.0000
  H   H1382     1.0  0.49947  0.21963  0.04497  1.0000
  H   H1383     1.0  0.68666  0.46130  0.08485  1.0000
  C   C820      1.0  0.51648  0.05814  0.45247  1.0000
  H   H1384     1.0  0.63549  0.02634  0.41417  1.0000
  H   H1385     1.0  0.61747  0.16325  0.06454  1.0000
  H   H1386     1.0  0.70018  0.46631  0.25692  1.0000
  C   C821      1.0  0.68688  0.45561  0.10623  1.0000
  H   H1387     1.0  0.49517  0.27184  0.22549  1.0000
  C   C822      1.0  0.54582  0.01342  0.32483  1.0000
  H   H1388     1.0  0.60461  0.21610  0.11262  1.0000
  C   C823      1.0  0.52673  0.25707  0.25212  1.0000
  S   S241      1.0  0.59348  0.02220  0.35741  1.0000
  H   H1389     1.0  0.61993  0.16519  0.10234  1.0000
  Fe  Fe123     1.0  0.59876  0.48800  0.40365  1.0000
  H   H1390     1.0  0.56136  0.45751  0.28811  1.0000
  H   H1391     1.0  0.57081  0.40367  0.24048  1.0000
  H   H1392     1.0  0.55329  0.33393  0.04821  1.0000
  C   C824      1.0  0.56531  0.45964  0.30999  1.0000
  C   C825      1.0  0.62627  0.19206  0.02792  1.0000
  H   H1393     1.0  0.56228  0.09380  0.45641  1.0000
  H   H1394     1.0  0.52390  0.06233  0.47051  1.0000
  C   C826      1.0  0.52213  0.21263  0.08088  1.0000
  C   C827      1.0  0.72745  0.22474  0.17865  1.0000
  C   C828      1.0  0.54670  0.38660  0.45071  1.0000
  N   N57       1.0  0.55056  0.37345  0.21235  1.0000
  C   C829      1.0  0.57359  0.32895  0.02901  1.0000
  H   H1395     1.0  0.69933  0.45672  0.11112  1.0000
  C   C830      1.0  0.52782  0.30640  0.02942  1.0000
  C   C831      1.0  0.61169  0.16475  0.08512  1.0000
  C   C832      1.0  0.61122  0.20810  0.07126  1.0000
  H   H1396     1.0  0.66623  0.45757  0.28557  1.0000
  H   H1397     1.0  0.49937  0.26619  0.19112  1.0000
  H   H1398     1.0  0.49783  0.99943  0.29093  1.0000
  H   H1399     1.0  0.57055  0.43664  0.26509  1.0000
  N   N58       1.0  0.67931  0.42699  0.08837  1.0000
  H   H1400     1.0  0.60698  0.49130  0.32410  1.0000
  C   C833      1.0  0.49963  0.34207  0.27968  1.0000
  H   H1401     1.0  0.52774  0.37353  0.42670  1.0000
  C   C834      1.0  0.50738  0.33126  0.23609  1.0000
  H   H1402     1.0  0.73891  0.18482  0.22945  1.0000
  H   H1403     1.0  0.54525  0.35045  0.01749  1.0000
  H   H1404     1.0  0.72297  0.21308  0.17018  1.0000
  C   C835      1.0  0.58653  0.36381  0.01983  1.0000
  H   H1405     1.0  0.58779  0.01363  0.41801  1.0000
  N   N59       1.0  0.52374  0.08788  0.43280  1.0000
  C   C836      1.0  0.60582  0.17949  0.08347  1.0000
  H   H1406     1.0  0.50782  0.34681  0.47403  1.0000
  C   C837      1.0  0.57194  0.40101  0.21780  1.0000
  H   H1407     1.0  0.53026  0.36217  0.24223  1.0000
  H   H1408     1.0  0.53536  0.29213  0.29576  1.0000
  H   H1409     1.0  0.71898  0.20305  0.26031  1.0000
  H   H1410     1.0  0.52698  0.27148  0.19706  1.0000
  H   H1411     1.0  0.71663  0.19708  0.22487  1.0000
  H   H1412     1.0  0.58384  0.46241  0.35103  1.0000
  H   H1413     1.0  0.71162  0.17014  0.21487  1.0000
  H   H1414     1.0  0.71906  0.16079  0.24282  1.0000
  H   H1415     1.0  0.51932  0.00128  0.35525  1.0000
  C   C838      1.0  0.66679  0.17622  0.00679  1.0000
  H   H1416     1.0  0.67293  0.40752  0.12097  1.0000
  Fe  Fe124     1.0  0.59369  0.49454  0.46748  1.0000
  H   H1417     1.0  0.53096  0.37189  0.18552  1.0000
  H   H1418     1.0  0.51005  0.41999  0.38496  1.0000
  C   C839      1.0  0.70883  0.16496  0.23731  1.0000
  H   H1419     1.0  0.72215  0.17100  0.28717  1.0000
  H   H1420     1.0  0.66153  0.43112  0.06168  1.0000
  H   H1421     1.0  0.55047  0.47513  0.31370  1.0000
  C   C840      1.0  0.65149  0.45379  0.02688  1.0000
  H   H1422     1.0  0.57640  0.02583  0.46310  1.0000
  C   C841      1.0  0.52062  0.27532  0.21470  1.0000
  H   H1423     1.0  0.53671  0.29294  0.99957  1.0000
  C   C842      1.0  0.71933  0.19327  0.24645  1.0000
  H   H1424     1.0  0.54076  0.45529  0.32868  1.0000
  H   H1425     1.0  0.54519  0.39826  0.44462  1.0000
  C   C843      1.0  0.71059  0.17354  0.28701  1.0000
  H   H1426     1.0  0.54242  0.39171  0.19084  1.0000
  C   C844      1.0  0.58074  0.00202  0.36181  1.0000
  S   S242      1.0  0.51535  0.31715  0.22017  1.0000
  H   H1427     1.0  0.74134  0.19174  0.26528  1.0000
  C   C845      1.0  0.73692  0.19358  0.24416  1.0000
  H   H1428     1.0  0.50888  0.33323  0.01135  1.0000
  C   C846      1.0  0.50624  0.08829  0.47874  1.0000
  C   C847      1.0  0.63790  0.44027  0.03001  1.0000
  H   H1429     1.0  0.70318  0.41246  0.11634  1.0000
  C   C848      1.0  0.59293  0.01671  0.43887  1.0000
  H   H1430     1.0  0.61846  0.03107  0.40075  1.0000
  H   H1431     1.0  0.50112  0.04980  0.33491  1.0000
  H   H1432     1.0  0.55899  0.27021  0.22665  1.0000
  H   H1433     1.0  0.55786  0.02009  0.31486  1.0000
  H   H1434     1.0  0.54318  0.39894  0.24087  1.0000
  C   C849      1.0  0.53405  0.38704  0.24400  1.0000
  C   C850      1.0  0.62438  0.02176  0.40285  1.0000
  H   H1435     1.0  0.53854  0.09530  0.39327  1.0000
  C   C851      1.0  0.69831  0.15899  0.30345  1.0000
  H   H1436     1.0  0.63303  0.14877  0.03664  1.0000
  S   S243      1.0  0.49181  0.15591  0.14710  1.0000
  H   H1437     1.0  0.49274  0.19882  0.01000  1.0000
  Fe  Fe125     1.0  0.50182  0.13844  0.17032  1.0000
  C   C852      1.0  0.67413  0.43125  0.05983  1.0000
  H   H1438     1.0  0.52677  0.27061  0.30344  1.0000
  H   H1439     1.0  0.68533  0.46349  0.30216  1.0000
  H   H1440     1.0  0.60124  0.15381  0.08975  1.0000
  H   H1441     1.0  0.66303  0.47932  0.26651  1.0000
  H   H1442     1.0  0.59467  0.36415  0.03739  1.0000
  C   C853      1.0  0.51948  0.40291  0.47410  1.0000
  H   H1443     1.0  0.55730  0.36922  0.00331  1.0000
  C   C854      1.0  0.65184  0.40526  0.09834  1.0000
  H   H1444     1.0  0.50365  0.05420  0.45983  1.0000
  H   H1445     1.0  0.67481  0.19155  0.27306  1.0000
  C   C855      1.0  0.50601  0.19987  0.09029  1.0000
  H   H1446     1.0  0.52562  0.22185  0.09673  1.0000
  H   H1447     1.0  0.49832  0.38346  0.46940  1.0000
  H   H1448     1.0  0.51014  0.32299  0.27879  1.0000
  C   C856      1.0  0.67599  0.43805  0.10958  1.0000
  C   C857      1.0  0.49539  0.35270  0.23361  1.0000
  H   H1449     1.0  0.59943  0.02980  0.43639  1.0000
  N   N60       1.0  0.68706  0.48296  0.24781  1.0000
  H   H1450     1.0  0.51748  0.29198  0.25768  1.0000
  H   H1451     1.0  0.70401  0.44067  0.07557  1.0000
  H   H1452     1.0  0.58899  0.19980  0.09934  1.0000
  H   H1453     1.0  0.63337  0.43390  0.01151  1.0000
  H   H1454     1.0  0.55191  0.38675  0.47168  1.0000
  H   H1455     1.0  0.55561  0.38496  0.43472  1.0000
  C   C858      1.0  0.50931  0.09123  0.44612  1.0000
  H   H1456     1.0  0.57058  0.32790  0.00655  1.0000
  H   H1457     1.0  0.56736  0.00641  0.45181  1.0000
  H   H1458     1.0  0.54073  0.10639  0.45408  1.0000
  C   C859      1.0  0.69553  0.49463  0.26891  1.0000
  N   N61       1.0  0.51726  0.37281  0.46954  1.0000
  H   H1459     1.0  0.49882  0.22620  0.17245  1.0000
  S   S244      1.0  0.49709  0.15655  0.06342  1.0000
  H   H1460     1.0  0.50601  0.07619  0.48644  1.0000
  H   H1461     1.0  0.62297  0.02867  0.45594  1.0000
  H   H1462     1.0  0.49823  0.08408  0.43649  1.0000
  H   H1463     1.0  0.57968  0.00942  0.48201  1.0000
  S   S245      1.0  0.49596  0.39926  0.33052  1.0000
  H   H1464     1.0  0.74149  0.45921  0.00535  1.0000
  C   C860      1.0  0.49393  0.19524  0.03251  1.0000
  C   C861      1.0  0.73990  0.44519  0.21539  1.0000
  H   H1465     1.0  0.49410  0.36407  0.42783  1.0000
  S   S246      1.0  0.57696  0.49444  0.39160  1.0000
  H   H1466     1.0  0.71342  0.22430  0.00084  1.0000
  C   C862      1.0  0.50272  0.26600  0.21355  1.0000
  H   H1467     1.0  0.60452  0.00063  0.40130  1.0000
  H   H1468     1.0  0.54387  0.99571  0.29385  1.0000
  C   C863      1.0  0.54144  0.99573  0.31728  1.0000
  C   C864      1.0  0.56634  0.99676  0.37893  1.0000
  C   C865      1.0  0.49400  0.35269  0.26356  1.0000
  Fe  Fe126     1.0  0.54911  0.47585  0.72158  1.0000
  S   S247      1.0  0.56956  0.47276  0.69526  1.0000
  S   S248      1.0  0.52467  0.45769  0.72792  1.0000
  H   H1469     1.0  0.55152  0.39818  0.87495  1.0000
  H   H1470     1.0  0.67055  0.47925  0.77402  1.0000
  H   H1471     1.0  0.52640  0.31495  0.75019  1.0000
  Fe  Fe127     1.0  0.55525  0.33100  0.85155  1.0000
  S   S249      1.0  0.53435  0.33528  0.87482  1.0000
  S   S250      1.0  0.57921  0.35000  0.84136  1.0000
  Fe  Fe128     1.0  0.53644  0.29570  0.84200  1.0000
  S   S251      1.0  0.51423  0.29780  0.86415  1.0000
  S   S252      1.0  0.53973  0.27345  0.82252  1.0000
  Fe  Fe129     1.0  0.52028  0.32199  0.83940  1.0000
  H   H1472     1.0  0.55034  0.44001  0.71991  1.0000
  Fe  Fe130     1.0  0.53043  0.31093  0.89721  1.0000
  C   C866      1.0  0.52595  0.30860  0.97763  1.0000
  S   S253      1.0  0.54147  0.31892  0.81534  1.0000
  S   S254      1.0  0.55239  0.30767  0.87559  1.0000
  Fe  Fe131     1.0  0.52029  0.15249  0.89575  1.0000
  S   S255      1.0  0.53621  0.17599  0.87553  1.0000
  S   S256      1.0  0.52381  0.14382  0.94097  1.0000
  H   H1473     1.0  0.57152  0.46514  0.57525  1.0000
  S   S257      1.0  0.51996  0.16438  0.81405  1.0000
  H   H1474     1.0  0.55423  0.10313  0.62944  1.0000
  Fe  Fe132     1.0  0.54037  0.16193  0.83898  1.0000
  S   S258      1.0  0.56389  0.16129  0.81913  1.0000
  Fe  Fe133     1.0  0.51464  0.17689  0.85260  1.0000
  H   H1475     1.0  0.57964  0.40356  0.83367  1.0000
  S   S259      1.0  0.52628  0.13839  0.86078  1.0000
  H   H1476     1.0  0.55748  0.44717  0.59270  1.0000
  Fe  Fe134     1.0  0.64902  0.15600  0.86825  1.0000
  S   S260      1.0  0.65917  0.18156  0.85007  1.0000
  S   S261      1.0  0.64056  0.13251  0.84515  1.0000
  Fe  Fe135     1.0  0.65026  0.16664  0.93114  1.0000
  S   S262      1.0  0.66021  0.19266  0.91699  1.0000
  S   S263      1.0  0.64162  0.15782  0.97728  1.0000
  Fe  Fe136     1.0  0.64247  0.18666  0.88326  1.0000
  S   S264      1.0  0.62556  0.20092  0.87813  1.0000
  Fe  Fe137     1.0  0.67622  0.18536  0.88556  1.0000
  S   S265      1.0  0.70350  0.19649  0.88229  1.0000
  S   S266      1.0  0.63139  0.16113  0.89922  1.0000
  S   S267      1.0  0.66719  0.15930  0.90183  1.0000
  Fe  Fe138     1.0  0.64302  0.45371  0.89173  1.0000
  S   S268      1.0  0.64497  0.43018  0.87860  1.0000
  S   S269      1.0  0.63428  0.47148  0.86511  1.0000
  Fe  Fe139     1.0  0.65405  0.44863  0.95231  1.0000
  S   S270      1.0  0.65659  0.42473  0.94304  1.0000
  H   H1477     1.0  0.54194  0.99711  0.56884  1.0000
  Fe  Fe140     1.0  0.66824  0.43686  0.90084  1.0000
  S   S271      1.0  0.69061  0.43320  0.87983  1.0000
  Fe  Fe141     1.0  0.63332  0.42040  0.92194  1.0000
  S   S272      1.0  0.61124  0.39892  0.93278  1.0000
  S   S273      1.0  0.66698  0.46104  0.91115  1.0000
  S   S274      1.0  0.63008  0.44362  0.93413  1.0000
  Fe  Fe142     1.0  0.60820  0.08608  0.69960  1.0000
  S   S275      1.0  0.58916  0.09248  0.67622  1.0000
  S   S276      1.0  0.62465  0.10825  0.71985  1.0000
  Fe  Fe143     1.0  0.59456  0.05087  0.68314  1.0000
  S   S277      1.0  0.57467  0.05543  0.66000  1.0000
  Fe  Fe144     1.0  0.59316  0.07758  0.64070  1.0000
  S   S278      1.0  0.59120  0.08659  0.59485  1.0000
  Fe  Fe145     1.0  0.57273  0.06979  0.69734  1.0000
  S   S279      1.0  0.54994  0.07056  0.71897  1.0000
  S   S280      1.0  0.61363  0.07269  0.66208  1.0000
  S   S281      1.0  0.59122  0.06370  0.72226  1.0000
  H   H1478     1.0  0.58010  0.43547  0.80738  1.0000
  H   H1479     1.0  0.60566  0.42687  0.88936  1.0000
  H   H1480     1.0  0.51717  0.07025  0.62814  1.0000
  C   C867      1.0  0.53425  0.05755  0.70229  1.0000
  C   C868      1.0  0.53626  0.04411  0.68993  1.0000
  C   C869      1.0  0.52501  0.03549  0.67176  1.0000
  C   C870      1.0  0.51158  0.04012  0.66667  1.0000
  C   C871      1.0  0.50907  0.05291  0.68053  1.0000
  C   C872      1.0  0.52043  0.06166  0.69832  1.0000
  H   H1481     1.0  0.54662  0.04053  0.69404  1.0000
  H   H1482     1.0  0.52685  0.02544  0.66146  1.0000
  H   H1483     1.0  0.70725  0.17751  0.79813  1.0000
  H   H1484     1.0  0.51884  0.07204  0.70792  1.0000
  C   C873      1.0  0.59342  0.07813  0.56182  1.0000
  C   C874      1.0  0.59722  0.06391  0.56028  1.0000
  C   C875      1.0  0.59888  0.05771  0.53358  1.0000
  N   N62       1.0  0.55838  0.99725  0.60171  1.0000
  C   C876      1.0  0.59098  0.08586  0.53636  1.0000
  H   H1485     1.0  0.59921  0.05789  0.57962  1.0000
  H   H1486     1.0  0.60214  0.04689  0.53267  1.0000
  H   H1487     1.0  0.58808  0.09689  0.53725  1.0000
  H   H1488     1.0  0.60625  0.44042  0.86049  1.0000
  C   C877      1.0  0.71536  0.45463  0.90647  1.0000
  C   C878      1.0  0.71073  0.44164  0.88922  1.0000
  C   C879      1.0  0.72256  0.43561  0.87781  1.0000
  C   C880      1.0  0.59672  0.06558  0.50805  1.0000
  H   H1489     1.0  0.70646  0.45948  0.91531  1.0000
  H   H1490     1.0  0.71915  0.42558  0.86442  1.0000
  H   H1491     1.0  0.55299  0.99778  0.64704  1.0000
  H   H1492     1.0  0.55313  0.43824  0.75687  1.0000
  C   C881      1.0  0.63476  0.12631  0.81044  1.0000
  C   C882      1.0  0.63777  0.13703  0.78639  1.0000
  C   C883      1.0  0.63451  0.13128  0.75901  1.0000
  C   C884      1.0  0.62771  0.11479  0.75522  1.0000
  C   C885      1.0  0.62421  0.10413  0.77938  1.0000
  C   C886      1.0  0.62784  0.10984  0.80667  1.0000
  H   H1493     1.0  0.64304  0.14972  0.78873  1.0000
  H   H1494     1.0  0.63734  0.13968  0.74055  1.0000
  H   H1495     1.0  0.61913  0.09142  0.77695  1.0000
  H   H1496     1.0  0.62550  0.10138  0.82498  1.0000
  H   H1497     1.0  0.52626  0.99921  0.60748  1.0000
  H   H1498     1.0  0.49455  0.00096  0.74944  1.0000
  H   H1499     1.0  0.52056  0.25719  0.77272  1.0000
  H   H1500     1.0  0.56953  0.41680  0.90672  1.0000
  H   H1501     1.0  0.52601  0.30349  0.71878  1.0000
  C   C887      1.0  0.54821  0.08699  0.57853  1.0000
  C   C888      1.0  0.58113  0.17288  0.83457  1.0000
  C   C889      1.0  0.58102  0.18607  0.84989  1.0000
  C   C890      1.0  0.59485  0.19495  0.86258  1.0000
  C   C891      1.0  0.60873  0.19046  0.86042  1.0000
  C   C892      1.0  0.60886  0.17732  0.84497  1.0000
  C   C893      1.0  0.59514  0.16866  0.83181  1.0000
  H   H1502     1.0  0.57035  0.18957  0.85163  1.0000
  H   H1503     1.0  0.59476  0.20519  0.87432  1.0000
  H   H1504     1.0  0.61957  0.17386  0.84302  1.0000
  H   H1505     1.0  0.59540  0.15860  0.81973  1.0000
  C   C894      1.0  0.58836  0.36292  0.86758  1.0000
  C   C895      1.0  0.60372  0.37384  0.86145  1.0000
  C   C896      1.0  0.61107  0.38475  0.88148  1.0000
  C   C897      1.0  0.60302  0.38483  0.90770  1.0000
  C   C898      1.0  0.58776  0.37376  0.91398  1.0000
  C   C899      1.0  0.58044  0.36283  0.89403  1.0000
  H   H1506     1.0  0.60993  0.37391  0.84107  1.0000
  H   H1507     1.0  0.62287  0.39316  0.87651  1.0000
  H   H1508     1.0  0.58149  0.37381  0.93419  1.0000
  H   H1509     1.0  0.56863  0.35444  0.89896  1.0000
  C   C900      1.0  0.53016  0.25277  0.83219  1.0000
  C   C901      1.0  0.53723  0.24148  0.82269  1.0000
  C   C902      1.0  0.53015  0.22495  0.83005  1.0000
  C   C903      1.0  0.51567  0.21946  0.84649  1.0000
  S   S282      1.0  0.60303  0.49329  0.51152  1.0000
  C   C904      1.0  0.51572  0.24730  0.84874  1.0000
  H   H1510     1.0  0.54835  0.24554  0.80974  1.0000
  H   H1511     1.0  0.53577  0.21644  0.82265  1.0000
  H   H1512     1.0  0.61370  0.17516  0.96848  1.0000
  H   H1513     1.0  0.51513  0.09747  0.48998  1.0000
  H   H1514     1.0  0.57533  0.44433  0.49215  1.0000
  H   H1515     1.0  0.52285  0.08861  0.60709  1.0000
  H   H1516     1.0  0.52566  0.99862  0.64540  1.0000
  C   C905      1.0  0.53816  0.45899  0.51442  1.0000
  Fe  Fe146     1.0  0.50547  0.14112  0.83776  1.0000
  C   C906      1.0  0.61866  0.46124  0.78524  1.0000
  C   C907      1.0  0.62571  0.46054  0.81143  1.0000
  C   C908      1.0  0.62487  0.47112  0.83227  1.0000
  H   H1517     1.0  0.49586  0.43464  0.71270  1.0000
  H   H1518     1.0  0.61963  0.45318  0.76911  1.0000
  H   H1519     1.0  0.63196  0.45196  0.81529  1.0000
  H   H1520     1.0  0.61523  0.42220  0.83771  1.0000
  C   C909      1.0  0.51837  0.45064  0.69502  1.0000
  C   C910      1.0  0.52832  0.45614  0.67028  1.0000
  C   C911      1.0  0.52419  0.44881  0.64474  1.0000
  C   C912      1.0  0.51002  0.43616  0.64381  1.0000
  C   C913      1.0  0.49941  0.43167  0.66792  1.0000
  C   C914      1.0  0.50368  0.43872  0.69367  1.0000
  H   H1521     1.0  0.53946  0.46568  0.67091  1.0000
  H   H1522     1.0  0.53229  0.45253  0.62610  1.0000
  C   C915      1.0  0.58949  0.41012  0.84680  1.0000
  C   C916      1.0  0.54775  0.09216  0.64287  1.0000
  H   H1523     1.0  0.50725  0.38140  0.75852  1.0000
  H   H1524     1.0  0.59087  0.16262  0.89582  1.0000
  H   H1525     1.0  0.60299  0.02615  0.49482  1.0000
  H   H1526     1.0  0.51274  0.45027  0.53027  1.0000
  C   C917      1.0  0.51889  0.26092  0.92009  1.0000
  C   C918      1.0  0.69333  0.47781  0.79096  1.0000
  H   H1527     1.0  0.72334  0.13165  0.81087  1.0000
  C   C919      1.0  0.71896  0.24520  0.86586  1.0000
  H   H1528     1.0  0.69478  0.21462  0.92938  1.0000
  H   H1529     1.0  0.53204  0.24489  0.95731  1.0000
  H   H1530     1.0  0.52740  0.28046  0.74796  1.0000
  H   H1531     1.0  0.50241  0.24325  0.78733  1.0000
  S   S283      1.0  0.49829  0.03047  0.64200  1.0000
  C   C920      1.0  0.52221  0.46164  0.52357  1.0000
  H   H1532     1.0  0.53739  0.42410  0.58558  1.0000
  C   C921      1.0  0.60357  0.16493  0.96247  1.0000
  C   C922      1.0  0.50175  0.26776  0.78496  1.0000
  C   C923      1.0  0.51604  0.34214  0.76147  1.0000
  H   H1533     1.0  0.62100  0.02441  0.50727  1.0000
  H   H1534     1.0  0.54165  0.06659  0.64372  1.0000
  H   H1535     1.0  0.56086  0.05580  0.60238  1.0000
  H   H1536     1.0  0.68970  0.12716  0.89220  1.0000
  H   H1537     1.0  0.54975  0.47375  0.55700  1.0000
  C   C924      1.0  0.53499  0.43429  0.54318  1.0000
  S   S284      1.0  0.56371  0.48693  0.75722  1.0000
  H   H1538     1.0  0.56617  0.43300  0.86833  1.0000
  H   H1539     1.0  0.73617  0.21247  0.89399  1.0000
  H   H1540     1.0  0.57866  0.99939  0.62707  1.0000
  H   H1541     1.0  0.55977  0.07712  0.62424  1.0000
  H   H1542     1.0  0.53714  0.26818  0.88615  1.0000
  S   S285      1.0  0.49833  0.15370  0.87466  1.0000
  H   H1543     1.0  0.50195  0.37918  0.51903  1.0000
  C   C925      1.0  0.57277  0.42796  0.85257  1.0000
  C   C926      1.0  0.51831  0.32018  0.98116  1.0000
  C   C927      1.0  0.56268  0.44313  0.49819  1.0000
  H   H1544     1.0  0.61102  0.49119  0.56973  1.0000
  S   S286      1.0  0.59565  0.02540  0.68156  1.0000
  C   C928      1.0  0.56447  0.00933  0.70274  1.0000
  H   H1545     1.0  0.51664  0.39963  0.66337  1.0000
  C   C929      1.0  0.56884  0.26688  0.87891  1.0000
  C   C930      1.0  0.56534  0.00452  0.54779  1.0000
  H   H1546     1.0  0.57191  0.25991  0.92228  1.0000
  H   H1547     1.0  0.66900  0.45003  0.78912  1.0000
  H   H1548     1.0  0.70736  0.13581  0.86952  1.0000
  H   H1549     1.0  0.57749  0.01303  0.54952  1.0000
  H   H1550     1.0  0.53493  0.45741  0.57537  1.0000
  C   C931      1.0  0.54445  0.25256  0.95084  1.0000
  C   C932      1.0  0.50554  0.15635  0.97736  1.0000
  C   C933      1.0  0.54319  0.08550  0.54756  1.0000
  H   H1551     1.0  0.66121  0.47054  0.81744  1.0000
  H   H1552     1.0  0.51436  0.37380  0.54400  1.0000
  C   C934      1.0  0.49377  0.00924  0.73165  1.0000
  C   C935      1.0  0.54715  0.07678  0.62786  1.0000
  H   H1553     1.0  0.56170  0.13208  0.90771  1.0000
  H   H1554     1.0  0.55418  0.42579  0.56087  1.0000
  C   C936      1.0  0.61665  0.48219  0.82668  1.0000
  C   C937      1.0  0.51155  0.39932  0.72196  1.0000
  C   C938      1.0  0.53436  0.41805  0.74251  1.0000
  C   C939      1.0  0.52228  0.37269  0.49975  1.0000
  C   C940      1.0  0.55064  0.43131  0.73753  1.0000
  H   H1555     1.0  0.50732  0.29784  0.80177  1.0000
  H   H1556     1.0  0.52918  0.42435  0.68789  1.0000
  H   H1557     1.0  0.52550  0.42463  0.74524  1.0000
  H   H1558     1.0  0.53435  0.41179  0.76362  1.0000
  H   H1559     1.0  0.73761  0.48114  0.98148  1.0000
  C   C941      1.0  0.60933  0.48269  0.80072  1.0000
  H   H1560     1.0  0.56072  0.42667  0.73329  1.0000
  H   H1561     1.0  0.58318  0.40571  0.90527  1.0000
  C   C942      1.0  0.51587  0.34815  0.73315  1.0000
  H   H1562     1.0  0.50736  0.38968  0.70707  1.0000
  H   H1563     1.0  0.55962  0.06248  0.56582  1.0000
  H   H1564     1.0  0.66560  0.12185  0.77532  1.0000
  C   C943      1.0  0.50898  0.37097  0.52323  1.0000
  S   S287      1.0  0.50586  0.19875  0.85578  1.0000
  C   C944      1.0  0.73127  0.22160  0.88629  1.0000
  H   H1565     1.0  0.55713  0.38527  0.71520  1.0000
  H   H1566     1.0  0.69201  0.46753  0.86237  1.0000
  C   C945      1.0  0.55914  0.45955  0.58449  1.0000
  N   N63       1.0  0.54651  0.25631  0.91911  1.0000
  H   H1567     1.0  0.55497  0.35496  0.96329  1.0000
  H   H1568     1.0  0.54654  0.47089  0.50624  1.0000
  H   H1569     1.0  0.68147  0.11691  0.79135  1.0000
  H   H1570     1.0  0.59564  0.02647  0.60052  1.0000
  H   H1571     1.0  0.68209  0.23115  0.91566  1.0000
  H   H1572     1.0  0.69861  0.24963  0.91572  1.0000
  C   C946      1.0  0.50321  0.10004  0.89450  1.0000
  C   C947      1.0  0.59813  0.43290  0.87787  1.0000
  S   S288      1.0  0.52919  0.30151  0.94382  1.0000
  N   N64       1.0  0.52954  0.40613  0.71982  1.0000
  C   C948      1.0  0.67243  0.12301  0.79480  1.0000
  H   H1573     1.0  0.54185  0.27910  0.91663  1.0000
  C   C949      1.0  0.50850  0.23075  0.85566  1.0000
  H   H1574     1.0  0.66370  0.11658  0.81247  1.0000
  H   H1575     1.0  0.49930  0.12175  0.90545  1.0000
  C   C950      1.0  0.68725  0.24216  0.92702  1.0000
  H   H1576     1.0  0.60710  0.13644  0.72506  1.0000
  C   C951      1.0  0.55956  0.17739  0.94697  1.0000
  H   H1577     1.0  0.53833  0.07304  0.54144  1.0000
  C   C952      1.0  0.54113  0.42337  0.56297  1.0000
  H   H1578     1.0  0.51289  0.07130  0.56351  1.0000
  C   C953      1.0  0.53442  0.41448  0.69056  1.0000
  N   N65       1.0  0.53856  0.07426  0.60057  1.0000
  H   H1579     1.0  0.68556  0.14709  0.77929  1.0000
  C   C954      1.0  0.59408  0.13223  0.73104  1.0000
  H   H1580     1.0  0.59545  0.14187  0.77251  1.0000
  H   H1581     1.0  0.58919  0.14158  0.72260  1.0000
  C   C955      1.0  0.54928  0.00152  0.62628  1.0000
  C   C956      1.0  0.71525  0.21712  0.87895  1.0000
  C   C957      1.0  0.57076  0.14137  0.89391  1.0000
  H   H1582     1.0  0.57664  0.13523  0.87900  1.0000
  C   C958      1.0  0.67967  0.14094  0.79997  1.0000
  H   H1583     1.0  0.66923  0.14525  0.80398  1.0000
  C   C959      1.0  0.59146  0.12979  0.76379  1.0000
  H   H1584     1.0  0.56872  0.14273  0.76876  1.0000
  H   H1585     1.0  0.60016  0.12397  0.77093  1.0000
  H   H1586     1.0  0.58889  0.12100  0.72031  1.0000
  H   H1587     1.0  0.56310  0.41860  0.84314  1.0000
  H   H1588     1.0  0.55395  0.09088  0.53284  1.0000
  C   C960      1.0  0.50739  0.25426  0.77298  1.0000
  H   H1589     1.0  0.59854  0.15749  0.98239  1.0000
  H   H1590     1.0  0.54746  0.42050  0.68750  1.0000
  H   H1591     1.0  0.53282  0.38694  0.74667  1.0000
  H   H1592     1.0  0.69688  0.22586  0.86302  1.0000
  H   H1593     1.0  0.50240  0.11020  0.93496  1.0000
  H   H1594     1.0  0.70355  0.12010  0.82072  1.0000
  H   H1595     1.0  0.57170  0.12851  0.98751  1.0000
  H   H1596     1.0  0.55278  0.33621  0.98239  1.0000
  C   C961      1.0  0.57998  0.44089  0.82819  1.0000
  C   C962      1.0  0.59412  0.44466  0.89794  1.0000
  H   H1597     1.0  0.50497  0.05474  0.58989  1.0000
  H   H1598     1.0  0.69863  0.45923  0.83281  1.0000
  H   H1599     1.0  0.71142  0.15419  0.79365  1.0000
  H   H1600     1.0  0.56361  0.12967  0.74055  1.0000
  H   H1601     1.0  0.50081  0.35847  0.52598  1.0000
  C   C963      1.0  0.57884  0.00823  0.69062  1.0000
  H   H1602     1.0  0.56788  0.25514  0.87025  1.0000
  C   C964      1.0  0.54999  0.22866  0.91087  1.0000
  C   C965      1.0  0.54672  0.46075  0.56317  1.0000
  C   C966      1.0  0.53615  0.39244  0.72462  1.0000
  C   C967      1.0  0.52973  0.40389  0.66516  1.0000
  C   C968      1.0  0.71075  0.13057  0.80692  1.0000
  H   H1603     1.0  0.53594  0.41076  0.55731  1.0000
  C   C969      1.0  0.56395  0.12984  0.76413  1.0000
  H   H1604     1.0  0.57582  0.13308  0.81392  1.0000
  H   H1605     1.0  0.59771  0.18107  0.93229  1.0000
  N   N66       1.0  0.69092  0.14534  0.82370  1.0000
  C   C970      1.0  0.70767  0.14637  0.81361  1.0000
  H   H1606     1.0  0.68270  0.12122  0.84449  1.0000
  N   N67       1.0  0.57464  0.12069  0.77507  1.0000
  H   H1607     1.0  0.54508  0.12654  0.79844  1.0000
  H   H1608     1.0  0.51446  0.32543  0.96274  1.0000
  S   S289      1.0  0.49848  0.37900  0.61521  1.0000
  H   H1609     1.0  0.51227  0.48179  0.64089  1.0000
  H   H1610     1.0  0.53054  0.38235  0.71122  1.0000
  H   H1611     1.0  0.69504  0.18646  0.81798  1.0000
  C   C971      1.0  0.54634  0.12373  0.77588  1.0000
  H   H1612     1.0  0.58155  0.10042  0.82160  1.0000
  H   H1613     1.0  0.55536  0.14153  0.95204  1.0000
  C   C972      1.0  0.69515  0.17517  0.80847  1.0000
  C   C973      1.0  0.57359  0.12065  0.80718  1.0000
  H   H1614     1.0  0.56460  0.10404  0.74335  1.0000
  H   H1615     1.0  0.53940  0.13008  0.76370  1.0000
  C   C974      1.0  0.68670  0.49310  0.82883  1.0000
  H   H1616     1.0  0.54076  0.11074  0.77357  1.0000
  H   H1617     1.0  0.58682  0.45135  0.88785  1.0000
  H   H1618     1.0  0.56007  0.40025  0.74106  1.0000
  H   H1619     1.0  0.54103  0.27495  0.96487  1.0000
  C   C975      1.0  0.61042  0.47231  0.77965  1.0000
  N   N68       1.0  0.58398  0.42057  0.86678  1.0000
  C   C976      1.0  0.52965  0.30500  0.74097  1.0000
  C   C977      1.0  0.58356  0.15273  0.91104  1.0000
  C   C978      1.0  0.68472  0.13383  0.84948  1.0000
  H   H1620     1.0  0.67270  0.13412  0.85716  1.0000
  H   H1621     1.0  0.56705  0.27775  0.91805  1.0000
  C   C979      1.0  0.56884  0.10386  0.76527  1.0000
  C   C980      1.0  0.56782  0.14672  0.95846  1.0000
  S   S290      1.0  0.60213  0.47287  0.74587  1.0000
  H   H1622     1.0  0.55443  0.09244  0.66239  1.0000
  H   H1623     1.0  0.56900  0.44803  0.54072  1.0000
  C   C981      1.0  0.60412  0.41829  0.82613  1.0000
  H   H1624     1.0  0.53488  0.41119  0.64510  1.0000
  H   H1625     1.0  0.58692  0.17760  0.96614  1.0000
  C   C982      1.0  0.69120  0.16171  0.83247  1.0000
  H   H1626     1.0  0.67941  0.16111  0.84267  1.0000
  H   H1627     1.0  0.71652  0.15258  0.82880  1.0000
  C   C983      1.0  0.50187  0.48076  0.65582  1.0000
  H   H1628     1.0  0.56135  0.11376  0.81605  1.0000
  H   H1629     1.0  0.58629  0.09529  0.74163  1.0000
  H   H1630     1.0  0.57298  0.17746  0.90759  1.0000
  C   C984      1.0  0.50370  0.39192  0.75152  1.0000
  H   H1631     1.0  0.55215  0.24532  0.95753  1.0000
  H   H1632     1.0  0.54984  0.22147  0.89201  1.0000
  H   H1633     1.0  0.56013  0.40520  0.70328  1.0000
  C   C985      1.0  0.55440  0.39628  0.72095  1.0000
  H   H1634     1.0  0.69214  0.25013  0.96870  1.0000
  H   H1635     1.0  0.54421  0.22043  0.92963  1.0000
  C   C986      1.0  0.58483  0.11353  0.82333  1.0000
  H   H1636     1.0  0.55828  0.09638  0.77892  1.0000
  H   H1637     1.0  0.59761  0.11953  0.81693  1.0000
  H   H1638     1.0  0.56046  0.00881  0.52879  1.0000
  C   C987      1.0  0.58110  0.09459  0.76375  1.0000
  H   H1639     1.0  0.59082  0.09818  0.77831  1.0000
  H   H1640     1.0  0.61595  0.49051  0.84253  1.0000
  C   C988      1.0  0.56660  0.16849  0.92505  1.0000
  H   H1641     1.0  0.50100  0.08743  0.90219  1.0000
  H   H1642     1.0  0.56342  0.02096  0.70678  1.0000
  H   H1643     1.0  0.53571  0.09239  0.65010  1.0000
  H   H1644     1.0  0.67873  0.24911  0.92554  1.0000
  C   C989      1.0  0.68930  0.23850  0.95876  1.0000
  C   C990      1.0  0.69533  0.13664  0.87510  1.0000
  H   H1645     1.0  0.70004  0.16613  0.84871  1.0000
  H   H1646     1.0  0.52333  0.43407  0.55352  1.0000
  H   H1647     1.0  0.58341  0.11535  0.84636  1.0000
  H   H1648     1.0  0.59207  0.44877  0.83173  1.0000
  C   C991      1.0  0.50569  0.49321  0.67870  1.0000
  H   H1649     1.0  0.59193  0.14623  0.91705  1.0000
  C   C992      1.0  0.71753  0.23850  0.95005  1.0000
  H   H1650     1.0  0.57475  0.08166  0.76896  1.0000
  C   C993      1.0  0.66740  0.44884  0.81269  1.0000
  H   H1651     1.0  0.69639  0.14822  0.88447  1.0000
  H   H1652     1.0  0.58083  0.02640  0.62828  1.0000
  H   H1653     1.0  0.50323  0.25127  0.75148  1.0000
  C   C994      1.0  0.70912  0.22907  0.86895  1.0000
  H   H1654     1.0  0.52936  0.29095  0.77959  1.0000
  H   H1655     1.0  0.51316  0.26949  0.91111  1.0000
  H   H1656     1.0  0.55016  0.18137  0.93698  1.0000
  H   H1657     1.0  0.69880  0.19050  0.94967  1.0000
  H   H1658     1.0  0.52356  0.47016  0.54063  1.0000
  C   C995      1.0  0.56385  0.26529  0.91102  1.0000
  C   C996      1.0  0.69745  0.47065  0.84023  1.0000
  Fe  Fe147     1.0  0.58473  0.48565  0.72979  1.0000
  C   C997      1.0  0.59116  0.17148  0.94886  1.0000
  C   C998      1.0  0.57492  0.41001  0.89223  1.0000
  H   H1659     1.0  0.55370  0.01641  0.57647  1.0000
  H   H1660     1.0  0.56534  0.38670  0.87272  1.0000
  H   H1661     1.0  0.50712  0.27046  0.80587  1.0000
  C   C999      1.0  0.58264  0.02246  0.60668  1.0000
  C   C1000     1.0  0.49655  0.27905  0.73902  1.0000
  C   C1001     1.0  0.59260  0.07964  0.50965  1.0000
  H   H1662     1.0  0.70882  0.12802  0.78424  1.0000
  H   H1663     1.0  0.56866  0.18837  0.95318  1.0000
  C   C1002     1.0  0.73162  0.46170  0.91159  1.0000
  H   H1664     1.0  0.68267  0.20743  0.96131  1.0000
  C   C1003     1.0  0.55420  0.00408  0.57428  1.0000
  H   H1665     1.0  0.59275  0.40068  0.85911  1.0000
  C   C1004     1.0  0.52309  0.28921  0.75944  1.0000
  H   H1666     1.0  0.58673  0.13440  0.95928  1.0000
  C   C1005     1.0  0.50008  0.29478  0.78287  1.0000
  C   C1006     1.0  0.50913  0.06799  0.58622  1.0000
  H   H1667     1.0  0.53447  0.09198  0.54352  1.0000
  H   H1668     1.0  0.60279  0.42849  0.81314  1.0000
  H   H1669     1.0  0.51240  0.24904  0.91262  1.0000
  S   S291      1.0  0.50634  0.42525  0.61328  1.0000
  H   H1670     1.0  0.68611  0.17276  0.79226  1.0000
  C   C1007     1.0  0.50244  0.33874  0.78012  1.0000
  H   H1671     1.0  0.55045  0.04207  0.57793  1.0000
  H   H1672     1.0  0.50611  0.40869  0.71553  1.0000
  H   H1673     1.0  0.49876  0.05661  0.67660  1.0000
  H   H1674     1.0  0.52643  0.35051  0.71894  1.0000
  C   C1008     1.0  0.53717  0.05753  0.59242  1.0000
  H   H1675     1.0  0.60878  0.15821  0.94777  1.0000
  H   H1676     1.0  0.52670  0.34012  0.76889  1.0000
  C   C1009     1.0  0.56210  0.45238  0.52500  1.0000
  H   H1677     1.0  0.49725  0.22665  0.86823  1.0000
  H   H1678     1.0  0.54804  0.09901  0.58441  1.0000
  H   H1679     1.0  0.53090  0.04864  0.61014  1.0000
  H   H1680     1.0  0.58372  0.38151  0.98719  1.0000
  H   H1681     1.0  0.57739  0.02894  0.59134  1.0000
  H   H1682     1.0  0.50101  0.16039  0.95848  1.0000
  H   H1683     1.0  0.56273  0.23435  0.91451  1.0000
  H   H1684     1.0  0.55372  0.16961  0.96611  1.0000
  H   H1685     1.0  0.52965  0.05398  0.57417  1.0000
  H   H1686     1.0  0.55796  0.46645  0.60318  1.0000
  H   H1687     1.0  0.52822  0.23427  0.91089  1.0000
  H   H1688     1.0  0.60573  0.40942  0.81119  1.0000
  H   H1689     1.0  0.58828  0.43862  0.91857  1.0000
  H   H1690     1.0  0.51004  0.25578  0.85600  1.0000
  H   H1691     1.0  0.50614  0.40079  0.76807  1.0000
  H   H1692     1.0  0.60540  0.45377  0.90298  1.0000
  C   C1010     1.0  0.55305  0.05454  0.58430  1.0000
  H   H1693     1.0  0.55611  0.16025  0.91548  1.0000
  H   H1694     1.0  0.56185  0.27296  0.86640  1.0000
  C   C1011     1.0  0.54852  0.26721  0.96915  1.0000
  H   H1695     1.0  0.68942  0.49141  0.87535  1.0000
  H   H1696     1.0  0.57272  0.44914  0.82679  1.0000
  H   H1697     1.0  0.49857  0.07195  0.59085  1.0000
  C   C1012     1.0  0.52216  0.07579  0.60658  1.0000
  C   C1013     1.0  0.56115  0.39502  0.88559  1.0000
  N   N69       1.0  0.57733  0.15948  0.93628  1.0000
  N   N70       1.0  0.70135  0.22998  0.96464  1.0000
  H   H1698     1.0  0.55576  0.38821  0.90598  1.0000
  H   H1699     1.0  0.65488  0.44125  0.81803  1.0000
  C   C1014     1.0  0.69519  0.21365  0.95292  1.0000
  H   H1700     1.0  0.56113  0.08813  0.57822  1.0000
  H   H1701     1.0  0.51637  0.10573  0.89270  1.0000
  H   H1702     1.0  0.56469  0.14811  0.88053  1.0000
  C   C1015     1.0  0.57389  0.13224  0.96442  1.0000
  H   H1703     1.0  0.58155  0.27438  0.87554  1.0000
  H   H1704     1.0  0.71413  0.25427  0.85762  1.0000
  H   H1705     1.0  0.56934  0.46515  0.51972  1.0000
  C   C1016     1.0  0.68352  0.48306  0.76827  1.0000
  C   C1017     1.0  0.51697  0.14845  0.97469  1.0000
  H   H1706     1.0  0.67261  0.18105  0.98621  1.0000
  C   C1018     1.0  0.54097  0.24080  0.90466  1.0000
  H   H1707     1.0  0.51799  0.46702  0.50492  1.0000
  H   H1708     1.0  0.56681  0.12173  0.95333  1.0000
  H   H1709     1.0  0.58339  0.99984  0.59062  1.0000
  H   H1710     1.0  0.73506  0.47200  0.92429  1.0000
  C   C1019     1.0  0.53672  0.26672  0.90976  1.0000
  H   H1711     1.0  0.53438  0.39357  0.66611  1.0000
  H   H1712     1.0  0.49362  0.29127  0.69930  1.0000
  S   S292      1.0  0.50168  0.33030  0.81574  1.0000
  H   H1713     1.0  0.54104  0.24289  0.88126  1.0000
  C   C1020     1.0  0.61058  0.01824  0.49512  1.0000
  S   S293      1.0  0.50288  0.35873  0.68688  1.0000
  C   C1021     1.0  0.73877  0.44244  0.88348  1.0000
  H   H1714     1.0  0.55615  0.43017  0.50191  1.0000
  H   H1715     1.0  0.71704  0.20651  0.94859  1.0000
  C   C1022     1.0  0.49591  0.10931  0.91507  1.0000
  H   H1716     1.0  0.71680  0.26307  0.95827  1.0000
  C   C1023     1.0  0.70482  0.20206  0.95900  1.0000
  H   H1717     1.0  0.67733  0.23137  0.96867  1.0000
  N   N71       1.0  0.54563  0.45132  0.53691  1.0000
  C   C1024     1.0  0.67014  0.46518  0.82567  1.0000
  H   H1718     1.0  0.69532  0.46645  0.78499  1.0000
  H   H1719     1.0  0.67519  0.44231  0.82156  1.0000
  H   H1720     1.0  0.53151  0.42811  0.52325  1.0000
  H   H1721     1.0  0.51714  0.26083  0.94356  1.0000
  H   H1722     1.0  0.66650  0.46255  0.84873  1.0000
  C   C1025     1.0  0.71461  0.48199  0.84224  1.0000
  H   H1723     1.0  0.54290  0.30865  0.73977  1.0000
  N   N72       1.0  0.68689  0.47670  0.82143  1.0000
  H   H1724     1.0  0.51228  0.40484  0.49274  1.0000
  H   H1725     1.0  0.68481  0.47742  0.74806  1.0000
  H   H1726     1.0  0.55219  0.01475  0.62671  1.0000
  H   H1727     1.0  0.51441  0.49020  0.69254  1.0000
  H   H1728     1.0  0.71729  0.23750  0.92668  1.0000
  H   H1729     1.0  0.50235  0.30641  0.77078  1.0000
  H   H1730     1.0  0.49567  0.12926  0.76165  1.0000
  C   C1026     1.0  0.50223  0.35117  0.72306  1.0000
  N   N73       1.0  0.50526  0.28293  0.76595  1.0000
  H   H1731     1.0  0.60312  0.49133  0.79679  1.0000
  H   H1732     1.0  0.50551  0.01410  0.71951  1.0000
  H   H1733     1.0  0.70547  0.48670  0.78805  1.0000
  C   C1027     1.0  0.72534  0.25632  0.95539  1.0000
  H   H1734     1.0  0.49391  0.08566  0.95722  1.0000
  H   H1735     1.0  0.56129  0.27447  0.96609  1.0000
  H   H1736     1.0  0.72633  0.23245  0.95616  1.0000
  H   H1737     1.0  0.57214  0.35075  0.97360  1.0000
  H   H1738     1.0  0.53209  0.38361  0.50371  1.0000
  H   H1739     1.0  0.52727  0.36269  0.50390  1.0000
  H   H1740     1.0  0.60438  0.00670  0.50714  1.0000
  H   H1741     1.0  0.50326  0.27373  0.72393  1.0000
  H   H1742     1.0  0.56678  0.15208  0.97915  1.0000
  C   C1028     1.0  0.57594  0.00403  0.60620  1.0000
  H   H1743     1.0  0.49908  0.10072  0.87278  1.0000
  H   H1744     1.0  0.53565  0.45164  0.49556  1.0000
  H   H1745     1.0  0.49858  0.46862  0.66665  1.0000
  H   H1746     1.0  0.72108  0.47596  0.85624  1.0000
  H   H1747     1.0  0.49445  0.49074  0.69228  1.0000
  H   H1748     1.0  0.73307  0.26241  0.93622  1.0000
  C   C1029     1.0  0.49287  0.29300  0.72249  1.0000
  H   H1749     1.0  0.72148  0.48468  0.82135  1.0000
  H   H1750     1.0  0.54102  0.99628  0.72174  1.0000
  H   H1751     1.0  0.70528  0.19930  0.98210  1.0000
  H   H1752     1.0  0.73292  0.25768  0.97387  1.0000
  C   C1030     1.0  0.73493  0.24973  0.87342  1.0000
  C   C1031     1.0  0.55965  0.34915  0.98078  1.0000
  H   H1753     1.0  0.50100  0.30513  0.72541  1.0000
  H   H1754     1.0  0.59789  0.49473  0.61576  1.0000
  H   H1755     1.0  0.66900  0.48723  0.86545  1.0000
  C   C1032     1.0  0.59998  0.49408  0.56980  1.0000
  C   C1033     1.0  0.74101  0.23781  0.88390  1.0000
  H   H1756     1.0  0.71486  0.49325  0.85205  1.0000
  H   H1757     1.0  0.59097  0.08588  0.49028  1.0000
  C   C1034     1.0  0.68157  0.49458  0.86004  1.0000
  H   H1758     1.0  0.54626  0.96886  0.30084  1.0000
  H   H1759     1.0  0.52750  0.96290  0.28359  1.0000
  H   H1760     1.0  0.52573  0.83154  0.24817  1.0000
  H   H1761     1.0  0.49643  0.63793  0.19912  1.0000
  H   H1762     1.0  0.49469  0.66117  0.47054  1.0000
  H   H1763     1.0  0.52410  0.62569  0.45783  1.0000
  Fe  Fe148     1.0  0.50502  0.56747  0.41289  1.0000
  S   S294      1.0  0.51645  0.54931  0.39719  1.0000
  C   C1035     1.0  0.50840  0.63506  0.43206  1.0000
  S   S295      1.0  0.51311  0.59402  0.41890  1.0000
  C   C1036     1.0  0.59736  0.57787  0.47265  1.0000
  H   H1764     1.0  0.58970  0.97637  0.41975  1.0000
  Fe  Fe149     1.0  0.50460  0.89740  0.36950  1.0000
  H   H1765     1.0  0.50061  0.98296  0.38850  1.0000
  C   C1037     1.0  0.60397  0.56366  0.47429  1.0000
  H   H1766     1.0  0.49830  0.51575  0.32587  1.0000
  H   H1767     1.0  0.51988  0.64056  0.16807  1.0000
  Fe  Fe150     1.0  0.58521  0.51483  0.42037  1.0000
  S   S296      1.0  0.58420  0.54010  0.41311  1.0000
  H   H1768     1.0  0.49570  0.88737  0.29102  1.0000
  H   H1769     1.0  0.57498  0.98544  0.43166  1.0000
  S   S297      1.0  0.51016  0.93646  0.41278  1.0000
  H   H1770     1.0  0.50856  0.83293  0.17114  1.0000
  C   C1038     1.0  0.49614  0.65635  0.16765  1.0000
  S   S298      1.0  0.51002  0.92211  0.34823  1.0000
  H   H1771     1.0  0.60524  0.58738  0.45744  1.0000
  Fe  Fe151     1.0  0.52754  0.93092  0.38194  1.0000
  S   S299      1.0  0.55241  0.94805  0.36874  1.0000
  H   H1772     1.0  0.57716  0.96845  0.45110  1.0000
  S   S300      1.0  0.52362  0.90582  0.40144  1.0000
  C   C1039     1.0  0.53331  0.96221  0.30374  1.0000
  H   H1773     1.0  0.51271  0.79470  0.26656  1.0000
  C   C1040     1.0  0.56259  0.96900  0.36713  1.0000
  C   C1041     1.0  0.55728  0.98021  0.38164  1.0000
  H   H1774     1.0  0.59859  0.53239  0.46779  1.0000
  H   H1775     1.0  0.57540  0.54542  0.46955  1.0000
  C   C1042     1.0  0.50683  0.83157  0.19475  1.0000
  C   C1043     1.0  0.57693  0.97445  0.35037  1.0000
  H   H1776     1.0  0.54637  0.97609  0.39514  1.0000
  H   H1777     1.0  0.50520  0.80701  0.19149  1.0000
  N   N74       1.0  0.52479  0.98486  0.32638  1.0000
  H   H1778     1.0  0.58122  0.96598  0.33918  1.0000
  H   H1779     1.0  0.60371  0.55926  0.45245  1.0000
  H   H1780     1.0  0.53274  0.63475  0.42387  1.0000
  H   H1781     1.0  0.50262  0.62254  0.42629  1.0000
  H   H1782     1.0  0.51747  0.50873  0.35621  1.0000
  C   C1044     1.0  0.58384  0.97979  0.43868  1.0000
  H   H1783     1.0  0.51466  0.77469  0.23564  1.0000
  C   C1045     1.0  0.52496  0.63587  0.44234  1.0000
  S   S301      1.0  0.49753  0.90355  0.47806  1.0000
  C   C1046     1.0  0.51107  0.82258  0.28677  1.0000
  H   H1784     1.0  0.49842  0.81851  0.29493  1.0000
  H   H1785     1.0  0.50327  0.63136  0.12820  1.0000
  C   C1047     1.0  0.59607  0.99061  0.45749  1.0000
  H   H1786     1.0  0.62236  0.52798  0.48685  1.0000
  H   H1787     1.0  0.53240  0.94945  0.30827  1.0000
  C   C1048     1.0  0.50435  0.65695  0.46112  1.0000
  H   H1788     1.0  0.58536  0.57440  0.46402  1.0000
  H   H1789     1.0  0.50151  0.97607  0.30848  1.0000
  H   H1790     1.0  0.50315  0.96571  0.37334  1.0000
  N   N75       1.0  0.50642  0.81118  0.23668  1.0000
  H   H1791     1.0  0.70094  0.50687  0.25844  1.0000
  H   H1792     1.0  0.60504  0.98444  0.46207  1.0000
  H   H1793     1.0  0.52412  0.81943  0.20097  1.0000
  C   C1049     1.0  0.53502  0.54704  0.40544  1.0000
  C   C1050     1.0  0.54847  0.56015  0.40929  1.0000
  C   C1051     1.0  0.56349  0.55791  0.41193  1.0000
  C   C1052     1.0  0.56511  0.54254  0.41125  1.0000
  C   C1053     1.0  0.55155  0.52939  0.40865  1.0000
  C   C1054     1.0  0.53664  0.53167  0.40545  1.0000
  H   H1794     1.0  0.54742  0.57207  0.40894  1.0000
  H   H1795     1.0  0.57393  0.56816  0.41380  1.0000
  H   H1796     1.0  0.55261  0.51750  0.40822  1.0000
  H   H1797     1.0  0.52634  0.52147  0.40265  1.0000
  H   H1798     1.0  0.51316  0.78597  0.20411  1.0000
  H   H1799     1.0  0.52763  0.80405  0.24001  1.0000
  H   H1800     1.0  0.49706  0.61120  0.14189  1.0000
  C   C1055     1.0  0.50913  0.78351  0.22700  1.0000
  C   C1056     1.0  0.49959  0.62370  0.14843  1.0000
  H   H1801     1.0  0.53126  0.96580  0.34838  1.0000
  S   S302      1.0  0.60807  0.50964  0.42960  1.0000
  H   H1802     1.0  0.51121  0.68100  0.44052  1.0000
  H   H1803     1.0  0.50324  0.52766  0.35527  1.0000
  H   H1804     1.0  0.53094  0.64729  0.45192  1.0000
  C   C1057     1.0  0.58584  0.99071  0.34767  1.0000
  H   H1805     1.0  0.49602  0.77763  0.22904  1.0000
  Fe  Fe152     1.0  0.49845  0.58723  0.46091  1.0000
  C   C1058     1.0  0.52513  0.96780  0.32911  1.0000
  C   C1059     1.0  0.51469  0.62753  0.16561  1.0000
  S   S303      1.0  0.57180  0.50131  0.45997  1.0000
  H   H1806     1.0  0.58972  0.99034  0.47836  1.0000
  H   H1807     1.0  0.51741  0.81435  0.29472  1.0000
  H   H1808     1.0  0.49355  0.97817  0.35404  1.0000
  H   H1809     1.0  0.51659  0.83418  0.29635  1.0000
  H   H1810     1.0  0.51283  0.95915  0.33223  1.0000
  C   C1060     1.0  0.51364  0.66955  0.43723  1.0000
  H   H1811     1.0  0.50576  0.65684  0.15138  1.0000
  H   H1812     1.0  0.61683  0.56879  0.47831  1.0000
  H   H1813     1.0  0.52396  0.62379  0.15377  1.0000
  Fe  Fe153     1.0  0.50508  0.91107  0.43071  1.0000
  H   H1814     1.0  0.62689  0.54842  0.47466  1.0000
  C   C1061     1.0  0.51318  0.98569  0.30430  1.0000
  S   S304      1.0  0.49781  0.87299  0.34827  1.0000
  C   C1062     1.0  0.51102  0.81667  0.20564  1.0000
  C   C1063     1.0  0.51442  0.79877  0.24376  1.0000
  C   C1064     1.0  0.51280  0.82552  0.25411  1.0000
  H   H1815     1.0  0.50126  0.66493  0.18393  1.0000
  C   C1065     1.0  0.50326  0.97815  0.36812  1.0000
  C   C1066     1.0  0.51968  0.98886  0.35532  1.0000
  H   H1816     1.0  0.55055  0.99122  0.32718  1.0000
  H   H1817     1.0  0.51477  0.84271  0.20294  1.0000
  H   H1818     1.0  0.51751  0.98304  0.28314  1.0000
  H   H1819     1.0  0.52671  0.67229  0.43881  1.0000
  H   H1820     1.0  0.51263  0.62120  0.18693  1.0000
  H   H1821     1.0  0.67569  0.50872  0.24055  1.0000
  H   H1822     1.0  0.59689  0.99454  0.33449  1.0000
  H   H1823     1.0  0.50669  0.83461  0.24953  1.0000
  H   H1824     1.0  0.50251  0.50125  0.38459  1.0000
  N   N76       1.0  0.49755  0.63987  0.45300  1.0000
  H   H1825     1.0  0.52863  0.98834  0.37091  1.0000
  H   H1826     1.0  0.49426  0.83055  0.20031  1.0000
  H   H1827     1.0  0.72039  0.49601  0.23184  1.0000
  C   C1067     1.0  0.49617  0.51550  0.34945  1.0000
  H   H1828     1.0  0.51286  0.65761  0.47815  1.0000
  H   H1829     1.0  0.51056  0.66651  0.41529  1.0000
  C   C1068     1.0  0.49528  0.62885  0.47954  1.0000
  H   H1830     1.0  0.51043  0.64213  0.41142  1.0000
  C   C1069     1.0  0.50439  0.50363  0.36125  1.0000
  H   H1831     1.0  0.69348  0.50422  0.31023  1.0000
  H   H1832     1.0  0.69553  0.50032  0.21162  1.0000
  H   H1833     1.0  0.65500  0.49763  0.23865  1.0000
  S   S305      1.0  0.49204  0.56091  0.45593  1.0000
  H   H1834     1.0  0.49360  0.51611  0.41191  1.0000
  Fe  Fe154     1.0  0.49241  0.92571  0.38093  1.0000
  H   H1835     1.0  0.67693  0.50318  0.28935  1.0000
  H   H1836     1.0  0.49174  0.59916  0.19573  1.0000
  H   H1837     1.0  0.66862  0.49826  0.20913  1.0000
  C   C1070     1.0  0.66735  0.49772  0.23277  1.0000
  C   C1071     1.0  0.68543  0.49675  0.29523  1.0000
  C   C1072     1.0  0.57172  0.50180  0.57025  1.0000
  H   H1838     1.0  0.54285  0.59570  0.80113  1.0000
  H   H1839     1.0  0.50189  0.62033  0.81795  1.0000
  H   H1840     1.0  0.53279  0.50416  0.65347  1.0000
  C   C1073     1.0  0.57895  0.49949  0.54422  1.0000
  H   H1841     1.0  0.49413  0.52529  0.70515  1.0000
  Fe  Fe155     1.0  0.50758  0.57970  0.69953  1.0000
  S   S306      1.0  0.53328  0.58053  0.69182  1.0000
  C   C1074     1.0  0.53912  0.52918  0.64408  1.0000
  H   H1842     1.0  0.52670  0.98141  0.62798  1.0000
  H   H1843     1.0  0.56174  0.97633  0.58322  1.0000
  Fe  Fe156     1.0  0.56685  0.51034  0.73235  1.0000
  S   S307      1.0  0.58912  0.51019  0.70690  1.0000
  S   S308      1.0  0.56023  0.52989  0.75456  1.0000
  H   H1844     1.0  0.52335  0.91215  0.74357  1.0000
  H   H1845     1.0  0.56078  0.50487  0.57031  1.0000
  C   C1075     1.0  0.53547  0.60213  0.75884  1.0000
  S   S309      1.0  0.55068  0.49905  0.69921  1.0000
  H   H1846     1.0  0.53426  0.53910  0.63941  1.0000
  C   C1076     1.0  0.54405  0.89588  0.72646  1.0000
  C   C1077     1.0  0.55384  0.92655  0.75415  1.0000
  Fe  Fe157     1.0  0.51614  0.92519  0.64058  1.0000
  S   S310      1.0  0.51278  0.94773  0.65616  1.0000
  S   S311      1.0  0.52771  0.92876  0.59517  1.0000
  Fe  Fe158     1.0  0.50363  0.90631  0.69934  1.0000
  H   H1847     1.0  0.59120  0.54704  0.56962  1.0000
  H   H1848     1.0  0.57354  0.50074  0.52449  1.0000
  H   H1849     1.0  0.56634  0.54845  0.53262  1.0000
  Fe  Fe159     1.0  0.52319  0.94241  0.69628  1.0000
  S   S312      1.0  0.53807  0.96261  0.72149  1.0000
  N   N77       1.0  0.54242  0.91200  0.77063  1.0000
  S   S313      1.0  0.52835  0.92074  0.68005  1.0000
  C   C1078     1.0  0.49724  0.90552  0.53641  1.0000
  C   C1079     1.0  0.55301  0.98006  0.70644  1.0000
  C   C1080     1.0  0.56724  0.97902  0.69373  1.0000
  H   H1850     1.0  0.54761  0.97105  0.64540  1.0000
  C   C1081     1.0  0.61979  0.53927  0.49115  1.0000
  C   C1082     1.0  0.59394  0.54199  0.54956  1.0000
  H   H1851     1.0  0.55778  0.63904  0.81149  1.0000
  H   H1852     1.0  0.56863  0.96739  0.69098  1.0000
  H   H1853     1.0  0.50905  0.54081  0.65548  1.0000
  H   H1854     1.0  0.52726  0.59488  0.74377  1.0000
  C   C1083     1.0  0.55840  0.94253  0.76883  1.0000
  C   C1084     1.0  0.51878  0.92213  0.56278  1.0000
  C   C1085     1.0  0.50355  0.91093  0.56251  1.0000
  H   H1855     1.0  0.55688  0.89638  0.76431  1.0000
  H   H1856     1.0  0.52005  0.60544  0.80862  1.0000
  C   C1086     1.0  0.52746  0.92802  0.53658  1.0000
  S   S314      1.0  0.50829  0.59706  0.50248  1.0000
  H   H1857     1.0  0.51778  0.59771  0.56017  1.0000
  H   H1858     1.0  0.53929  0.93659  0.53647  1.0000
  H   H1859     1.0  0.52555  0.51656  0.70506  1.0000
  C   C1087     1.0  0.52624  0.51261  0.64725  1.0000
  H   H1860     1.0  0.50248  0.59027  0.60715  1.0000
  H   H1861     1.0  0.52090  0.63333  0.74440  1.0000
  C   C1088     1.0  0.52394  0.62222  0.74060  1.0000
  H   H1862     1.0  0.56542  0.92449  0.74860  1.0000
  H   H1863     1.0  0.50674  0.63074  0.48991  1.0000
  H   H1864     1.0  0.52215  0.93493  0.76581  1.0000
  C   C1089     1.0  0.49623  0.58888  0.58771  1.0000
  H   H1865     1.0  0.54787  0.52930  0.62626  1.0000
  C   C1090     1.0  0.53095  0.99467  0.62640  1.0000
  H   H1866     1.0  0.54742  0.60605  0.74708  1.0000
  H   H1867     1.0  0.54905  0.92881  0.73342  1.0000
  H   H1868     1.0  0.54182  0.64136  0.77526  1.0000
  C   C1091     1.0  0.55408  0.97933  0.60005  1.0000
  H   H1869     1.0  0.54559  0.92294  0.81155  1.0000
  H   H1870     1.0  0.59514  0.56533  0.53101  1.0000
  S   S315      1.0  0.49836  0.59916  0.68199  1.0000
  Fe  Fe160     1.0  0.57230  0.49710  0.67463  1.0000
  C   C1092     1.0  0.54499  0.89723  0.75896  1.0000
  C   C1093     1.0  0.54604  0.91191  0.80165  1.0000
  H   H1871     1.0  0.53194  0.89477  0.71967  1.0000
  N   N78       1.0  0.53043  0.61641  0.76664  1.0000
  C   C1094     1.0  0.51932  0.92394  0.78023  1.0000
  C   C1095     1.0  0.53962  0.56527  0.70815  1.0000
  C   C1096     1.0  0.55257  0.56147  0.69551  1.0000
  C   C1097     1.0  0.55844  0.55000  0.70887  1.0000
  C   C1098     1.0  0.55171  0.54262  0.73544  1.0000
  C   C1099     1.0  0.53875  0.54642  0.74805  1.0000
  C   C1100     1.0  0.53249  0.55744  0.73419  1.0000
  H   H1872     1.0  0.55821  0.56754  0.67545  1.0000
  H   H1873     1.0  0.56860  0.54736  0.69920  1.0000
  H   H1874     1.0  0.53358  0.54085  0.76871  1.0000
  H   H1875     1.0  0.52249  0.56024  0.74412  1.0000
  H   H1876     1.0  0.54649  0.88474  0.72067  1.0000
  C   C1101     1.0  0.50595  0.91134  0.51018  1.0000
  H   H1877     1.0  0.52265  0.53325  0.68705  1.0000
  H   H1878     1.0  0.54324  0.62039  0.81983  1.0000
  H   H1879     1.0  0.55185  0.95683  0.62343  1.0000
  C   C1102     1.0  0.49880  0.51449  0.65258  1.0000
  C   C1103     1.0  0.58007  0.99301  0.68597  1.0000
  H   H1880     1.0  0.57171  0.56549  0.50731  1.0000
  H   H1881     1.0  0.55516  0.54834  0.50200  1.0000
  C   C1104     1.0  0.50592  0.98063  0.70438  1.0000
  N   N79       1.0  0.59567  0.55011  0.49599  1.0000
  C   C1105     1.0  0.51168  0.62538  0.80117  1.0000
  H   H1882     1.0  0.67834  0.49706  0.81555  1.0000
  H   H1883     1.0  0.51694  0.89915  0.77365  1.0000
  H   H1884     1.0  0.56127  0.62127  0.79904  1.0000
  C   C1106     1.0  0.51658  0.52042  0.69325  1.0000
  H   H1885     1.0  0.54614  0.63589  0.71511  1.0000
  C   C1107     1.0  0.55558  0.96977  0.62745  1.0000
  C   C1108     1.0  0.55204  0.62724  0.80276  1.0000
  H   H1886     1.0  0.50616  0.91908  0.78424  1.0000
  H   H1887     1.0  0.54796  0.94574  0.77696  1.0000
  H   H1888     1.0  0.60311  0.53600  0.55324  1.0000
  H   H1889     1.0  0.59560  0.52555  0.50404  1.0000
  H   H1890     1.0  0.55448  0.63249  0.75795  1.0000
  C   C1109     1.0  0.53497  0.62595  0.71303  1.0000
  C   C1110     1.0  0.59257  0.49607  0.59592  1.0000
  H   H1891     1.0  0.50676  0.63147  0.78456  1.0000
  H   H1892     1.0  0.56806  0.97299  0.63375  1.0000
  H   H1893     1.0  0.52224  0.89713  0.82046  1.0000
  S   S316      1.0  0.49418  0.57713  0.74207  1.0000
  H   H1894     1.0  0.58274  0.53279  0.54483  1.0000
  S   S317      1.0  0.56862  0.50305  0.62811  1.0000
  C   C1111     1.0  0.54457  0.62986  0.77473  1.0000
  C   C1112     1.0  0.50234  0.53196  0.64099  1.0000
  H   H1895     1.0  0.54597  0.53143  0.66348  1.0000
  H   H1896     1.0  0.52382  0.58264  0.79117  1.0000
  C   C1113     1.0  0.49698  0.59123  0.53555  1.0000
  S   S318      1.0  0.49953  0.92779  0.71808  1.0000
  H   H1897     1.0  0.69858  0.50222  0.82366  1.0000
  H   H1898     1.0  0.61279  0.56081  0.52666  1.0000
  H   H1899     1.0  0.59117  0.99202  0.67692  1.0000
  C   C1114     1.0  0.60169  0.53627  0.48957  1.0000
  H   H1900     1.0  0.50632  0.60267  0.78200  1.0000
  H   H1901     1.0  0.57258  0.53124  0.49827  1.0000
  H   H1902     1.0  0.53598  0.88613  0.76874  1.0000
  H   H1903     1.0  0.52384  0.92714  0.80133  1.0000
  C   C1115     1.0  0.52107  0.92276  0.51044  1.0000
  S   S319      1.0  0.49749  0.88131  0.72341  1.0000
  H   H1904     1.0  0.55300  0.90595  0.71402  1.0000
  H   H1905     1.0  0.52143  0.63427  0.81121  1.0000
  H   H1906     1.0  0.53637  0.88615  0.81569  1.0000
  H   H1907     1.0  0.56638  0.94243  0.78634  1.0000
  H   H1908     1.0  0.56518  0.95234  0.75302  1.0000
  C   C1116     1.0  0.52536  0.91115  0.76659  1.0000
  H   H1909     1.0  0.59719  0.58321  0.49347  1.0000
  H   H1910     1.0  0.53822  0.89955  0.84341  1.0000
  H   H1911     1.0  0.51613  0.98124  0.68926  1.0000
  H   H1912     1.0  0.54166  0.97405  0.59351  1.0000
  C   C1117     1.0  0.53497  0.89780  0.82099  1.0000
  C   C1118     1.0  0.51705  0.61161  0.78970  1.0000
  C   C1119     1.0  0.50488  0.59307  0.56104  1.0000
  H   H1913     1.0  0.52866  0.62984  0.69562  1.0000
  C   C1120     1.0  0.53605  0.59005  0.78322  1.0000
  H   H1914     1.0  0.53781  0.61527  0.70588  1.0000
  N   N80       1.0  0.51190  0.51057  0.66773  1.0000
  C   C1121     1.0  0.59967  0.55535  0.52546  1.0000
  H   H1915     1.0  0.54205  0.58166  0.77482  1.0000
  C   C1122     1.0  0.56742  0.55228  0.50965  1.0000
  H   H1916     1.0  0.51254  0.61324  0.73550  1.0000
  H   H1917     1.0  0.55855  0.91188  0.80378  1.0000
  H   H1918     1.0  0.68224  0.50721  0.86305  1.0000
  H   H1919     1.0  0.49683  0.90616  0.58244  1.0000
  H   H1920     1.0  0.50889  0.53410  0.61974  1.0000
  C   C1123     1.0  0.57844  0.50005  0.59622  1.0000
  H   H1921     1.0  0.62393  0.54246  0.51259  1.0000
  H   H1922     1.0  0.52242  0.50945  0.62548  1.0000
  C   C1124     1.0  0.57786  0.54431  0.49239  1.0000
  H   H1923     1.0  0.50232  0.96851  0.71545  1.0000
  H   H1924     1.0  0.49569  0.50721  0.63377  1.0000
  H   H1925     1.0  0.50767  0.52764  0.73255  1.0000
  C   C1125     1.0  0.50277  0.52010  0.71482  1.0000
  H   H1926     1.0  0.56613  0.99250  0.54364  1.0000
  H   H1927     1.0  0.51040  0.98977  0.71988  1.0000
  H   H1928     1.0  0.49652  0.50798  0.72473  1.0000
  S   S320      1.0  0.49202  0.90919  0.65820  1.0000
  C   C1126     1.0  0.49219  0.98317  0.68761  1.0000
  H   H1929     1.0  0.49741  0.99384  0.67244  1.0000
  C   C1127     1.0  0.59323  0.49579  0.54384  1.0000
  H   H1930     1.0  0.52796  0.92728  0.49054  1.0000
  C   C1128     1.0  0.55172  0.99530  0.71099  1.0000
  H   H1931     1.0  0.68775  0.49629  0.76421  1.0000
  H   H1932     1.0  0.49177  0.55290  0.52502  1.0000
  C   C1129     1.0  0.96075  0.42943  0.37865  1.0000
  S   S321      1.0  0.94001  0.47624  0.40419  1.0000
  H   H1933     1.0  0.76230  0.26726  0.04331  1.0000
  Fe  Fe161     1.0  0.90691  0.39463  0.35299  1.0000
  S   S322      1.0  0.91166  0.37604  0.32613  1.0000
  S   S323      1.0  0.90695  0.41808  0.33203  1.0000
  Fe  Fe162     1.0  0.89972  0.37321  0.40844  1.0000
  S   S324      1.0  0.90348  0.35265  0.38550  1.0000
  S   S325      1.0  0.89264  0.37681  0.45455  1.0000
  Fe  Fe163     1.0  0.92518  0.37148  0.36354  1.0000
  S   S326      1.0  0.95045  0.36982  0.36265  1.0000
  Fe  Fe164     1.0  0.88961  0.35904  0.34958  1.0000
  S   S327      1.0  0.86670  0.34277  0.33108  1.0000
  S   S328      1.0  0.92196  0.39131  0.38831  1.0000
  S   S329      1.0  0.88439  0.37824  0.37458  1.0000
  Fe  Fe165     1.0  0.81593  0.31326  0.18929  1.0000
  S   S330      1.0  0.79222  0.30317  0.21434  1.0000
  S   S331      1.0  0.84073  0.32164  0.20819  1.0000
  Fe  Fe166     1.0  0.79960  0.31522  0.13160  1.0000
  S   S332      1.0  0.77519  0.30643  0.15430  1.0000
  S   S333      1.0  0.79994  0.32450  0.08484  1.0000
  Fe  Fe167     1.0  0.78576  0.32232  0.18903  1.0000
  S   S334      1.0  0.77340  0.33867  0.20864  1.0000
  Fe  Fe168     1.0  0.78370  0.28793  0.17705  1.0000
  S   S335      1.0  0.76985  0.26121  0.17348  1.0000
  S   S336      1.0  0.80944  0.33264  0.16475  1.0000
  S   S337      1.0  0.80818  0.29643  0.15352  1.0000
  Fe  Fe169     1.0  0.81858  0.46564  0.21462  1.0000
  S   S338      1.0  0.80119  0.44239  0.23290  1.0000
  H   H1934     1.0  0.75515  0.44358  0.02814  1.0000
  Fe  Fe170     1.0  0.80564  0.45897  0.15363  1.0000
  S   S339      1.0  0.78773  0.43524  0.16880  1.0000
  S   S340      1.0  0.80790  0.46974  0.10750  1.0000
  Fe  Fe171     1.0  0.78258  0.44815  0.20664  1.0000
  S   S341      1.0  0.75813  0.44473  0.22981  1.0000
  Fe  Fe172     1.0  0.80777  0.43185  0.19364  1.0000
  S   S342      1.0  0.81729  0.41085  0.19558  1.0000
  S   S343      1.0  0.79954  0.47217  0.19055  1.0000
  S   S344      1.0  0.82610  0.45479  0.17616  1.0000
  C   C1130     1.0  0.80383  0.43709  0.04649  1.0000
  C   C1131     1.0  0.80386  0.44390  0.07311  1.0000
  C   C1132     1.0  0.80822  0.46053  0.07457  1.0000
  C   C1133     1.0  0.81258  0.47022  0.04899  1.0000
  C   C1134     1.0  0.81266  0.46343  0.02238  1.0000
  H   H1935     1.0  0.80042  0.43635  0.09256  1.0000
  C   C1135     1.0  0.86582  0.48291  0.30782  1.0000
  C   C1136     1.0  0.75566  0.25364  0.09452  1.0000
  H   H1936     1.0  0.82418  0.33000  0.44425  1.0000
  H   H1937     1.0  0.84914  0.41359  0.28949  1.0000
  H   H1938     1.0  0.75022  0.45551  0.17394  1.0000
  C   C1137     1.0  0.78550  0.35879  0.20874  1.0000
  C   C1138     1.0  0.77860  0.37107  0.21136  1.0000
  C   C1139     1.0  0.78821  0.38725  0.20808  1.0000
  C   C1140     1.0  0.80470  0.39107  0.20226  1.0000
  C   C1141     1.0  0.81155  0.37879  0.20069  1.0000
  C   C1142     1.0  0.80204  0.36275  0.20438  1.0000
  H   H1939     1.0  0.76580  0.36807  0.21500  1.0000
  H   H1940     1.0  0.78285  0.39671  0.20944  1.0000
  H   H1941     1.0  0.82426  0.38167  0.19606  1.0000
  H   H1942     1.0  0.80755  0.35346  0.20406  1.0000
  C   C1143     1.0  0.80162  0.31579  0.05184  1.0000
  C   C1144     1.0  0.81112  0.30588  0.04786  1.0000
  H   H1943     1.0  0.81864  0.46767  0.29307  1.0000
  H   H1944     1.0  0.83277  0.38164  0.10226  1.0000
  H   H1945     1.0  0.82335  0.33430  0.39600  1.0000
  C   C1145     1.0  0.79379  0.31963  0.02851  1.0000
  H   H1946     1.0  0.81756  0.30315  0.06535  1.0000
  H   H1947     1.0  0.77307  0.48867  0.02395  1.0000
  C   C1146     1.0  0.80203  0.26761  0.08836  1.0000
  H   H1948     1.0  0.78639  0.32725  0.03131  1.0000
  H   H1949     1.0  0.87925  0.31831  0.43274  1.0000
  H   H1950     1.0  0.84957  0.32772  0.38947  1.0000
  H   H1951     1.0  0.78205  0.34683  0.14749  1.0000
  H   H1952     1.0  0.85071  0.46530  0.28153  1.0000
  C   C1147     1.0  0.94974  0.41421  0.29119  1.0000
  H   H1953     1.0  0.97313  0.42928  0.38028  1.0000
  H   H1954     1.0  0.78059  0.49301  0.27391  1.0000
  H   H1955     1.0  0.96593  0.47784  0.31491  1.0000
  C   C1148     1.0  0.99024  0.39599  0.31540  1.0000
  C   C1149     1.0  0.76594  0.44890  0.01347  1.0000
  C   C1150     1.0  0.85977  0.33746  0.29645  1.0000
  C   C1151     1.0  0.84332  0.32996  0.29370  1.0000
  C   C1152     1.0  0.83725  0.32521  0.26702  1.0000
  C   C1153     1.0  0.84757  0.32772  0.24253  1.0000
  C   C1154     1.0  0.86402  0.33524  0.24530  1.0000
  C   C1155     1.0  0.87007  0.34016  0.27192  1.0000
  H   H1956     1.0  0.83517  0.32767  0.31239  1.0000
  H   H1957     1.0  0.82461  0.31937  0.26549  1.0000
  H   H1958     1.0  0.87219  0.33719  0.22668  1.0000
  H   H1959     1.0  0.88275  0.34575  0.27349  1.0000
  H   H1960     1.0  0.94181  0.40524  0.30716  1.0000
  H   H1961     1.0  0.77845  0.46267  0.32920  1.0000
  C   C1156     1.0  0.85489  0.47779  0.28609  1.0000
  H   H1962     1.0  0.79185  0.44430  0.29308  1.0000
  H   H1963     1.0  0.76149  0.28997  0.06366  1.0000
  H   H1964     1.0  0.87494  0.34428  0.43773  1.0000
  C   C1157     1.0  0.80811  0.44678  0.02088  1.0000
  H   H1965     1.0  0.86993  0.47429  0.31964  1.0000
  H   H1966     1.0  0.86025  0.41906  0.25489  1.0000
  C   C1158     1.0  0.92916  0.46017  0.38543  1.0000
  C   C1159     1.0  0.92684  0.44456  0.39635  1.0000
  C   C1160     1.0  0.91885  0.43159  0.38088  1.0000
  C   C1161     1.0  0.91397  0.43416  0.35376  1.0000
  C   C1162     1.0  0.91585  0.44980  0.34315  1.0000
  C   C1163     1.0  0.92323  0.46283  0.35923  1.0000
  H   H1967     1.0  0.93104  0.44248  0.41695  1.0000
  H   H1968     1.0  0.91665  0.41964  0.38990  1.0000
  H   H1969     1.0  0.91187  0.45187  0.32235  1.0000
  H   H1970     1.0  0.92483  0.47492  0.35089  1.0000
  N   N81       1.0  0.85075  0.38454  0.26085  1.0000
  C   C1164     1.0  0.84117  0.36861  0.25042  1.0000
  C   C1165     1.0  0.86570  0.39098  0.24145  1.0000
  C   C1166     1.0  0.85419  0.38204  0.29160  1.0000
  C   C1167     1.0  0.82457  0.36050  0.26576  1.0000
  C   C1168     1.0  0.87580  0.37961  0.23811  1.0000
  H   H1971     1.0  0.83944  0.36973  0.22720  1.0000
  H   H1972     1.0  0.84768  0.35973  0.25280  1.0000
  H   H1973     1.0  0.86267  0.39406  0.21963  1.0000
  H   H1974     1.0  0.84395  0.38228  0.30607  1.0000
  H   H1975     1.0  0.85534  0.36991  0.29598  1.0000
  H   H1976     1.0  0.81960  0.34825  0.25828  1.0000
  H   H1977     1.0  0.82519  0.35926  0.28918  1.0000
  H   H1978     1.0  0.81592  0.36684  0.26040  1.0000
  H   H1979     1.0  0.88791  0.38650  0.22876  1.0000
  H   H1980     1.0  0.87719  0.37379  0.25876  1.0000
  H   H1981     1.0  0.87046  0.37021  0.22328  1.0000
  H   H1982     1.0  0.88041  0.39184  0.29354  1.0000
  C   C1169     1.0  0.81691  0.37537  0.99178  1.0000
  C   C1170     1.0  0.79178  0.47365  0.27687  1.0000
  C   C1171     1.0  0.82405  0.37013  0.09724  1.0000
  H   H1983     1.0  0.78293  0.27763  0.04446  1.0000
  C   C1172     1.0  0.75814  0.47092  0.05425  1.0000
  H   H1984     1.0  0.82173  0.37023  0.07431  1.0000
  H   H1985     1.0  0.80038  0.42422  0.04572  1.0000
  H   H1986     1.0  0.74441  0.20563  0.23521  1.0000
  C   C1173     1.0  0.77496  0.35321  0.13588  1.0000
  H   H1987     1.0  0.96137  0.41195  0.28839  1.0000
  H   H1988     1.0  0.99055  0.44795  0.35487  1.0000
  H   H1989     1.0  0.82976  0.36070  0.10127  1.0000
  H   H1990     1.0  0.78058  0.46330  0.27985  1.0000
  C   C1174     1.0  0.78760  0.48729  0.26064  1.0000
  H   H1991     1.0  0.84042  0.34848  0.48639  1.0000
  C   C1175     1.0  0.77354  0.26615  0.05157  1.0000
  H   H1992     1.0  0.74966  0.23472  0.06409  1.0000
  N   N82       1.0  0.96174  0.43704  0.32425  1.0000
  S   S345      1.0  0.90081  0.48887  0.41086  1.0000
  H   H1993     1.0  0.94809  0.45167  0.34007  1.0000
  C   C1176     1.0  0.77784  0.25303  0.03527  1.0000
  C   C1177     1.0  0.78447  0.25756  0.09594  1.0000
  H   H1994     1.0  0.80451  0.27099  0.06528  1.0000
  H   H1995     1.0  0.96896  0.37645  0.30946  1.0000
  C   C1178     1.0  0.81144  0.49405  0.30250  1.0000
  C   C1179     1.0  0.96038  0.45308  0.33138  1.0000
  H   H1996     1.0  0.75094  0.23021  0.15756  1.0000
  C   C1180     1.0  0.97497  0.38543  0.32364  1.0000
  H   H1997     1.0  0.87333  0.32548  0.40055  1.0000
  H   H1998     1.0  0.77489  0.37735  0.12603  1.0000
  H   H1999     1.0  0.80556  0.27854  0.10046  1.0000
  H   H2000     1.0  0.79265  0.47469  0.35015  1.0000
  C   C1181     1.0  0.97871  0.43774  0.31611  1.0000
  C   C1182     1.0  0.80890  0.46578  0.30998  1.0000
  N   N83       1.0  0.79870  0.37710  0.11277  1.0000
  C   C1183     1.0  0.80871  0.39331  0.12151  1.0000
  C   C1184     1.0  0.80849  0.36593  0.11633  1.0000
  C   C1185     1.0  0.78375  0.37140  0.13242  1.0000
  C   C1186     1.0  0.79464  0.37910  0.08237  1.0000
  C   C1187     1.0  0.79996  0.40584  0.12539  1.0000
  C   C1188     1.0  0.86906  0.32084  0.42278  1.0000
  H   H2001     1.0  0.83027  0.49291  0.33107  1.0000
  C   C1189     1.0  0.78561  0.36379  0.06799  1.0000
  H   H2002     1.0  0.81417  0.39212  0.14204  1.0000
  H   H2003     1.0  0.81892  0.39894  0.10572  1.0000
  H   H2004     1.0  0.85940  0.30933  0.42259  1.0000
  H   H2005     1.0  0.81168  0.36530  0.13892  1.0000
  H   H2006     1.0  0.78662  0.37493  0.15433  1.0000
  H   H2007     1.0  0.82655  0.38692  0.99356  1.0000
  H   H2008     1.0  0.78696  0.38695  0.08085  1.0000
  H   H2009     1.0  0.80540  0.38575  0.06839  1.0000
  H   H2010     1.0  0.79421  0.40814  0.10600  1.0000
  H   H2011     1.0  0.79104  0.40243  0.14384  1.0000
  H   H2012     1.0  0.80883  0.41738  0.13015  1.0000
  H   H2013     1.0  0.89873  0.34750  0.47676  1.0000
  H   H2014     1.0  0.76371  0.35109  0.14927  1.0000
  H   H2015     1.0  0.83491  0.30056  0.44761  1.0000
  H   H2016     1.0  0.95940  0.44088  0.38520  1.0000
  C   C1190     1.0  0.79913  0.44780  0.31166  1.0000
  C   C1191     1.0  0.96779  0.38583  0.35056  1.0000
  C   C1192     1.0  0.81273  0.29992  0.02091  1.0000
  H   H2017     1.0  0.83281  0.36783  0.01953  1.0000
  H   H2018     1.0  0.80168  0.35345  0.11230  1.0000
  C   C1193     1.0  0.78733  0.47484  0.32918  1.0000
  H   H2019     1.0  0.76391  0.42514  0.99978  1.0000
  H   H2020     1.0  0.83546  0.34208  0.36404  1.0000
  H   H2021     1.0  0.82530  0.35369  0.99377  1.0000
  C   C1194     1.0  0.97609  0.39722  0.36909  1.0000
  H   H2022     1.0  0.93942  0.43231  0.30349  1.0000
  H   H2023     1.0  0.77169  0.34764  0.11560  1.0000
  H   H2024     1.0  0.79971  0.47002  0.26140  1.0000
  C   C1195     1.0  0.77728  0.48632  0.32986  1.0000
  H   H2025     1.0  0.94149  0.42237  0.35108  1.0000
  C   C1196     1.0  0.77102  0.47579  0.02937  1.0000
  H   H2026     1.0  0.78827  0.35162  0.99968  1.0000
  C   C1197     1.0  0.82959  0.30833  0.43493  1.0000
  N   N84       1.0  0.84954  0.33737  0.43145  1.0000
  C   C1198     1.0  0.85076  0.35363  0.44200  1.0000
  C   C1199     1.0  0.84927  0.33878  0.39943  1.0000
  H   H2027     1.0  0.97878  0.47848  0.41089  1.0000
  H   H2028     1.0  0.97520  0.46642  0.29352  1.0000
  H   H2029     1.0  0.81638  0.30311  0.43756  1.0000
  H   H2030     1.0  0.86133  0.36300  0.43127  1.0000
  H   H2031     1.0  0.83537  0.35532  0.39129  1.0000
  H   H2032     1.0  0.86031  0.34806  0.39031  1.0000
  N   N85       1.0  0.79964  0.47735  0.30474  1.0000
  H   H2033     1.0  0.78940  0.35332  0.07398  1.0000
  H   H2034     1.0  0.83577  0.32395  0.46870  1.0000
  H   H2035     1.0  0.79135  0.44425  0.33158  1.0000
  H   H2036     1.0  0.81491  0.46778  0.33035  1.0000
  H   H2037     1.0  0.95406  0.46372  0.29236  1.0000
  C   C1200     1.0  0.95467  0.42501  0.34903  1.0000
  H   H2038     1.0  0.77251  0.36077  0.07240  1.0000
  H   H2039     1.0  0.75543  0.49171  0.99635  1.0000
  H   H2040     1.0  0.86304  0.32903  0.46268  1.0000
  H   H2041     1.0  0.95671  0.43932  0.27973  1.0000
  H   H2042     1.0  0.77088  0.25075  0.01597  1.0000
  H   H2043     1.0  0.78281  0.25620  0.11963  1.0000
  H   H2044     1.0  0.96818  0.45827  0.34856  1.0000
  C   C1201     1.0  0.95167  0.43148  0.29933  1.0000
  H   H2045     1.0  0.78028  0.48225  0.24266  1.0000
  H   H2046     1.0  0.78822  0.36578  0.04463  1.0000
  C   C1202     1.0  0.86424  0.33335  0.43983  1.0000
  C   C1203     1.0  0.86941  0.39387  0.30243  1.0000
  H   H2047     1.0  0.86929  0.39184  0.32590  1.0000
  H   H2048     1.0  0.87373  0.40237  0.24856  1.0000
  S   S346      1.0  0.83561  0.48373  0.24254  1.0000
  H   H2049     1.0  0.83250  0.30773  0.41204  1.0000
  H   H2050     1.0  0.78319  0.24534  0.08956  1.0000
  H   H2051     1.0  0.75058  0.28333  0.09815  1.0000
  H   H2052     1.0  0.97084  0.39736  0.39025  1.0000
  C   C1204     1.0  0.83458  0.32544  0.44538  1.0000
  H   H2053     1.0  0.95651  0.41333  0.34525  1.0000
  C   C1205     1.0  0.84085  0.39568  0.25788  1.0000
  H   H2054     1.0  0.83738  0.39638  0.23551  1.0000
  H   H2055     1.0  0.82949  0.39114  0.27130  1.0000
  H   H2056     1.0  0.77426  0.27942  0.11912  1.0000
  C   C1206     1.0  0.83492  0.34286  0.38755  1.0000
  H   H2057     1.0  0.81650  0.47112  0.00309  1.0000
  H   H2058     1.0  0.81614  0.48310  0.04982  1.0000
  C   C1207     1.0  0.96421  0.46591  0.30638  1.0000
  H   H2059     1.0  0.82026  0.29243  0.01802  1.0000
  H   H2060     1.0  0.87044  0.40659  0.29814  1.0000
  H   H2061     1.0  0.94392  0.41219  0.27066  1.0000
  H   H2062     1.0  0.84025  0.35731  0.43660  1.0000
  H   H2063     1.0  0.80752  0.44067  0.31197  1.0000
  N   N86       1.0  0.76751  0.46593  0.00364  1.0000
  C   C1208     1.0  0.79533  0.31361  0.00160  1.0000
  H   H2064     1.0  0.77293  0.48679  0.35222  1.0000
  N   N87       1.0  0.77211  0.26414  0.08372  1.0000
  H   H2065     1.0  0.80989  0.26051  0.09463  1.0000
  C   C1209     1.0  0.84846  0.41301  0.26609  1.0000
  H   H2066     1.0  0.84057  0.42010  0.25977  1.0000
  C   C1210     1.0  0.84961  0.48890  0.27011  1.0000
  C   C1211     1.0  0.74950  0.24971  0.18248  1.0000
  C   C1212     1.0  0.77452  0.28035  0.09542  1.0000
  H   H2067     1.0  0.78648  0.28873  0.08845  1.0000
  C   C1213     1.0  0.85187  0.35513  0.47448  1.0000
  C   C1214     1.0  0.82212  0.36218  0.00763  1.0000
  H   H2068     1.0  0.76679  0.48207  0.31678  1.0000
  H   H2069     1.0  0.77540  0.24137  0.04723  1.0000
  H   H2070     1.0  0.74408  0.26653  0.20965  1.0000
  H   H2071     1.0  0.75725  0.45911  0.06471  1.0000
  H   H2072     1.0  0.95338  0.42007  0.39465  1.0000
  H   H2073     1.0  0.82009  0.49544  0.28396  1.0000
  H   H2074     1.0  0.77631  0.44857  0.02587  1.0000
  C   C1215     1.0  0.99142  0.40802  0.36064  1.0000
  C   C1216     1.0  0.76470  0.43708  0.98985  1.0000
  H   H2075     1.0  0.98010  0.42569  0.31917  1.0000
  H   H2076     1.0  0.76165  0.47973  0.07084  1.0000
  C   C1217     1.0  0.76249  0.28902  0.08699  1.0000
  H   H2077     1.0  0.86161  0.35123  0.48298  1.0000
  H   H2078     1.0  0.81268  0.35527  0.02391  1.0000
  H   H2079     1.0  0.75869  0.22957  0.09581  1.0000
  C   C1218     1.0  0.80489  0.30377  0.99756  1.0000
  C   C1219     1.0  0.98589  0.48331  0.39058  1.0000
  H   H2080     1.0  0.76673  0.30147  0.09379  1.0000
  C   C1220     1.0  0.75073  0.23597  0.08728  1.0000
  H   H2081     1.0  0.75427  0.25378  0.11816  1.0000
  Fe  Fe173     1.0  0.92731  0.49455  0.40296  1.0000
  H   H2082     1.0  0.85454  0.36795  0.47902  1.0000
  H   H2083     1.0  0.78243  0.47531  0.03802  1.0000
  C   C1221     1.0  0.74333  0.23451  0.17150  1.0000
  H   H2084     1.0  0.80637  0.37666  0.00406  1.0000
  H   H2085     1.0  0.97772  0.48281  0.37324  1.0000
  H   H2086     1.0  0.98173  0.44105  0.29294  1.0000
  C   C1222     1.0  0.75210  0.46589  0.99108  1.0000
  H   H2087     1.0  0.74633  0.47105  0.04750  1.0000
  H   H2088     1.0  0.79056  0.25740  0.02706  1.0000
  H   H2089     1.0  0.74632  0.25831  0.08604  1.0000
  H   H2090     1.0  0.79719  0.49416  0.99607  1.0000
  H   H2091     1.0  0.93881  0.38007  0.48852  1.0000
  Fe  Fe174     1.0  0.92274  0.48574  0.69808  1.0000
  H   H2092     1.0  0.95316  0.43057  0.68168  1.0000
  S   S347      1.0  0.92724  0.46222  0.70192  1.0000
  Fe  Fe175     1.0  0.88396  0.38621  0.65372  1.0000
  S   S348      1.0  0.89922  0.38448  0.68962  1.0000
  S   S349      1.0  0.87286  0.40590  0.65531  1.0000
  Fe  Fe176     1.0  0.89173  0.35993  0.62232  1.0000
  S   S350      1.0  0.90725  0.35604  0.65706  1.0000
  S   S351      1.0  0.89137  0.34680  0.58134  1.0000
  Fe  Fe177     1.0  0.88741  0.35790  0.68824  1.0000
  S   S352      1.0  0.87880  0.34333  0.73146  1.0000
  Fe  Fe178     1.0  0.91744  0.38299  0.65575  1.0000
  S   S353      1.0  0.94209  0.40177  0.64599  1.0000
  S   S354      1.0  0.87128  0.35979  0.65341  1.0000
  S   S355      1.0  0.90257  0.38646  0.61996  1.0000
  Fe  Fe179     1.0  0.80189  0.31417  0.85950  1.0000
  S   S356      1.0  0.77579  0.31212  0.85855  1.0000
  S   S357      1.0  0.81528  0.32548  0.81608  1.0000
  Fe  Fe180     1.0  0.79649  0.30177  0.92312  1.0000
  S   S358      1.0  0.77035  0.29888  0.92532  1.0000
  S   S359      1.0  0.80737  0.29603  0.96391  1.0000
  Fe  Fe181     1.0  0.76979  0.28812  0.88284  1.0000
  H   H2093     1.0  0.87300  0.37225  0.74770  1.0000
  Fe  Fe182     1.0  0.77815  0.32270  0.90082  1.0000
  S   S360      1.0  0.76680  0.34099  0.91417  1.0000
  S   S361      1.0  0.79580  0.28927  0.88150  1.0000
  S   S362      1.0  0.80443  0.32649  0.90101  1.0000
  Fe  Fe183     1.0  0.80041  0.43116  0.88340  1.0000
  S   S363      1.0  0.82263  0.44251  0.90540  1.0000
  S   S364      1.0  0.80172  0.41037  0.85831  1.0000
  Fe  Fe184     1.0  0.78556  0.45662  0.89988  1.0000
  S   S365      1.0  0.80781  0.47038  0.92134  1.0000
  S   S366      1.0  0.76388  0.46556  0.90622  1.0000
  Fe  Fe185     1.0  0.82194  0.46547  0.88313  1.0000
  S   S367      1.0  0.84671  0.47964  0.86155  1.0000
  Fe  Fe186     1.0  0.80675  0.44633  0.94130  1.0000
  H   H2094     1.0  0.80281  0.44404  0.79639  1.0000
  S   S368      1.0  0.79984  0.45386  0.86024  1.0000
  S   S369      1.0  0.78438  0.43278  0.92064  1.0000
  H   H2095     1.0  0.75031  0.45905  0.97154  1.0000
  C   C1223     1.0  0.99034  0.42239  0.64138  1.0000
  H   H2096     1.0  0.94431  0.35092  0.59179  1.0000
  C   C1224     1.0  0.77715  0.25714  0.82137  1.0000
  H   H2097     1.0  0.93878  0.37611  0.60711  1.0000
  C   C1225     1.0  0.77591  0.36011  0.89755  1.0000
  C   C1226     1.0  0.78813  0.36262  0.87623  1.0000
  C   C1227     1.0  0.79580  0.37810  0.86399  1.0000
  C   C1228     1.0  0.79147  0.39113  0.87337  1.0000
  C   C1229     1.0  0.77924  0.38863  0.89467  1.0000
  C   C1230     1.0  0.77139  0.37309  0.90664  1.0000
  H   H2098     1.0  0.79160  0.35262  0.86907  1.0000
  H   H2099     1.0  0.80521  0.38000  0.84742  1.0000
  H   H2100     1.0  0.77574  0.39861  0.90177  1.0000
  H   H2101     1.0  0.76192  0.37115  0.92311  1.0000
  H   H2102     1.0  0.87754  0.40580  0.79987  1.0000
  C   C1231     1.0  0.92600  0.47360  0.61085  1.0000
  H   H2103     1.0  0.84155  0.42286  0.76884  1.0000
  H   H2104     1.0  0.81129  0.28711  0.74522  1.0000
  C   C1232     1.0  0.88575  0.44230  0.59523  1.0000
  C   C1233     1.0  0.82762  0.37468  0.91127  1.0000
  C   C1234     1.0  0.85678  0.45642  0.74103  1.0000
  H   H2105     1.0  0.87860  0.48636  0.83613  1.0000
  H   H2106     1.0  0.90152  0.38334  0.75737  1.0000
  H   H2107     1.0  0.88044  0.41717  0.58766  1.0000
  C   C1235     1.0  0.86088  0.33830  0.75440  1.0000
  C   C1236     1.0  0.84716  0.34184  0.74668  1.0000
  C   C1237     1.0  0.83345  0.33790  0.76583  1.0000
  C   C1238     1.0  0.83314  0.33032  0.79304  1.0000
  C   C1239     1.0  0.84683  0.32676  0.80073  1.0000
  C   C1240     1.0  0.86054  0.33072  0.78159  1.0000
  H   H2108     1.0  0.84709  0.34756  0.72587  1.0000
  H   H2109     1.0  0.82296  0.34067  0.75943  1.0000
  H   H2110     1.0  0.84689  0.32091  0.82142  1.0000
  H   H2111     1.0  0.87101  0.32786  0.78793  1.0000
  C   C1241     1.0  0.89248  0.35561  0.54620  1.0000
  H   H2112     1.0  0.74768  0.43768  0.87441  1.0000
  H   H2113     1.0  0.80154  0.38262  0.92895  1.0000
  H   H2114     1.0  0.89108  0.46242  0.55089  1.0000
  C   C1242     1.0  0.85330  0.49543  0.77669  1.0000
  C   C1243     1.0  0.89015  0.37046  0.54108  1.0000
  H   H2115     1.0  0.89753  0.33596  0.52647  1.0000
  H   H2116     1.0  0.90002  0.48189  0.60895  1.0000
  H   H2117     1.0  0.83841  0.43381  0.85244  1.0000
  H   H2118     1.0  0.88758  0.37685  0.55881  1.0000
  C   C1244     1.0  0.90211  0.46532  0.56288  1.0000
  C   C1245     1.0  0.87141  0.48875  0.81954  1.0000
  H   H2119     1.0  0.78955  0.29213  0.72813  1.0000
  H   H2120     1.0  0.93855  0.36315  0.53026  1.0000
  C   C1246     1.0  0.87566  0.47130  0.60003  1.0000
  C   C1247     1.0  0.87740  0.38448  0.75555  1.0000
  H   H2121     1.0  0.76440  0.26532  0.76397  1.0000
  H   H2122     1.0  0.84098  0.36711  0.83254  1.0000
  C   C1248     1.0  0.91181  0.44696  0.68898  1.0000
  C   C1249     1.0  0.89598  0.44711  0.69096  1.0000
  C   C1250     1.0  0.88387  0.43461  0.68022  1.0000
  C   C1251     1.0  0.88770  0.42213  0.66743  1.0000
  C   C1252     1.0  0.90358  0.42238  0.66477  1.0000
  C   C1253     1.0  0.91556  0.43463  0.67581  1.0000
  H   H2123     1.0  0.89306  0.45664  0.70126  1.0000
  H   H2124     1.0  0.87159  0.43451  0.68215  1.0000
  H   H2125     1.0  0.90679  0.41321  0.65396  1.0000
  H   H2126     1.0  0.92780  0.43473  0.67337  1.0000
  H   H2127     1.0  0.81968  0.43580  0.82024  1.0000
  H   H2128     1.0  0.80637  0.41591  0.79033  1.0000
  H   H2129     1.0  0.85546  0.46407  0.78353  1.0000
  H   H2130     1.0  0.96958  0.38683  0.54397  1.0000
  H   H2131     1.0  0.92897  0.48110  0.59057  1.0000
  H   H2132     1.0  0.92261  0.48048  0.62782  1.0000
  C   C1254     1.0  0.84352  0.43707  0.83017  1.0000
  H   H2133     1.0  0.93344  0.41245  0.54471  1.0000
  H   H2134     1.0  0.75325  0.24104  0.88975  1.0000
  H   H2135     1.0  0.83955  0.37570  0.90123  1.0000
  H   H2136     1.0  0.93700  0.47120  0.61738  1.0000
  H   H2137     1.0  0.94032  0.42501  0.71332  1.0000
  C   C1255     1.0  0.94707  0.39836  0.56486  1.0000
  H   H2138     1.0  0.86812  0.37869  0.81310  1.0000
  C   C1256     1.0  0.80062  0.28475  0.78902  1.0000
  H   H2139     1.0  0.80759  0.34688  0.96128  1.0000
  C   C1257     1.0  0.94486  0.38599  0.50714  1.0000
  C   C1258     1.0  0.96921  0.46739  0.66479  1.0000
  C   C1259     1.0  0.98591  0.46829  0.72310  1.0000
  C   C1260     1.0  0.77745  0.27180  0.76066  1.0000
  H   H2140     1.0  0.85982  0.44592  0.78134  1.0000
  H   H2141     1.0  0.75606  0.48621  0.95976  1.0000
  H   H2142     1.0  0.96681  0.47041  0.75289  1.0000
  H   H2143     1.0  0.87643  0.47494  0.57701  1.0000
  H   H2144     1.0  0.95401  0.45276  0.71548  1.0000
  C   C1261     1.0  0.78125  0.47174  0.98130  1.0000
  C   C1262     1.0  0.83194  0.44311  0.81274  1.0000
  H   H2145     1.0  0.80325  0.27325  0.79177  1.0000
  H   H2146     1.0  0.82749  0.42711  0.74710  1.0000
  H   H2147     1.0  0.98181  0.48891  0.74208  1.0000
  C   C1263     1.0  0.93287  0.35319  0.58834  1.0000
  H   H2148     1.0  0.84294  0.37299  0.75346  1.0000
  H   H2149     1.0  0.90667  0.47863  0.56226  1.0000
  H   H2150     1.0  0.83292  0.45530  0.81958  1.0000
  H   H2151     1.0  0.78495  0.30503  0.80130  1.0000
  H   H2152     1.0  0.85264  0.46631  0.73249  1.0000
  H   H2153     1.0  0.95637  0.40610  0.54908  1.0000
  H   H2154     1.0  0.81097  0.30604  0.75897  1.0000
  H   H2155     1.0  0.83362  0.48861  0.80899  1.0000
  C   C1264     1.0  0.91277  0.45755  0.60815  1.0000
  H   H2156     1.0  0.96692  0.47991  0.71822  1.0000
  H   H2157     1.0  0.79822  0.35512  0.93544  1.0000
  H   H2158     1.0  0.86780  0.42319  0.74997  1.0000
  C   C1265     1.0  0.81607  0.40272  0.95020  1.0000
  C   C1266     1.0  0.80645  0.44578  0.77334  1.0000
  S   S370      1.0  0.90245  0.49025  0.67634  1.0000
  H   H2159     1.0  0.84563  0.42638  0.82152  1.0000
  H   H2160     1.0  0.88127  0.43858  0.61781  1.0000
  H   H2161     1.0  0.82166  0.40980  0.80691  1.0000
  C   C1267     1.0  0.82465  0.45260  0.76716  1.0000
  H   H2162     1.0  0.75560  0.28833  0.76786  1.0000
  N   N88       1.0  0.89829  0.45858  0.59340  1.0000
  H   H2163     1.0  0.92929  0.40861  0.58226  1.0000
  H   H2164     1.0  0.95634  0.46093  0.66953  1.0000
  H   H2165     1.0  0.88167  0.39238  0.73598  1.0000
  H   H2166     1.0  0.96099  0.36654  0.55600  1.0000
  C   C1268     1.0  0.87697  0.41904  0.76028  1.0000
  H   H2167     1.0  0.95798  0.41945  0.71142  1.0000
  H   H2168     1.0  0.87291  0.48089  0.61176  1.0000
  C   C1269     1.0  0.85365  0.39147  0.72152  1.0000
  H   H2169     1.0  0.82469  0.29651  0.77091  1.0000
  H   H2170     1.0  0.84233  0.39068  0.71143  1.0000
  H   H2171     1.0  0.96976  0.42703  0.62471  1.0000
  C   C1270     1.0  0.81763  0.41316  0.78627  1.0000
  C   C1271     1.0  0.89227  0.38539  0.77214  1.0000
  H   H2172     1.0  0.76096  0.26976  0.81062  1.0000
  H   H2173     1.0  0.78913  0.31654  0.98395  1.0000
  H   H2174     1.0  0.76812  0.25068  0.83863  1.0000
  C   C1272     1.0  0.85879  0.37639  0.79730  1.0000
  C   C1273     1.0  0.93467  0.37121  0.58644  1.0000
  H   H2175     1.0  0.88968  0.37581  0.78950  1.0000
  H   H2176     1.0  0.86151  0.40396  0.71783  1.0000
  H   H2177     1.0  0.83359  0.36495  0.95015  1.0000
  H   H2178     1.0  0.84374  0.38762  0.82242  1.0000
  H   H2179     1.0  0.87516  0.44263  0.58362  1.0000
  H   H2180     1.0  0.90913  0.45200  0.63008  1.0000
  H   H2181     1.0  0.80907  0.41027  0.94178  1.0000
  H   H2182     1.0  0.90075  0.42623  0.59410  1.0000
  H   H2183     1.0  0.95981  0.38355  0.67736  1.0000
  C   C1274     1.0  0.93173  0.40318  0.56241  1.0000
  H   H2184     1.0  0.84157  0.39194  0.76212  1.0000
  H   H2185     1.0  0.78897  0.25938  0.83041  1.0000
  H   H2186     1.0  0.92642  0.46995  0.54384  1.0000
  C   C1275     1.0  0.95304  0.42915  0.70519  1.0000
  C   C1276     1.0  0.76219  0.29684  0.78303  1.0000
  H   H2187     1.0  0.92745  0.34720  0.56937  1.0000
  H   H2188     1.0  0.85718  0.36399  0.79091  1.0000
  C   C1277     1.0  0.80564  0.38501  0.95070  1.0000
  N   N89       1.0  0.94523  0.38094  0.56170  1.0000
  H   H2189     1.0  0.77597  0.24908  0.80365  1.0000
  C   C1278     1.0  0.75048  0.48226  0.98162  1.0000
  C   C1279     1.0  0.96823  0.39434  0.66719  1.0000
  C   C1280     1.0  0.93773  0.37522  0.53435  1.0000
  H   H2190     1.0  0.80137  0.43455  0.76256  1.0000
  H   H2191     1.0  0.80428  0.29111  0.80876  1.0000
  H   H2192     1.0  0.77675  0.28068  0.83083  1.0000
  C   C1281     1.0  0.96269  0.40492  0.65077  1.0000
  C   C1282     1.0  0.96166  0.44504  0.71837  1.0000
  C   C1283     1.0  0.89063  0.42838  0.58337  1.0000
  C   C1284     1.0  0.77409  0.27295  0.81245  1.0000
  H   H2193     1.0  0.83259  0.37174  0.80104  1.0000
  H   H2194     1.0  0.75615  0.29351  0.80469  1.0000
  N   N90       1.0  0.78308  0.28189  0.78552  1.0000
  C   C1285     1.0  0.81228  0.29417  0.76433  1.0000
  H   H2195     1.0  0.78333  0.26234  0.75944  1.0000
  H   H2196     1.0  0.89754  0.39732  0.78057  1.0000
  H   H2197     1.0  0.77733  0.46770  0.96003  1.0000
  C   C1286     1.0  0.80185  0.35633  0.95770  1.0000
  C   C1287     1.0  0.77993  0.29778  0.78322  1.0000
  H   H2198     1.0  0.88486  0.42918  0.77122  1.0000
  C   C1288     1.0  0.98800  0.44203  0.71233  1.0000
  C   C1289     1.0  0.86928  0.40487  0.78238  1.0000
  H   H2199     1.0  0.77866  0.35914  0.97141  1.0000
  H   H2200     1.0  0.85509  0.44673  0.83117  1.0000
  C   C1290     1.0  0.77972  0.28068  0.73082  1.0000
  N   N91       1.0  0.86403  0.38825  0.77170  1.0000
  H   H2201     1.0  0.78236  0.27287  0.71471  1.0000
  H   H2202     1.0  0.85895  0.40754  0.79284  1.0000
  N   N92       1.0  0.97862  0.45347  0.70707  1.0000
  C   C1291     1.0  0.74345  0.45567  0.90015  1.0000
  H   H2203     1.0  0.77548  0.44071  0.97510  1.0000
  H   H2204     1.0  0.81922  0.36339  0.90462  1.0000
  C   C1292     1.0  0.97387  0.41884  0.63770  1.0000
  H   H2205     1.0  0.83806  0.38595  0.94859  1.0000
  H   H2206     1.0  0.91640  0.44885  0.55249  1.0000
  H   H2207     1.0  0.81918  0.40659  0.97185  1.0000
  C   C1293     1.0  0.84997  0.38593  0.75336  1.0000
  C   C1294     1.0  0.98476  0.39782  0.67067  1.0000
  C   C1295     1.0  0.96157  0.37889  0.56123  1.0000
  H   H2208     1.0  0.85903  0.38348  0.71001  1.0000
  C   C1296     1.0  0.85192  0.45255  0.77310  1.0000
  C   C1297     1.0  0.83083  0.42690  0.76962  1.0000
  C   C1298     1.0  0.91474  0.46027  0.54521  1.0000
  C   C1299     1.0  0.84314  0.37594  0.81395  1.0000
  H   H2209     1.0  0.95165  0.40206  0.58592  1.0000
  H   H2210     1.0  0.88499  0.41661  0.74365  1.0000
  H   H2211     1.0  0.76140  0.30886  0.77669  1.0000
  C   C1300     1.0  0.97459  0.47728  0.73439  1.0000
  C   C1301     1.0  0.82866  0.37472  0.94394  1.0000
  H   H2212     1.0  0.82651  0.45347  0.74355  1.0000
  H   H2213     1.0  0.87003  0.46085  0.73805  1.0000
  C   C1302     1.0  0.87857  0.49401  0.79179  1.0000
  H   H2214     1.0  0.80089  0.45449  0.76432  1.0000
  N   N93       1.0  0.81327  0.37284  0.96106  1.0000
  H   H2215     1.0  0.88944  0.46545  0.63299  1.0000
  H   H2216     1.0  0.89296  0.42993  0.55993  1.0000
  H   H2217     1.0  0.82430  0.38499  0.90236  1.0000
  C   C1303     1.0  0.85508  0.48650  0.82604  1.0000
  H   H2218     1.0  0.92458  0.34731  0.60692  1.0000
  H   H2219     1.0  0.92086  0.39320  0.55892  1.0000
  C   C1304     1.0  0.89570  0.34746  0.52276  1.0000
  H   H2220     1.0  0.82842  0.46515  0.77368  1.0000
  C   C1305     1.0  0.89147  0.46952  0.60993  1.0000
  H   H2221     1.0  0.85243  0.44579  0.72837  1.0000
  H   H2222     1.0  0.96385  0.37499  0.60766  1.0000
  N   N94       1.0  0.83456  0.44341  0.78079  1.0000
  H   H2223     1.0  0.82702  0.40541  0.93594  1.0000
  H   H2224     1.0  0.76843  0.28262  0.72479  1.0000
  H   H2225     1.0  0.81475  0.40234  0.77378  1.0000
  H   H2226     1.0  0.92472  0.37351  0.53577  1.0000
  H   H2227     1.0  0.92239  0.37199  0.58566  1.0000
  S   S371      1.0  0.74667  0.27031  0.86853  1.0000
  H   H2228     1.0  0.98203  0.38011  0.58616  1.0000
  H   H2229     1.0  0.78612  0.30533  0.76414  1.0000
  H   H2230     1.0  0.96125  0.44239  0.74182  1.0000
  C   C1306     1.0  0.78620  0.35155  0.97670  1.0000
  H   H2231     1.0  0.95779  0.38782  0.50327  1.0000
  C   C1307     1.0  0.97049  0.38258  0.58885  1.0000
  H   H2232     1.0  0.91852  0.44957  0.59782  1.0000
  H   H2233     1.0  0.97105  0.46927  0.64123  1.0000
  H   H2234     1.0  0.75393  0.43549  0.97766  1.0000
  H   H2235     1.0  0.88837  0.38815  0.50924  1.0000
  C   C1308     1.0  0.89063  0.37686  0.51291  1.0000
  H   H2236     1.0  0.97698  0.44669  0.66350  1.0000
  H   H2237     1.0  0.86549  0.46021  0.60513  1.0000
  H   H2238     1.0  0.97344  0.39537  0.59343  1.0000
  H   H2239     1.0  0.91117  0.45896  0.52288  1.0000
  H   H2240     1.0  0.99154  0.46531  0.74241  1.0000
  C   C1309     1.0  0.84609  0.48994  0.80434  1.0000
  H   H2241     1.0  0.79836  0.49258  0.95852  1.0000
  H   H2242     1.0  0.98360  0.43118  0.70004  1.0000
  H   H2243     1.0  0.97249  0.47939  0.67330  1.0000
  H   H2244     1.0  0.98653  0.43765  0.73521  1.0000
  H   H2245     1.0  0.79466  0.38408  0.96410  1.0000
  H   H2246     1.0  0.94270  0.39771  0.50757  1.0000
  H   H2247     1.0  0.98893  0.38959  0.68347  1.0000
  C   C1310     1.0  0.97982  0.45769  0.67545  1.0000
  H   H2248     1.0  0.77906  0.33911  0.97260  1.0000
  C   C1311     1.0  0.89644  0.35399  0.49454  1.0000
  H   H2249     1.0  0.79074  0.46631  0.98578  1.0000
  C   C1312     1.0  0.78992  0.48995  0.97765  1.0000
  S   S372      1.0  0.80756  0.43742  0.98788  1.0000
  C   C1313     1.0  0.89371  0.36868  0.48945  1.0000
  H   H2250     1.0  0.91693  0.56583  0.44381  1.0000
  S   S373      1.0  0.93357  0.51220  0.43642  1.0000
  Fe  Fe187     1.0  0.90349  0.50828  0.37611  1.0000
  S   S374      1.0  0.88554  0.50684  0.34074  1.0000
  Fe  Fe188     1.0  0.90742  0.50836  0.44188  1.0000
  H   H2251     1.0  0.93719  0.58938  0.44632  1.0000
  Fe  Fe189     1.0  0.93454  0.53029  0.40075  1.0000
  S   S375      1.0  0.95457  0.55372  0.40553  1.0000
  S   S376      1.0  0.90833  0.52768  0.40791  1.0000
  H   H2252     1.0  0.88950  0.55130  0.44616  1.0000
  C   C1314     1.0  0.97479  0.55867  0.39213  1.0000
  C   C1315     1.0  0.97878  0.55513  0.36469  1.0000
  H   H2253     1.0  0.96779  0.51711  0.46119  1.0000
  S   S377      1.0  0.89493  0.50645  0.48645  1.0000
  C   C1316     1.0  0.85529  0.50502  0.27663  1.0000
  C   C1317     1.0  0.97566  0.52208  0.44169  1.0000
  H   H2254     1.0  0.96945  0.54884  0.35142  1.0000
  H   H2255     1.0  0.90794  0.57379  0.47154  1.0000
  S   S378      1.0  0.93004  0.51268  0.36648  1.0000
  H   H2256     1.0  0.93132  0.54923  0.45135  1.0000
  H   H2257     1.0  0.95615  0.55413  0.46792  1.0000
  C   C1318     1.0  0.98708  0.56732  0.40870  1.0000
  H   H2258     1.0  0.87019  0.52260  0.30246  1.0000
  C   C1319     1.0  0.91154  0.56317  0.46608  1.0000
  H   H2259     1.0  0.98608  0.53177  0.44820  1.0000
  H   H2260     1.0  0.85146  0.51381  0.26469  1.0000
  C   C1320     1.0  0.94489  0.58446  0.45946  1.0000
  C   C1321     1.0  0.86597  0.51005  0.29824  1.0000
  H   H2261     1.0  0.94917  0.57610  0.44695  1.0000
  H   H2262     1.0  0.95551  0.59469  0.46360  1.0000
  H   H2263     1.0  0.92155  0.53581  0.48028  1.0000
  H   H2264     1.0  0.98412  0.57037  0.42977  1.0000
  H   H2265     1.0  0.96887  0.52733  0.42713  1.0000
  C   C1322     1.0  0.89601  0.54907  0.46473  1.0000
  C   C1323     1.0  0.93008  0.54798  0.47503  1.0000
  H   H2266     1.0  0.89840  0.53764  0.46193  1.0000
  H   H2267     1.0  0.97314  0.52379  0.38160  1.0000
  C   C1324     1.0  0.98065  0.50855  0.42829  1.0000
  C   C1325     1.0  0.97796  0.51380  0.37771  1.0000
  H   H2268     1.0  0.88789  0.54782  0.48400  1.0000
  C   C1326     1.0  0.87152  0.49918  0.31403  1.0000
  H   H2269     1.0  0.96947  0.49837  0.42698  1.0000
  H   H2270     1.0  0.96724  0.50295  0.37965  1.0000
  H   H2271     1.0  0.97467  0.51690  0.33266  1.0000
  H   H2272     1.0  0.82817  0.51215  0.32539  1.0000
  C   C1327     1.0  0.94664  0.54802  0.48463  1.0000
  H   H2273     1.0  0.80569  0.50330  0.29779  1.0000
  C   C1328     1.0  0.98440  0.51612  0.34625  1.0000
  N   N95       1.0  0.98968  0.51288  0.39954  1.0000
  H   H2274     1.0  0.98813  0.50589  0.33939  1.0000
  H   H2275     1.0  0.98752  0.50403  0.44399  1.0000
  C   C1329     1.0  0.82126  0.49921  0.32867  1.0000
  H   H2276     1.0  0.78407  0.49887  0.32313  1.0000
  H   H2277     1.0  0.81363  0.49764  0.34860  1.0000
  N   N96       1.0  0.92347  0.56057  0.48629  1.0000
  H   H2278     1.0  0.94687  0.53549  0.48655  1.0000
  H   H2279     1.0  0.79857  0.49648  0.25105  1.0000
  C   C1330     1.0  0.93613  0.57654  0.48810  1.0000
  Fe  Fe190     1.0  0.93934  0.52077  0.70756  1.0000
  S   S379      1.0  0.91986  0.52828  0.68719  1.0000
  S   S380      1.0  0.96279  0.53398  0.72683  1.0000
  C   C1331     1.0  0.92480  0.55344  0.54017  1.0000
  H   H2280     1.0  0.98844  0.60708  0.73138  1.0000
  C   C1332     1.0  0.91472  0.55507  0.51509  1.0000
  H   H2281     1.0  0.98778  0.54916  0.62181  1.0000
  C   C1333     1.0  0.89498  0.50821  0.54481  1.0000
  H   H2282     1.0  0.96529  0.53884  0.59175  1.0000
  C   C1334     1.0  0.92022  0.50942  0.52127  1.0000
  H   H2283     1.0  0.93983  0.51292  0.54861  1.0000
  C   C1335     1.0  0.98033  0.54768  0.70958  1.0000
  H   H2284     1.0  0.89491  0.51064  0.59044  1.0000
  H   H2285     1.0  0.88248  0.50710  0.54376  1.0000
  H   H2286     1.0  0.92731  0.50903  0.50216  1.0000
  C   C1336     1.0  0.91823  0.51201  0.57287  1.0000
  C   C1337     1.0  0.97985  0.55729  0.68537  1.0000
  H   H2287     1.0  0.96206  0.52673  0.62402  1.0000
  H   H2288     1.0  0.97968  0.52906  0.66126  1.0000
  Fe  Fe191     1.0  0.92105  0.51122  0.65305  1.0000
  H   H2289     1.0  0.96852  0.55632  0.67653  1.0000
  C   C1338     1.0  0.92726  0.51152  0.54771  1.0000
  S   S381      1.0  0.94134  0.50514  0.67263  1.0000
  H   H2290     1.0  0.93403  0.56481  0.54416  1.0000
  C   C1339     1.0  0.90408  0.50801  0.51957  1.0000
  C   C1340     1.0  0.90199  0.51016  0.57134  1.0000
  H   H2291     1.0  0.93009  0.54374  0.53744  1.0000
  S   S382      1.0  0.92814  0.51574  0.60507  1.0000
  H   H2292     1.0  0.90564  0.54305  0.51437  1.0000
  H   H2293     1.0  0.97534  0.50999  0.64718  1.0000
  H   H2294     1.0  0.98528  0.50712  0.60232  1.0000
  H   H2295     1.0  0.90801  0.56335  0.52131  1.0000
  H   H2296     1.0  0.91680  0.54982  0.55990  1.0000
  C   C1341     1.0  0.96976  0.53021  0.60401  1.0000
  H   H2297     1.0  0.96804  0.51967  0.59112  1.0000
  Fe  Fe192     1.0  0.90249  0.50647  0.71240  1.0000
  H   H2298     1.0  0.98441  0.50902  0.69417  1.0000
  C   C1342     1.0  0.98540  0.52061  0.65213  1.0000
  C   C1343     1.0  0.98743  0.53844  0.60977  1.0000
  H   H2299     1.0  0.94998  0.55313  0.50524  1.0000
  H   H2300     1.0  0.93083  0.58521  0.49772  1.0000
  H   H2301     1.0  0.78173  0.49703  0.97441  1.0000
  H   H2302     1.0  0.94547  0.57583  0.50250  1.0000
  C   C1344     1.0  0.86957  0.49743  0.77007  1.0000
  S   S383      1.0  0.87779  0.50380  0.73433  1.0000
  H   H2303     1.0  0.84620  0.49818  0.76028  1.0000
  S   S384      1.0  0.92194  0.50050  0.73501  1.0000
  H   H2304     1.0  0.89110  0.49557  0.78730  1.0000
