data_image0
_chemical_formula_structural       FeCSHC2H2CH3C2H2C2SFeSCHNC2HCSHCH2CSHS2FeHCHCHCH3C4SH5CH6CHFeC2H2CH4CH7CFeHCSHC3H4CNHCH3CH5CH9CHCSCH2SH2Fe2SHS2FeCSC2H2CHCHC6H5C2HCHCH2CHNHCH3FeHSCH3C2HSH4SHC3H3NC5NCHC4HCHCH5CH3CH4NH2CH13C3SCHCSHFeSH3C2H2C6H6CH2CHCFeSFeSH3NH3C3H2CFeSCH8CH3CHFeS2FeSC6H5CH2CHSH2CHNH5FeHC2HCH2CH3CHC2HC3H2NHCFeH3SH5CHCHCH3CH2CH2CHCH2CH2CH9NH3S2FeSH3CFeHSNSC7H5C2HFeSHSHSCH7C4H3SHFe2SCFeNSH2FeSC2HC6H5CH4CSC2H3CHCHNH3CH2SH4SH2S2CHFeHCH2SCH2C3H2SH9FeCH2SH2CHFeHSHCSH2C8H6SH2C2SH2C2SH6CH3CHCHSHSFeS2C5SFeS2CHSC6H5CHCHFeCH4C4H5CH5CHNH3FeHCHCFeHFeCNC2HCHC2HSH2NHCH6CHCHFeH4CS2H2CH3C2SH2C2HSH2SNC8HCH3CH3C2H8NSCHCH4CH2C2FeCHCHCH2CHCHSCH7CFeSHFe2S2HC2SC2HCHCH2CHCHCH2S2HNC2H7FeH3CFeHC3HC4H2CH2CHSHCH4SC3SH2CH2CH4C2H4SH2CHCHCNH4CH2C
_chemical_formula_sum              "Fe40 C280 S80 H480 N20"
_cell_length_a       40.2815
_cell_length_b       40.5423
_cell_length_c       27.6998
_cell_angle_alpha    85.9042
_cell_angle_beta     85.8855
_cell_angle_gamma    120.929

_space_group_name_H-M_alt    "P 1"
_space_group_IT_number       1

loop_
  _space_group_symop_operation_xyz
  'x, y, z'

loop_
  _atom_site_type_symbol
  _atom_site_label
  _atom_site_symmetry_multiplicity
  _atom_site_fract_x
  _atom_site_fract_y
  _atom_site_fract_z
  _atom_site_occupancy
  Fe  Fe1       1.0  0.22918  0.35286  0.45652  1.0000
  C   C1        1.0  0.10515  0.37097  0.27998  1.0000
  S   S1        1.0  0.31073  0.48504  0.36023  1.0000
  H   H1        1.0  0.26565  0.45622  0.26538  1.0000
  C   C2        1.0  0.32808  0.50785  0.49920  1.0000
  C   C3        1.0  0.34063  0.06027  0.42166  1.0000
  H   H2        1.0  0.36932  0.26505  0.25956  1.0000
  H   H3        1.0  0.09728  0.37250  0.31860  1.0000
  C   C4        1.0  0.07302  0.33216  0.43239  1.0000
  H   H4        1.0  0.21733  0.44877  0.20800  1.0000
  H   H5        1.0  0.32730  0.28294  0.29945  1.0000
  H   H6        1.0  0.26369  0.01935  0.37171  1.0000
  C   C5        1.0  0.23368  0.43827  0.27706  1.0000
  C   C6        1.0  0.34625  0.27930  0.32379  1.0000
  H   H7        1.0  0.09393  0.33981  0.27739  1.0000
  H   H8        1.0  0.30375  0.23125  0.47287  1.0000
  C   C7        1.0  0.24092  0.02698  0.37573  1.0000
  C   C8        1.0  0.30708  0.32832  0.48003  1.0000
  S   S2        1.0  0.36504  0.20905  0.41798  1.0000
  Fe  Fe2       1.0  0.17428  0.38329  0.44479  1.0000
  S   S3        1.0  0.21633  0.37900  0.39145  1.0000
  C   C9        1.0  0.21306  0.45388  0.24637  1.0000
  H   H9        1.0  0.12397  0.44261  0.23398  1.0000
  N   N1        1.0  0.17030  0.43756  0.26320  1.0000
  C   C10       1.0  0.15527  0.45300  0.22480  1.0000
  C   C11       1.0  0.35809  0.25359  0.29856  1.0000
  H   H10       1.0  0.10310  0.43057  0.31156  1.0000
  C   C12       1.0  0.16640  0.44948  0.31268  1.0000
  S   S4        1.0  0.31092  0.09703  0.47391  1.0000
  H   H11       1.0  0.22899  0.44017  0.31636  1.0000
  C   C13       1.0  0.14970  0.39400  0.26595  1.0000
  H   H12       1.0  0.30848  0.35558  0.48092  1.0000
  H   H13       1.0  0.25562  0.05665  0.38677  1.0000
  C   C14       1.0  0.04044  0.33031  0.41441  1.0000
  S   S5        1.0  0.21904  0.44312  0.46028  1.0000
  H   H14       1.0  0.22455  0.40809  0.27140  1.0000
  S   S6        1.0  0.27775  0.40978  0.47287  1.0000
  S   S7        1.0  0.23378  0.29971  0.45074  1.0000
  Fe  Fe3       1.0  0.26151  0.43628  0.41227  1.0000
  H   H15       1.0  0.15689  0.44187  0.18958  1.0000
  C   C15       1.0  0.12934  0.45080  0.32762  1.0000
  H   H16       1.0  0.13536  0.48079  0.32008  1.0000
  C   C16       1.0  0.31434  0.05694  0.46026  1.0000
  H   H17       1.0  0.19103  0.47914  0.31447  1.0000
  C   C17       1.0  0.33702  0.28942  0.49112  1.0000
  H   H18       1.0  0.16882  0.43074  0.34182  1.0000
  H   H19       1.0  0.23030  0.48593  0.24618  1.0000
  H   H20       1.0  0.33173  0.22432  0.29928  1.0000
  C   C18       1.0  0.06884  0.29899  0.45795  1.0000
  C   C19       1.0  0.34050  0.02713  0.40935  1.0000
  C   C20       1.0  0.36050  0.33802  0.35843  1.0000
  C   C21       1.0  0.27429  0.29683  0.46543  1.0000
  S   S8        1.0  0.11812  0.37663  0.42271  1.0000
  H   H21       1.0  0.36041  0.02977  0.37882  1.0000
  H   H22       1.0  0.16069  0.38210  0.29382  1.0000
  H   H23       1.0  0.12165  0.44334  0.36784  1.0000
  H   H24       1.0  0.23050  0.02885  0.34032  1.0000
  H   H25       1.0  0.18157  0.51193  0.24773  1.0000
  C   C22       1.0  0.28864  0.02045  0.48716  1.0000
  H   H26       1.0  0.34458  0.35687  0.29132  1.0000
  H   H27       1.0  0.15582  0.38560  0.23044  1.0000
  H   H28       1.0  0.08975  0.37966  0.25537  1.0000
  H   H29       1.0  0.24832  0.23756  0.45090  1.0000
  H   H30       1.0  0.04352  0.35585  0.39443  1.0000
  H   H31       1.0  0.33707  0.50238  0.46340  1.0000
  C   C23       1.0  0.30487  0.25836  0.47484  1.0000
  H   H32       1.0  0.30362  0.31677  0.33134  1.0000
  Fe  Fe4       1.0  0.36344  0.15854  0.46063  1.0000
  C   C24       1.0  0.33807  0.32445  0.49353  1.0000
  C   C25       1.0  0.17694  0.49768  0.21409  1.0000
  H   H33       1.0  0.32691  0.26198  0.35829  1.0000
  H   H34       1.0  0.32600  0.36455  0.34737  1.0000
  C   C26       1.0  0.33223  0.34417  0.32975  1.0000
  H   H35       1.0  0.34397  0.32147  0.39426  1.0000
  H   H36       1.0  0.24549  0.49727  0.36941  1.0000
  H   H37       1.0  0.09376  0.30005  0.47181  1.0000
  H   H38       1.0  0.36037  0.08819  0.40048  1.0000
  C   C27       1.0  0.27350  0.26200  0.46244  1.0000
  H   H39       1.0  0.15957  0.50602  0.19256  1.0000
  H   H40       1.0  0.20563  0.50968  0.19166  1.0000
  H   H41       1.0  0.32455  0.38193  0.55610  1.0000
  H   H42       1.0  0.36311  0.34875  0.50548  1.0000
  H   H43       1.0  0.24298  0.35793  0.57536  1.0000
  H   H44       1.0  0.29434  0.40339  0.62101  1.0000
  H   H45       1.0  0.35791  0.41617  0.59113  1.0000
  C   C28       1.0  0.23379  0.34325  0.67324  1.0000
  Fe  Fe5       1.0  0.23154  0.41228  0.51978  1.0000
  H   H46       1.0  0.22556  0.36362  0.65695  1.0000
  C   C29       1.0  0.26883  0.30930  0.65871  1.0000
  S   S9        1.0  0.24772  0.43322  0.59271  1.0000
  H   H47       1.0  0.18188  0.29962  0.60893  1.0000
  C   C30       1.0  0.33315  0.38576  0.59325  1.0000
  C   C31       1.0  0.24575  0.33326  0.59002  1.0000
  C   C32       1.0  0.20541  0.29589  0.59210  1.0000
  H   H48       1.0  0.31315  0.38622  0.66591  1.0000
  H   H49       1.0  0.24092  0.28472  0.67862  1.0000
  H   H50       1.0  0.20604  0.31467  0.68160  1.0000
  H   H51       1.0  0.25920  0.26253  0.61486  1.0000
  C   C33       1.0  0.24716  0.35599  0.72305  1.0000
  N   N2        1.0  0.26262  0.34090  0.63774  1.0000
  H   H52       1.0  0.06414  0.38692  0.54750  1.0000
  C   C34       1.0  0.28358  0.29098  0.62221  1.0000
  H   H53       1.0  0.30419  0.28454  0.63906  1.0000
  H   H54       1.0  0.20396  0.27034  0.61172  1.0000
  H   H55       1.0  0.28951  0.32000  0.68646  1.0000
  C   C35       1.0  0.30014  0.37990  0.63115  1.0000
  H   H56       1.0  0.26510  0.33172  0.56120  1.0000
  H   H57       1.0  0.25853  0.33907  0.74077  1.0000
  H   H58       1.0  0.29932  0.30914  0.58727  1.0000
  H   H59       1.0  0.21460  0.47533  0.54939  1.0000
  H   H60       1.0  0.26925  0.38749  0.71957  1.0000
  C   C36       1.0  0.25469  0.47925  0.59926  1.0000
  H   H61       1.0  0.22178  0.35130  0.74789  1.0000
  H   H62       1.0  0.19915  0.28945  0.55434  1.0000
  H   H63       1.0  0.26841  0.01775  0.51732  1.0000
  H   H64       1.0  0.34469  0.36713  0.60431  1.0000
  H   H65       1.0  0.34124  0.06176  0.57686  1.0000
  H   H66       1.0  0.36036  0.03459  0.51817  1.0000
  H   H67       1.0  0.29563  0.49175  0.65138  1.0000
  H   H68       1.0  0.32826  0.48684  0.52707  1.0000
  H   H69       1.0  0.36910  0.10817  0.53895  1.0000
  C   C37       1.0  0.36723  0.09148  0.57348  1.0000
  H   H70       1.0  0.36227  0.10589  0.60343  1.0000
  C   C38       1.0  0.28043  0.50238  0.63087  1.0000
  S   S10       1.0  0.18332  0.35264  0.50877  1.0000
  C   C39       1.0  0.23508  0.49320  0.57304  1.0000
  H   H71       1.0  0.36818  0.01916  0.57556  1.0000
  H   H72       1.0  0.29756  0.50089  0.50203  1.0000
  S   S11       1.0  0.22334  0.85557  0.38607  1.0000
  H   H73       1.0  0.34555  0.59385  0.23731  1.0000
  H   H74       1.0  0.33179  0.70416  0.35178  1.0000
  Fe  Fe6       1.0  0.26416  0.88757  0.44018  1.0000
  Fe  Fe7       1.0  0.23076  0.80610  0.41034  1.0000
  S   S12       1.0  0.22798  0.76106  0.36467  1.0000
  H   H75       1.0  0.30103  0.72463  0.25495  1.0000
  S   S13       1.0  0.31420  0.94960  0.41739  1.0000
  S   S14       1.0  0.33315  0.70241  0.15265  1.0000
  Fe  Fe8       1.0  0.33167  0.65457  0.20170  1.0000
  C   C40       1.0  0.07467  0.78889  0.44894  1.0000
  S   S15       1.0  0.27727  0.60067  0.23901  1.0000
  C   C41       1.0  0.32378  0.57308  0.26627  1.0000
  C   C42       1.0  0.20649  0.93910  0.39901  1.0000
  H   H76       1.0  0.14283  0.96996  0.37275  1.0000
  H   H77       1.0  0.28150  0.67972  0.37478  1.0000
  C   C43       1.0  0.28828  0.57126  0.27579  1.0000
  H   H78       1.0  0.13375  0.90492  0.44777  1.0000
  C   C44       1.0  0.08513  0.68702  0.40219  1.0000
  H   H79       1.0  0.11021  0.79332  0.32380  1.0000
  C   C45       1.0  0.27006  0.77067  0.32773  1.0000
  C   C46       1.0  0.30479  0.80664  0.32367  1.0000
  C   C47       1.0  0.33807  0.81313  0.29434  1.0000
  C   C48       1.0  0.33681  0.78364  0.26939  1.0000
  C   C49       1.0  0.30219  0.74750  0.27407  1.0000
  C   C50       1.0  0.26882  0.74113  0.30297  1.0000
  H   H80       1.0  0.30595  0.82953  0.34271  1.0000
  H   H81       1.0  0.29495  0.53264  0.43607  1.0000
  H   H82       1.0  0.22235  0.00120  0.44902  1.0000
  H   H83       1.0  0.24203  0.71321  0.30612  1.0000
  H   H84       1.0  0.29805  0.67733  0.48676  1.0000
  C   C51       1.0  0.12527  0.75312  0.35868  1.0000
  C   C52       1.0  0.05544  0.71552  0.35446  1.0000
  H   H85       1.0  0.23196  0.97113  0.32292  1.0000
  C   C53       1.0  0.26734  0.51828  0.34067  1.0000
  H   H86       1.0  0.13626  0.68062  0.27646  1.0000
  C   C54       1.0  0.25262  0.70073  0.44839  1.0000
  H   H87       1.0  0.05723  0.73230  0.31975  1.0000
  H   H88       1.0  0.04586  0.81159  0.40744  1.0000
  C   C55       1.0  0.31990  0.73222  0.40875  1.0000
  H   H89       1.0  0.22440  0.73191  0.47369  1.0000
  N   N3        1.0  0.18253  0.95761  0.40704  1.0000
  H   H90       1.0  0.15703  0.70990  0.32317  1.0000
  C   C56       1.0  0.31126  0.69537  0.38581  1.0000
  H   H91       1.0  0.16109  0.81069  0.31786  1.0000
  H   H92       1.0  0.07686  0.66369  0.31664  1.0000
  H   H93       1.0  0.31727  0.75134  0.38040  1.0000
  Fe  Fe9       1.0  0.17602  0.83207  0.44955  1.0000
  H   H94       1.0  0.13094  0.77474  0.28103  1.0000
  S   S16       1.0  0.27603  0.83970  0.45856  1.0000
  C   C57       1.0  0.13093  0.91477  0.35310  1.0000
  H   H95       1.0  0.31573  0.67539  0.40999  1.0000
  H   H96       1.0  0.22895  0.94847  0.42428  1.0000
  H   H97       1.0  0.29583  0.77907  0.43599  1.0000
  C   C58       1.0  0.15990  0.95586  0.36519  1.0000
  C   C59       1.0  0.22195  0.70346  0.48182  1.0000
  H   H98       1.0  0.14653  0.70930  0.41463  1.0000
  S   S17       1.0  0.18046  0.78030  0.46985  1.0000
  H   H99       1.0  0.12066  0.91707  0.31755  1.0000
  H   H100      1.0  0.21196  0.91947  0.32846  1.0000
  H   H101      1.0  0.18933  0.01199  0.42373  1.0000
  H   H102      1.0  0.35134  0.74753  0.41356  1.0000
  S   S18       1.0  0.12120  0.83135  0.43334  1.0000
  H   H103      1.0  0.12359  0.66439  0.38700  1.0000
  C   C60       1.0  0.29332  0.55747  0.44685  1.0000
  C   C61       1.0  0.15305  0.93601  0.45196  1.0000
  C   C62       1.0  0.06968  0.75674  0.47822  1.0000
  H   H104      1.0  0.08767  0.70649  0.27949  1.0000
  H   H105      1.0  0.13328  0.94744  0.45737  1.0000
  H   H106      1.0  0.15334  0.73060  0.26531  1.0000
  N   N4        1.0  0.09140  0.71278  0.35606  1.0000
  C   C63       1.0  0.09655  0.69582  0.31131  1.0000
  C   C64       1.0  0.04228  0.78678  0.42995  1.0000
  C   C65       1.0  0.20767  0.99923  0.41611  1.0000
  C   C66       1.0  0.13828  0.70524  0.29413  1.0000
  C   C67       1.0  0.26056  0.54457  0.31390  1.0000
  N   N5        1.0  0.36159  0.58233  0.47603  1.0000
  C   C68       1.0  0.22744  0.94589  0.34689  1.0000
  H   H107      1.0  0.32913  0.65964  0.01614  1.0000
  C   C69       1.0  0.13188  0.78439  0.31758  1.0000
  C   C70       1.0  0.32486  0.58391  0.47796  1.0000
  C   C71       1.0  0.30218  0.51903  0.32971  1.0000
  C   C72       1.0  0.28864  0.98735  0.47498  1.0000
  H   H108      1.0  0.19235  0.68121  0.47438  1.0000
  C   C73       1.0  0.30333  0.76553  0.46644  1.0000
  H   H109      1.0  0.17926  0.97268  0.33105  1.0000
  C   C74       1.0  0.31412  0.99048  0.43541  1.0000
  H   H110      1.0  0.26403  0.54505  0.46791  1.0000
  H   H111      1.0  0.24822  0.70769  0.41061  1.0000
  H   H112      1.0  0.33221  0.61394  0.46575  1.0000
  H   H113      1.0  0.18775  0.90712  0.40854  1.0000
  H   H114      1.0  0.10460  0.89925  0.38066  1.0000
  C   C75       1.0  0.34570  0.79478  0.47436  1.0000
  H   H115      1.0  0.29358  0.57470  0.41363  1.0000
  H   H116      1.0  0.15319  0.75414  0.35890  1.0000
  H   H117      1.0  0.14425  0.89684  0.34996  1.0000
  C   C76       1.0  0.33065  0.54696  0.29311  1.0000
  H   H118      1.0  0.12145  0.76321  0.39386  1.0000
  H   H119      1.0  0.05319  0.73182  0.38372  1.0000
  H   H120      1.0  0.07782  0.69809  0.43444  1.0000
  H   H121      1.0  0.23368  0.54412  0.32232  1.0000
  N   N6        1.0  0.29496  0.72612  0.45592  1.0000
  H   H122      1.0  0.09425  0.75817  0.49359  1.0000
  H   H123      1.0  0.25690  0.95050  0.34969  1.0000
  C   C77       1.0  0.11905  0.68158  0.41316  1.0000
  H   H124      1.0  0.24382  0.66966  0.45184  1.0000
  H   H125      1.0  0.36483  0.84113  0.29075  1.0000
  H   H126      1.0  0.36655  0.80299  0.44098  1.0000
  H   H127      1.0  0.33774  0.72205  0.49584  1.0000
  H   H128      1.0  0.35781  0.54791  0.28469  1.0000
  H   H129      1.0  0.05986  0.65719  0.40188  1.0000
  H   H130      1.0  0.36310  0.62051  0.38586  1.0000
  H   H131      1.0  0.26879  0.95938  0.49597  1.0000
  H   H132      1.0  0.34755  0.82192  0.48329  1.0000
  H   H133      1.0  0.19180  0.92775  0.49784  1.0000
  H   H134      1.0  0.35449  0.55299  0.41100  1.0000
  H   H135      1.0  0.11139  0.66470  0.44984  1.0000
  H   H136      1.0  0.28476  0.76389  0.49917  1.0000
  C   C78       1.0  0.30562  0.70666  0.49507  1.0000
  C   C79       1.0  0.35066  0.67202  0.89156  1.0000
  C   C80       1.0  0.35592  0.54907  0.51112  1.0000
  S   S19       1.0  0.22239  0.78697  0.58973  1.0000
  C   C81       1.0  0.30765  0.78725  0.82062  1.0000
  H   H137      1.0  0.28051  0.72321  0.55600  1.0000
  C   C82       1.0  0.27890  0.78642  0.86126  1.0000
  S   S20       1.0  0.30888  0.67541  0.70940  1.0000
  H   H138      1.0  0.22403  0.68125  0.79524  1.0000
  Fe  Fe10      1.0  0.31950  0.63921  0.66020  1.0000
  S   S21       1.0  0.27496  0.59995  0.61353  1.0000
  H   H139      1.0  0.26490  0.71196  0.75109  1.0000
  H   H140      1.0  0.35351  0.74122  0.86019  1.0000
  H   H141      1.0  0.31074  0.57725  0.51623  1.0000
  C   C83       1.0  0.26709  0.55331  0.60965  1.0000
  C   C84       1.0  0.28694  0.53951  0.63569  1.0000
  H   H142      1.0  0.32617  0.75924  0.74524  1.0000
  H   H143      1.0  0.30705  0.55728  0.65980  1.0000
  C   C85       1.0  0.26415  0.78592  0.60198  1.0000
  C   C86       1.0  0.30149  0.81555  0.58120  1.0000
  C   C87       1.0  0.33442  0.81453  0.59268  1.0000
  C   C88       1.0  0.33013  0.78337  0.62376  1.0000
  C   C89       1.0  0.29278  0.75358  0.64409  1.0000
  C   C90       1.0  0.25992  0.75515  0.63382  1.0000
  H   H144      1.0  0.30506  0.83972  0.55730  1.0000
  H   H145      1.0  0.26542  0.80231  0.84631  1.0000
  H   H146      1.0  0.28913  0.72926  0.66747  1.0000
  H   H147      1.0  0.23108  0.73214  0.64995  1.0000
  H   H148      1.0  0.25402  0.75705  0.87489  1.0000
  H   H149      1.0  0.29889  0.63354  0.94182  1.0000
  C   C91       1.0  0.28601  0.70020  0.54751  1.0000
  H   H150      1.0  0.28393  0.69165  0.82689  1.0000
  H   H151      1.0  0.22542  0.54037  0.55850  1.0000
  C   C92       1.0  0.34616  0.67159  0.98055  1.0000
  H   H152      1.0  0.29424  0.80063  0.89231  1.0000
  C   C93       1.0  0.33987  0.75840  0.77840  1.0000
  Fe  Fe11      1.0  0.22525  0.81733  0.51676  1.0000
  S   S22       1.0  0.21635  0.86760  0.50231  1.0000
  Fe  Fe12      1.0  0.36388  0.72580  0.66882  1.0000
  S   S23       1.0  0.35401  0.62745  0.71136  1.0000
  H   H153      1.0  0.35862  0.78594  0.87144  1.0000
  H   H154      1.0  0.33279  0.74218  0.94539  1.0000
  H   H155      1.0  0.29847  0.79105  0.78464  1.0000
  N   N7        1.0  0.31462  0.75408  0.82434  1.0000
  H   H156      1.0  0.30582  0.70080  0.57384  1.0000
  H   H157      1.0  0.36329  0.83785  0.57719  1.0000
  H   H158      1.0  0.25823  0.67167  0.55500  1.0000
  C   C94       1.0  0.25096  0.71048  0.78768  1.0000
  C   C95       1.0  0.32912  0.65680  0.93829  1.0000
  C   C96       1.0  0.24103  0.52995  0.57852  1.0000
  H   H159      1.0  0.35484  0.78405  0.50561  1.0000
  H   H160      1.0  0.36284  0.97764  0.51212  1.0000
  C   C97       1.0  0.27730  0.71513  0.82764  1.0000
  Fe  Fe13      1.0  0.34858  0.66870  0.75761  1.0000
  S   S24       1.0  0.32662  0.65399  0.83950  1.0000
  C   C98       1.0  0.31247  0.73581  0.91747  1.0000
  H   H161      1.0  0.22324  0.69808  0.52109  1.0000
  H   H162      1.0  0.35841  0.62274  0.55468  1.0000
  H   H163      1.0  0.25855  0.70761  0.86276  1.0000
  H   H164      1.0  0.24167  0.73192  0.78714  1.0000
  H   H165      1.0  0.34417  0.54985  0.54838  1.0000
  H   H166      1.0  0.29294  0.74625  0.92860  1.0000
  H   H167      1.0  0.33544  0.81522  0.82092  1.0000
  H   H168      1.0  0.14555  0.91460  0.52865  1.0000
  C   C99       1.0  0.33655  0.75546  0.86703  1.0000
  H   H169      1.0  0.18191  0.96467  0.51457  1.0000
  H   H170      1.0  0.34340  0.73289  0.77818  1.0000
  H   H171      1.0  0.29537  0.70377  0.91868  1.0000
  C   C100      1.0  0.16968  0.93621  0.50058  1.0000
  H   H172      1.0  0.65694  0.32908  0.44784  1.0000
  Fe  Fe14      1.0  0.66917  0.32221  0.22251  1.0000
  S   S25       1.0  0.61564  0.26547  0.25488  1.0000
  S   S26       1.0  0.67396  0.36835  0.16740  1.0000
  Fe  Fe15      1.0  0.42776  0.22910  0.39319  1.0000
  S   S27       1.0  0.46064  0.26355  0.32039  1.0000
  C   C101      1.0  0.50457  0.26504  0.30441  1.0000
  C   C102      1.0  0.50885  0.23415  0.32068  1.0000
  C   C103      1.0  0.54308  0.23463  0.30522  1.0000
  C   C104      1.0  0.57371  0.26649  0.27465  1.0000
  C   C105      1.0  0.57003  0.29803  0.25962  1.0000
  C   C106      1.0  0.53526  0.29702  0.27390  1.0000
  H   H173      1.0  0.48525  0.20923  0.34376  1.0000
  H   H174      1.0  0.54574  0.21012  0.31683  1.0000
  H   H175      1.0  0.59357  0.32280  0.23614  1.0000
  H   H176      1.0  0.53212  0.32102  0.26120  1.0000
  H   H177      1.0  0.63852  0.26577  0.14538  1.0000
  C   C107      1.0  0.65380  0.38836  0.37095  1.0000
  H   H178      1.0  0.41706  0.35463  0.42145  1.0000
  H   H179      1.0  0.46229  0.35086  0.29465  1.0000
  C   C108      1.0  0.60865  0.33566  0.47973  1.0000
  H   H180      1.0  0.62432  0.39955  0.42959  1.0000
  S   S28       1.0  0.42391  0.17576  0.42927  1.0000
  H   H181      1.0  0.37935  0.24937  0.31693  1.0000
  H   H182      1.0  0.53804  0.25328  0.42869  1.0000
  C   C109      1.0  0.43928  0.33922  0.27013  1.0000
  H   H183      1.0  0.53885  0.18036  0.14827  1.0000
  N   N8        1.0  0.59339  0.33688  0.43187  1.0000
  H   H184      1.0  0.57936  0.26091  0.45934  1.0000
  H   H185      1.0  0.58117  0.28182  0.05282  1.0000
  H   H186      1.0  0.62297  0.31446  0.38811  1.0000
  H   H187      1.0  0.64679  0.37290  0.33816  1.0000
  H   H188      1.0  0.58378  0.18293  0.15140  1.0000
  Fe  Fe16      1.0  0.44279  0.20890  0.49359  1.0000
  H   H189      1.0  0.45203  0.34080  0.40985  1.0000
  C   C110      1.0  0.64985  0.34199  0.47759  1.0000
  C   C111      1.0  0.44537  0.09009  0.44726  1.0000
  H   H190      1.0  0.46500  0.11756  0.42277  1.0000
  C   C112      1.0  0.69794  0.28039  0.35828  1.0000
  H   H191      1.0  0.40026  0.09707  0.47987  1.0000
  H   H192      1.0  0.57903  0.31141  0.12600  1.0000
  C   C113      1.0  0.56995  0.26513  0.42398  1.0000
  H   H193      1.0  0.58094  0.30926  0.36602  1.0000
  H   H194      1.0  0.38639  0.33772  0.25725  1.0000
  H   H195      1.0  0.67000  0.24005  0.42447  1.0000
  C   C114      1.0  0.58433  0.28705  0.12802  1.0000
  H   H196      1.0  0.62830  0.31718  0.06587  1.0000
  C   C115      1.0  0.59317  0.30783  0.40047  1.0000
  C   C116      1.0  0.42690  0.09885  0.49144  1.0000
  H   H197      1.0  0.68402  0.02670  0.31281  1.0000
  C   C117      1.0  0.57096  0.20071  0.14166  1.0000
  C   C118      1.0  0.54508  0.35522  0.46964  1.0000
  C   C119      1.0  0.69498  0.27029  0.41392  1.0000
  H   H198      1.0  0.60317  0.29171  0.15707  1.0000
  H   H199      1.0  0.59788  0.38180  0.37925  1.0000
  N   N9        1.0  0.61673  0.25864  0.07444  1.0000
  H   H200      1.0  0.44916  0.37287  0.36436  1.0000
  C   C120      1.0  0.40161  0.31116  0.37061  1.0000
  Fe  Fe17      1.0  0.38805  0.24023  0.48270  1.0000
  H   H201      1.0  0.68982  0.25579  0.06846  1.0000
  H   H202      1.0  0.55648  0.21409  0.07197  1.0000
  H   H203      1.0  0.68580  0.28873  0.43119  1.0000
  S   S29       1.0  0.45080  0.26330  0.45514  1.0000
  H   H204      1.0  0.69164  0.20496  0.38779  1.0000
  H   H205      1.0  0.67200  0.29994  0.09727  1.0000
  H   H206      1.0  0.55544  0.26015  0.13847  1.0000
  H   H207      1.0  0.53745  0.32236  0.40911  1.0000
  H   H208      1.0  0.67425  0.38324  0.38985  1.0000
  C   C121      1.0  0.66889  0.24520  0.10238  1.0000
  H   H209      1.0  0.66211  0.29251  0.01360  1.0000
  C   C122      1.0  0.61620  0.37726  0.40410  1.0000
  H   H210      1.0  0.58952  0.19739  0.06888  1.0000
  C   C123      1.0  0.55156  0.32625  0.44322  1.0000
  H   H211      1.0  0.57494  0.24730  0.39921  1.0000
  H   H212      1.0  0.68246  0.37972  0.02690  1.0000
  H   H213      1.0  0.41707  0.37445  0.29156  1.0000
  C   C124      1.0  0.64873  0.26873  0.10627  1.0000
  H   H214      1.0  0.45291  0.35653  0.23374  1.0000
  H   H215      1.0  0.66939  0.41978  0.35724  1.0000
  C   C125      1.0  0.58284  0.21739  0.08691  1.0000
  H   H216      1.0  0.53412  0.29796  0.46689  1.0000
  H   H217      1.0  0.66957  0.27593  0.34924  1.0000
  C   C126      1.0  0.40430  0.34312  0.28789  1.0000
  H   H218      1.0  0.41737  0.29789  0.35492  1.0000
  C   C127      1.0  0.43171  0.34729  0.39232  1.0000
  H   H219      1.0  0.67218  0.37335  0.47495  1.0000
  H   H220      1.0  0.57782  0.22213  0.16762  1.0000
  C   C128      1.0  0.60336  0.28710  0.07776  1.0000
  H   H221      1.0  0.51331  0.34411  0.47549  1.0000
  H   H222      1.0  0.68620  0.24941  0.13332  1.0000
  C   C129      1.0  0.63455  0.26390  0.02239  1.0000
  H   H223      1.0  0.42256  0.06980  0.42613  1.0000
  H   H224      1.0  0.55915  0.38417  0.44787  1.0000
  H   H225      1.0  0.46408  0.07870  0.45655  1.0000
  H   H226      1.0  0.43107  0.30916  0.26599  1.0000
  H   H227      1.0  0.64776  0.21372  0.10385  1.0000
  H   H228      1.0  0.38311  0.36730  0.36625  1.0000
  H   H229      1.0  0.64309  0.24216  0.01711  1.0000
  H   H230      1.0  0.38136  0.28967  0.40196  1.0000
  H   H231      1.0  0.44607  0.13010  0.49513  1.0000
  N   N10       1.0  0.37896  0.31804  0.33428  1.0000
  H   H232      1.0  0.69778  0.22860  0.49119  1.0000
  H   H233      1.0  0.69852  0.03142  0.37414  1.0000
  H   H234      1.0  0.70172  0.08666  0.36347  1.0000
  S   S30       1.0  0.37646  0.28577  0.50844  1.0000
  S   S31       1.0  0.64180  0.29356  0.74035  1.0000
  Fe  Fe18      1.0  0.64921  0.33835  0.68093  1.0000
  S   S32       1.0  0.60240  0.34084  0.64320  1.0000
  H   H235      1.0  0.65171  0.32713  0.51173  1.0000
  H   H236      1.0  0.62306  0.25961  0.94681  1.0000
  H   H237      1.0  0.57945  0.23383  0.98940  1.0000
  C   C130      1.0  0.67585  0.36649  0.95243  1.0000
  Fe  Fe19      1.0  0.68239  0.34345  0.77957  1.0000
  H   H238      1.0  0.40193  0.07688  0.61525  1.0000
  S   S33       1.0  0.70069  0.34229  0.63810  1.0000
  N   N11       1.0  0.41710  0.07387  0.53945  1.0000
  S   S34       1.0  0.38209  0.18852  0.52774  1.0000
  C   C131      1.0  0.48873  0.11185  0.55715  1.0000
  C   C132      1.0  0.57038  0.30173  0.61340  1.0000
  C   C133      1.0  0.57595  0.27090  0.60712  1.0000
  C   C134      1.0  0.55046  0.24072  0.58176  1.0000
  C   C135      1.0  0.51934  0.24124  0.56270  1.0000
  C   C136      1.0  0.51370  0.27197  0.56915  1.0000
  C   C137      1.0  0.53924  0.30217  0.59431  1.0000
  H   H239      1.0  0.59986  0.27035  0.62184  1.0000
  H   H240      1.0  0.55488  0.21694  0.57701  1.0000
  H   H241      1.0  0.48958  0.27243  0.55498  1.0000
  H   H242      1.0  0.53473  0.32587  0.59939  1.0000
  H   H243      1.0  0.65114  0.37009  0.95062  1.0000
  C   C138      1.0  0.69340  0.37177  0.99585  1.0000
  C   C139      1.0  0.45148  0.07226  0.55476  1.0000
  H   H244      1.0  0.55488  0.35812  0.50631  1.0000
  Fe  Fe20      1.0  0.69668  0.30137  0.70033  1.0000
  S   S35       1.0  0.66518  0.34816  0.85874  1.0000
  H   H245      1.0  0.48472  0.12735  0.58630  1.0000
  S   S36       1.0  0.48868  0.20367  0.52984  1.0000
  H   H246      1.0  0.42831  0.12268  0.57844  1.0000
  S   S37       1.0  0.68544  0.38779  0.72252  1.0000
  C   C140      1.0  0.40534  0.09173  0.57816  1.0000
  H   H247      1.0  0.44336  0.05490  0.59135  1.0000
  H   H248      1.0  0.67700  0.43215  0.84819  1.0000
  H   H249      1.0  0.51250  0.10706  0.56606  1.0000
  H   H250      1.0  0.49911  0.13081  0.52175  1.0000
  H   H251      1.0  0.60612  0.28645  0.97658  1.0000
  H   H252      1.0  0.46030  0.05687  0.53037  1.0000
  H   H253      1.0  0.68990  0.44909  0.78462  1.0000
  C   C141      1.0  0.68988  0.35645  0.91144  1.0000
  C   C142      1.0  0.38286  0.03343  0.53794  1.0000
  C   C143      1.0  0.70120  0.45416  0.82047  1.0000
  C   C144      1.0  0.60876  0.26054  0.98214  1.0000
  H   H254      1.0  0.58829  0.30834  0.50410  1.0000
  H   H255      1.0  0.68243  0.27898  0.51194  1.0000
  H   H256      1.0  0.60959  0.35824  0.50120  1.0000
  S   S38       1.0  0.70030  0.24960  0.68277  1.0000
  H   H257      1.0  0.70285  0.26530  0.55828  1.0000
  Fe  Fe21      1.0  0.68049  0.80606  0.41218  1.0000
  Fe  Fe22      1.0  0.64207  0.84139  0.35448  1.0000
  S   S39       1.0  0.60808  0.84492  0.29497  1.0000
  C   C145      1.0  0.56952  0.71584  0.08405  1.0000
  Fe  Fe23      1.0  0.41882  0.69829  0.20387  1.0000
  N   N12       1.0  0.51843  0.73643  0.07463  1.0000
  S   S40       1.0  0.46499  0.69224  0.23799  1.0000
  H   H258      1.0  0.58933  0.71021  0.06091  1.0000
  H   H259      1.0  0.40216  0.57711  0.42622  1.0000
  Fe  Fe24      1.0  0.63556  0.83756  0.46501  1.0000
  S   S41       1.0  0.42791  0.74953  0.15539  1.0000
  C   C146      1.0  0.53347  0.80174  0.41459  1.0000
  C   C147      1.0  0.47266  0.66277  0.10388  1.0000
  H   H260      1.0  0.56834  0.78594  0.16856  1.0000
  C   C148      1.0  0.56751  0.80193  0.28175  1.0000
  C   C149      1.0  0.53861  0.80396  0.25873  1.0000
  C   C150      1.0  0.50638  0.77024  0.24655  1.0000
  C   C151      1.0  0.50338  0.73444  0.25636  1.0000
  C   C152      1.0  0.53205  0.73233  0.27989  1.0000
  C   C153      1.0  0.56389  0.76596  0.29302  1.0000
  H   H261      1.0  0.54124  0.83173  0.25011  1.0000
  H   H262      1.0  0.48429  0.77216  0.22879  1.0000
  H   H263      1.0  0.52987  0.70469  0.28755  1.0000
  H   H264      1.0  0.58617  0.76422  0.31062  1.0000
  H   H265      1.0  0.54703  0.79405  0.38462  1.0000
  C   C154      1.0  0.54257  0.84293  0.39701  1.0000
  H   H266      1.0  0.39043  0.60569  0.34960  1.0000
  H   H267      1.0  0.41784  0.73310  0.35062  1.0000
  H   H268      1.0  0.39782  0.64509  0.46885  1.0000
  H   H269      1.0  0.40926  0.73938  0.41231  1.0000
  C   C155      1.0  0.47098  0.76682  0.38288  1.0000
  S   S42       1.0  0.38047  0.65540  0.15580  1.0000
  C   C156      1.0  0.37587  0.57959  0.42543  1.0000
  C   C157      1.0  0.48847  0.73416  0.44763  1.0000
  H   H270      1.0  0.55001  0.80405  0.44604  1.0000
  H   H271      1.0  0.48856  0.70934  0.37890  1.0000
  H   H272      1.0  0.57529  0.76060  0.03231  1.0000
  C   C158      1.0  0.50413  0.71652  0.41157  1.0000
  H   H273      1.0  0.49730  0.80322  0.49024  1.0000
  C   C159      1.0  0.39356  0.61927  0.49186  1.0000
  H   H274      1.0  0.50453  0.73887  0.48003  1.0000
  N   N13       1.0  0.49083  0.77115  0.42819  1.0000
  H   H275      1.0  0.47167  0.79387  0.37028  1.0000
  H   H276      1.0  0.53060  0.85430  0.42393  1.0000
  H   H277      1.0  0.53257  0.84435  0.36106  1.0000
  C   C160      1.0  0.42800  0.73401  0.38708  1.0000
  H   H278      1.0  0.55337  0.80939  0.12598  1.0000
  H   H279      1.0  0.47855  0.66592  0.14224  1.0000
  S   S43       1.0  0.61831  0.79223  0.41468  1.0000
  H   H280      1.0  0.41449  0.63989  0.39073  1.0000
  H   H281      1.0  0.58594  0.79366  0.10504  1.0000
  H   H282      1.0  0.58768  0.73696  0.10833  1.0000
  H   H283      1.0  0.48708  0.76239  0.35217  1.0000
  S   S44       1.0  0.65497  0.88596  0.40510  1.0000
  H   H284      1.0  0.48964  0.65202  0.08469  1.0000
  H   H285      1.0  0.45803  0.71086  0.46093  1.0000
  S   S45       1.0  0.69560  0.84771  0.46823  1.0000
  S   S46       1.0  0.68588  0.75273  0.41898  1.0000
  C   C161      1.0  0.55068  0.73212  0.05070  1.0000
  H   H286      1.0  0.49819  0.74596  0.14373  1.0000
  Fe  Fe25      1.0  0.38544  0.70642  0.11010  1.0000
  H   H287      1.0  0.69357  0.99280  0.34301  1.0000
  C   C162      1.0  0.38640  0.61365  0.38624  1.0000
  H   H288      1.0  0.54467  0.79703  0.04537  1.0000
  H   H289      1.0  0.42387  0.70522  0.39791  1.0000
  S   S47       1.0  0.37885  0.79257  0.23286  1.0000
  C   C163      1.0  0.47906  0.70001  0.07542  1.0000
  H   H290      1.0  0.41560  0.73142  0.48865  1.0000
  H   H291      1.0  0.57468  0.86302  0.39150  1.0000
  C   C164      1.0  0.52410  0.74636  0.12603  1.0000
  C   C165      1.0  0.56019  0.78616  0.13110  1.0000
  C   C166      1.0  0.51728  0.76868  0.04532  1.0000
  H   H292      1.0  0.54815  0.68825  0.10673  1.0000
  H   H293      1.0  0.53594  0.73537  0.40034  1.0000
  S   S48       1.0  0.40804  0.72243  0.02837  1.0000
  H   H294      1.0  0.54013  0.71340  0.02099  1.0000
  H   H295      1.0  0.49948  0.68897  0.43008  1.0000
  H   H296      1.0  0.52605  0.72426  0.14957  1.0000
  H   H297      1.0  0.45555  0.70453  0.09068  1.0000
  H   H298      1.0  0.46468  0.80394  0.45106  1.0000
  H   H299      1.0  0.49331  0.77211  0.06198  1.0000
  H   H300      1.0  0.40642  0.01530  0.47712  1.0000
  H   H301      1.0  0.47271  0.69267  0.03799  1.0000
  H   H302      1.0  0.44148  0.63965  0.10530  1.0000
  Fe  Fe26      1.0  0.37535  0.74127  0.20127  1.0000
  C   C167      1.0  0.47433  0.78486  0.46752  1.0000
  H   H303      1.0  0.69878  0.69064  0.44253  1.0000
  H   H304      1.0  0.42208  0.62079  0.48692  1.0000
  S   S49       1.0  0.36971  0.69331  0.25308  1.0000
  H   H305      1.0  0.70052  0.01344  0.47270  1.0000
  H   H306      1.0  0.70276  0.96040  0.43623  1.0000
  C   C168      1.0  0.66270  0.93627  0.55199  1.0000
  H   H307      1.0  0.38450  0.55155  0.51465  1.0000
  Fe  Fe27      1.0  0.40575  0.68136  0.66974  1.0000
  H   H308      1.0  0.58022  0.76002  0.52834  1.0000
  S   S50       1.0  0.45708  0.67929  0.63593  1.0000
  H   H309      1.0  0.63657  0.91005  0.57227  1.0000
  C   C169      1.0  0.40668  0.71707  0.92985  1.0000
  S   S51       1.0  0.40341  0.72189  0.71954  1.0000
  H   H310      1.0  0.40667  0.71416  0.85199  1.0000
  H   H311      1.0  0.45061  0.73909  0.53022  1.0000
  C   C170      1.0  0.38971  0.70211  0.88761  1.0000
  C   C171      1.0  0.38139  0.79485  0.76995  1.0000
  C   C172      1.0  0.55764  0.79405  0.55560  1.0000
  C   C173      1.0  0.55673  0.75954  0.55060  1.0000
  C   C174      1.0  0.52576  0.72434  0.57554  1.0000
  C   C175      1.0  0.49547  0.72356  0.60496  1.0000
  C   C176      1.0  0.49608  0.75801  0.60918  1.0000
  C   C177      1.0  0.52726  0.79322  0.58480  1.0000
  H   H312      1.0  0.39059  0.60615  0.57155  1.0000
  H   H313      1.0  0.52542  0.69773  0.57234  1.0000
  H   H314      1.0  0.47279  0.75760  0.63178  1.0000
  H   H315      1.0  0.52789  0.81989  0.58875  1.0000
  H   H316      1.0  0.67762  0.82975  0.61507  1.0000
  H   H317      1.0  0.43675  0.74062  0.92622  1.0000
  S   S52       1.0  0.37191  0.78264  0.63685  1.0000
  H   H318      1.0  0.40990  0.65575  0.55034  1.0000
  H   H319      1.0  0.42901  0.76791  0.52847  1.0000
  C   C178      1.0  0.39114  0.00452  0.51465  1.0000
  C   C179      1.0  0.44033  0.75366  0.50523  1.0000
  S   S53       1.0  0.59641  0.83872  0.52622  1.0000
  H   H320      1.0  0.39721  0.79370  0.73619  1.0000
  H   H321      1.0  0.38090  0.82189  0.76382  1.0000
  C   C180      1.0  0.68854  0.88741  0.59557  1.0000
  C   C181      1.0  0.38507  0.70195  0.97658  1.0000
  S   S54       1.0  0.37152  0.69039  0.61612  1.0000
  H   H322      1.0  0.40746  0.99575  0.53763  1.0000
  H   H323      1.0  0.66951  0.92939  0.51602  1.0000
  H   H324      1.0  0.66804  0.88237  0.62842  1.0000
  H   H325      1.0  0.53558  0.76177  0.97105  1.0000
  H   H326      1.0  0.65463  0.95846  0.54542  1.0000
  H   H327      1.0  0.67032  0.87666  0.56540  1.0000
  C   C182      1.0  0.38715  0.62580  0.54516  1.0000
  H   H328      1.0  0.39884  0.79634  0.79982  1.0000
  H   H329      1.0  0.68542  0.95193  0.61980  1.0000
  H   H330      1.0  0.51435  0.79108  0.97306  1.0000
  C   C183      1.0  0.51240  0.76457  0.99079  1.0000
  H   H331      1.0  0.48343  0.74010  0.98537  1.0000
  C   C184      1.0  0.69730  0.95176  0.58225  1.0000
  H   H332      1.0  0.99026  0.35291  0.46099  1.0000
  S   S55       1.0  0.85417  0.17092  0.40250  1.0000
  H   H333      1.0  0.82950  0.10424  0.34755  1.0000
  S   S56       1.0  0.88679  0.26075  0.42263  1.0000
  Fe  Fe28      1.0  0.84009  0.21679  0.38335  1.0000
  S   S57       1.0  0.82303  0.22512  0.30986  1.0000
  S   S58       1.0  0.79261  0.19589  0.44546  1.0000
  C   C185      1.0  0.99958  0.26242  0.44788  1.0000
  C   C186      1.0  0.72972  0.11456  0.35924  1.0000
  C   C187      1.0  0.00381  0.29558  0.42212  1.0000
  C   C188      1.0  0.79621  0.44262  0.33474  1.0000
  C   C189      1.0  0.78161  0.51215  0.23679  1.0000
  S   S59       1.0  0.70418  0.36297  0.27374  1.0000
  Fe  Fe29      1.0  0.75603  0.36655  0.23298  1.0000
  S   S60       1.0  0.79947  0.36802  0.28161  1.0000
  S   S61       1.0  0.76846  0.41679  0.17876  1.0000
  C   C190      1.0  0.73469  0.48572  0.43234  1.0000
  H   H334      1.0  0.77272  0.25687  0.42051  1.0000
  S   S62       1.0  0.95416  0.21824  0.45890  1.0000
  C   C191      1.0  0.81744  0.26537  0.30099  1.0000
  C   C192      1.0  0.79347  0.26602  0.26709  1.0000
  C   C193      1.0  0.78785  0.29747  0.26055  1.0000
  C   C194      1.0  0.80687  0.32877  0.28717  1.0000
  C   C195      1.0  0.83135  0.32838  0.32046  1.0000
  C   C196      1.0  0.83626  0.29657  0.32782  1.0000
  H   H335      1.0  0.77896  0.24203  0.24612  1.0000
  H   H336      1.0  0.76909  0.29759  0.23467  1.0000
  H   H337      1.0  0.84633  0.35261  0.34093  1.0000
  H   H338      1.0  0.85497  0.29643  0.35381  1.0000
  H   H339      1.0  0.73286  0.19965  0.38082  1.0000
  C   C197      1.0  0.76552  0.11123  0.34463  1.0000
  H   H340      1.0  0.80626  0.09468  0.24302  1.0000
  C   C198      1.0  0.79858  0.05766  0.44313  1.0000
  H   H341      1.0  0.82539  0.08471  0.44506  1.0000
  Fe  Fe30      1.0  0.80931  0.15240  0.46737  1.0000
  C   C199      1.0  0.74466  0.49738  0.26262  1.0000
  H   H342      1.0  0.82806  0.45504  0.33307  1.0000
  H   H343      1.0  0.73913  0.07672  0.23368  1.0000
  H   H344      1.0  0.79084  0.14159  0.33885  1.0000
  H   H345      1.0  0.78693  0.14468  0.20926  1.0000
  C   C200      1.0  0.74659  0.04744  0.31662  1.0000
  C   C201      1.0  0.80590  0.10616  0.27835  1.0000
  C   C202      1.0  0.74702  0.25460  0.40502  1.0000
  C   C203      1.0  0.72832  0.01735  0.45904  1.0000
  H   H346      1.0  0.82057  0.36173  0.43855  1.0000
  H   H347      1.0  0.72928  0.50866  0.44291  1.0000
  H   H348      1.0  0.72159  0.47689  0.39826  1.0000
  H   H349      1.0  0.71251  0.08673  0.27740  1.0000
  H   H350      1.0  0.86268  0.11655  0.29355  1.0000
  C   C204      1.0  0.77916  0.50265  0.42545  1.0000
  H   H351      1.0  0.71012  0.19429  0.44088  1.0000
  H   H352      1.0  0.78031  0.41242  0.35325  1.0000
  H   H353      1.0  0.84285  0.50556  0.44775  1.0000
  H   H354      1.0  0.76187  0.04240  0.34544  1.0000
  H   H355      1.0  0.82765  0.03098  0.41014  1.0000
  C   C205      1.0  0.76212  0.31831  0.42528  1.0000
  H   H356      1.0  0.78951  0.44090  0.29641  1.0000
  N   N14       1.0  0.73151  0.27564  0.43255  1.0000
  H   H357      1.0  0.74022  0.42074  0.43788  1.0000
  H   H358      1.0  0.77037  0.09764  0.37744  1.0000
  H   H359      1.0  0.82168  0.13831  0.26945  1.0000
  Fe  Fe31      1.0  0.72825  0.37133  0.13345  1.0000
  H   H360      1.0  0.77173  0.15932  0.26225  1.0000
  C   C206      1.0  0.83164  0.09786  0.30967  1.0000
  H   H361      1.0  0.94025  0.33544  0.45347  1.0000
  C   C207      1.0  0.76280  0.05269  0.46142  1.0000
  Fe  Fe32      1.0  0.89636  0.21300  0.44862  1.0000
  H   H362      1.0  0.71138  0.50644  0.31884  1.0000
  Fe  Fe33      1.0  0.71357  0.40984  0.21668  1.0000
  C   C208      1.0  0.78265  0.46770  0.35839  1.0000
  N   N15       1.0  0.79222  0.47582  0.40949  1.0000
  C   C209      1.0  0.77167  0.43789  0.44259  1.0000
  C   C210      1.0  0.96527  0.35622  0.47139  1.0000
  H   H363      1.0  0.75790  0.26824  0.36661  1.0000
  C   C211      1.0  0.79992  0.33005  0.44820  1.0000
  H   H364      1.0  0.82412  0.06734  0.31021  1.0000
  C   C212      1.0  0.76175  0.13750  0.23636  1.0000
  C   C213      1.0  0.83554  0.49519  0.41158  1.0000
  H   H365      1.0  0.97895  0.29434  0.40785  1.0000
  S   S63       1.0  0.74659  0.36995  0.05364  1.0000
  H   H366      1.0  0.78356  0.41949  0.43275  1.0000
  H   H367      1.0  0.78550  0.49692  0.20854  1.0000
  N   N16       1.0  0.76447  0.09027  0.30120  1.0000
  H   H368      1.0  0.75065  0.45249  0.35713  1.0000
  C   C214      1.0  0.74267  0.09577  0.26247  1.0000
  H   H369      1.0  0.77144  0.32923  0.38577  1.0000
  H   H370      1.0  0.84492  0.47389  0.40808  1.0000
  H   H371      1.0  0.79500  0.49506  0.33349  1.0000
  H   H372      1.0  0.70394  0.26154  0.33687  1.0000
  H   H373      1.0  0.79462  0.32433  0.48854  1.0000
  H   H374      1.0  0.75016  0.03316  0.28536  1.0000
  C   C215      1.0  0.79980  0.02720  0.42334  1.0000
  H   H375      1.0  0.73263  0.12575  0.39515  1.0000
  C   C216      1.0  0.03223  0.26424  0.46557  1.0000
  H   H376      1.0  0.75008  0.33551  0.43961  1.0000
  Fe  Fe34      1.0  0.83990  0.23642  0.48681  1.0000
  H   H377      1.0  0.81501  0.31558  0.43430  1.0000
  H   H378      1.0  0.72032  0.31114  0.34553  1.0000
  H   H379      1.0  0.97434  0.38615  0.45613  1.0000
  H   H380      1.0  0.71919  0.46126  0.46212  1.0000
  C   C217      1.0  0.71821  0.21093  0.40406  1.0000
  S   S64       1.0  0.72032  0.32173  0.18576  1.0000
  S   S65       1.0  0.75986  0.08990  0.48705  1.0000
  H   H381      1.0  0.74027  0.14016  0.21605  1.0000
  H   H382      1.0  0.74716  0.25898  0.49942  1.0000
  C   C218      1.0  0.72204  0.25944  0.48577  1.0000
  H   H383      1.0  0.79026  0.51353  0.46016  1.0000
  H   H384      1.0  0.72842  0.13571  0.33299  1.0000
  H   H385      1.0  0.02919  0.23861  0.48527  1.0000
  C   C219      1.0  0.77469  0.44093  0.49749  1.0000
  C   C220      1.0  0.70314  0.02403  0.33753  1.0000
  S   S66       1.0  0.70385  0.45386  0.25057  1.0000
  H   H386      1.0  0.73288  0.31079  0.52158  1.0000
  H   H387      1.0  0.90300  0.30733  0.66654  1.0000
  C   C221      1.0  0.72200  0.35215  0.91419  1.0000
  C   C222      1.0  0.70949  0.28030  0.52057  1.0000
  H   H388      1.0  0.88985  0.27450  0.62216  1.0000
  S   S67       1.0  0.79118  0.44282  0.64860  1.0000
  H   H389      1.0  0.93297  0.24843  0.61067  1.0000
  H   H390      1.0  0.82419  0.33364  0.57691  1.0000
  S   S68       1.0  0.73688  0.34775  0.74386  1.0000
  N   N17       1.0  0.77438  0.47849  0.79121  1.0000
  C   C223      1.0  0.90726  0.30563  0.62693  1.0000
  C   C224      1.0  0.80141  0.27328  0.57005  1.0000
  C   C225      1.0  0.80073  0.30415  0.58897  1.0000
  C   C226      1.0  0.76976  0.29715  0.62340  1.0000
  C   C227      1.0  0.73951  0.25912  0.63966  1.0000
  C   C228      1.0  0.74021  0.22821  0.62077  1.0000
  C   C229      1.0  0.77099  0.23524  0.58582  1.0000
  C   C230      1.0  0.72499  0.36660  0.99895  1.0000
  H   H391      1.0  0.77771  0.43654  0.75042  1.0000
  C   C231      1.0  0.80021  0.50923  0.82129  1.0000
  H   H392      1.0  0.77130  0.21127  0.57144  1.0000
  H   H393      1.0  0.97371  0.25880  0.56625  1.0000
  H   H394      1.0  0.96655  0.37943  0.54016  1.0000
  C   C232      1.0  0.00531  0.33752  0.54929  1.0000
  H   H395      1.0  0.76133  0.45671  0.51213  1.0000
  H   H396      1.0  0.76946  0.32113  0.63779  1.0000
  H   H397      1.0  0.77640  0.41484  0.84040  1.0000
  C   C233      1.0  0.78275  0.47492  0.61312  1.0000
  C   C234      1.0  0.74483  0.46703  0.61086  1.0000
  H   H398      1.0  0.89499  0.32135  0.60829  1.0000
  H   H399      1.0  0.96172  0.30875  0.63412  1.0000
  H   H400      1.0  0.72020  0.44068  0.63030  1.0000
  H   H401      1.0  0.71683  0.19875  0.63324  1.0000
  H   H402      1.0  0.01252  0.32214  0.57767  1.0000
  H   H403      1.0  0.75852  0.41137  0.51818  1.0000
  H   H404      1.0  0.74023  0.44464  0.86046  1.0000
  H   H405      1.0  0.76391  0.35327  0.95957  1.0000
  N   N18       1.0  0.96247  0.32401  0.55700  1.0000
  S   S69       1.0  0.85209  0.19102  0.51567  1.0000
  C   C235      1.0  0.93948  0.28402  0.54198  1.0000
  H   H406      1.0  0.92184  0.33921  0.53193  1.0000
  C   C236      1.0  0.94338  0.25261  0.57134  1.0000
  H   H407      1.0  0.82382  0.47872  0.75318  1.0000
  H   H408      1.0  0.70919  0.48706  0.58159  1.0000
  H   H409      1.0  0.03305  0.39887  0.51831  1.0000
  H   H410      1.0  0.90796  0.27397  0.54366  1.0000
  C   C237      1.0  0.80316  0.43629  0.81587  1.0000
  H   H411      1.0  0.80526  0.45483  0.50563  1.0000
  H   H412      1.0  0.92511  0.22441  0.55764  1.0000
  C   C238      1.0  0.95129  0.32390  0.61022  1.0000
  C   C239      1.0  0.73944  0.35727  0.95764  1.0000
  Fe  Fe35      1.0  0.73642  0.38820  0.68406  1.0000
  C   C240      1.0  0.79506  0.45816  0.77488  1.0000
  H   H413      1.0  0.96602  0.35401  0.61987  1.0000
  C   C241      1.0  0.73619  0.44838  0.82148  1.0000
  H   H414      1.0  0.82544  0.45644  0.83759  1.0000
  C   C242      1.0  0.95367  0.35048  0.52708  1.0000
  H   H415      1.0  0.81505  0.41983  0.79896  1.0000
  H   H416      1.0  0.74948  0.47224  0.72330  1.0000
  C   C243      1.0  0.73861  0.49329  0.58314  1.0000
  H   H417      1.0  0.02847  0.39113  0.58441  1.0000
  C   C244      1.0  0.76703  0.49554  0.74584  1.0000
  H   H418      1.0  0.73293  0.34411  0.88319  1.0000
  S   S70       1.0  0.84046  0.28361  0.52618  1.0000
  C   C245      1.0  0.81441  0.50904  0.58723  1.0000
  H   H419      1.0  0.74937  0.50861  0.75481  1.0000
  H   H420      1.0  0.80417  0.49591  0.85523  1.0000
  H   H421      1.0  0.72536  0.41936  0.80931  1.0000
  H   H422      1.0  0.94855  0.28428  0.50300  1.0000
  H   H423      1.0  0.70782  0.48301  0.82879  1.0000
  H   H424      1.0  0.84383  0.51535  0.58902  1.0000
  H   H425      1.0  0.01327  0.32974  0.51443  1.0000
  C   C246      1.0  0.03391  0.38121  0.55011  1.0000
  Fe  Fe36      1.0  0.84355  0.69148  0.42433  1.0000
  S   S71       1.0  0.89344  0.69215  0.38046  1.0000
  H   H426      1.0  0.98069  0.75072  0.42354  1.0000
  Fe  Fe37      1.0  0.89981  0.66516  0.44993  1.0000
  Fe  Fe38      1.0  0.84851  0.63153  0.36877  1.0000
  S   S72       1.0  0.84957  0.61093  0.29531  1.0000
  S   S73       1.0  0.79837  0.63280  0.40700  1.0000
  H   H427      1.0  0.76828  0.56695  0.33872  1.0000
  C   C247      1.0  0.77207  0.55204  0.31000  1.0000
  C   C248      1.0  0.00058  0.71990  0.46741  1.0000
  S   S74       1.0  0.76798  0.95341  0.39855  1.0000
  C   C249      1.0  0.80016  0.78331  0.40392  1.0000
  C   C250      1.0  0.76529  0.99176  0.42117  1.0000
  H   H428      1.0  0.86166  0.71696  0.21657  1.0000
  C   C251      1.0  0.72951  0.98723  0.43839  1.0000
  H   H429      1.0  0.76862  0.81301  0.39547  1.0000
  C   C252      1.0  0.80888  0.56720  0.28352  1.0000
  H   H430      1.0  0.80431  0.71698  0.19932  1.0000
  H   H431      1.0  0.71495  0.61646  0.34731  1.0000
  C   C253      1.0  0.79765  0.74779  0.41650  1.0000
  H   H432      1.0  0.88100  0.74798  0.26401  1.0000
  C   C254      1.0  0.72956  0.75211  0.41905  1.0000
  H   H433      1.0  0.88780  0.55197  0.38824  1.0000
  C   C255      1.0  0.76095  0.71450  0.43097  1.0000
  H   H434      1.0  0.79191  0.52922  0.39877  1.0000
  H   H435      1.0  0.75860  0.68707  0.44133  1.0000
  S   S75       1.0  0.84087  0.74608  0.41091  1.0000
  S   S76       1.0  0.85881  0.60426  0.43446  1.0000
  H   H436      1.0  0.75832  0.64103  0.18626  1.0000
  N   N19       1.0  0.79388  0.69933  0.27712  1.0000
  C   C256      1.0  0.80817  0.74144  0.28139  1.0000
  C   C257      1.0  0.82620  0.69286  0.28924  1.0000
  H   H437      1.0  0.75763  0.61945  0.31936  1.0000
  H   H438      1.0  0.81784  0.66225  0.28969  1.0000
  H   H439      1.0  0.76182  0.74406  0.24572  1.0000
  H   H440      1.0  0.88432  0.70583  0.26302  1.0000
  H   H441      1.0  0.00712  0.66191  0.39725  1.0000
  H   H442      1.0  0.81995  0.74946  0.31662  1.0000
  H   H443      1.0  0.76711  0.68138  0.35205  1.0000
  Fe  Fe39      1.0  0.81203  0.60989  0.47420  1.0000
  H   H444      1.0  0.83260  0.69914  0.32712  1.0000
  H   H445      1.0  0.83301  0.76083  0.25273  1.0000
  H   H446      1.0  0.75735  0.74384  0.31160  1.0000
  C   C258      1.0  0.75879  0.67485  0.31492  1.0000
  Fe  Fe40      1.0  0.71372  0.89326  0.40388  1.0000
  H   H447      1.0  0.80986  0.66617  0.18081  1.0000
  C   C259      1.0  0.78344  0.65623  0.20720  1.0000
  C   C260      1.0  0.86529  0.71756  0.25578  1.0000
  C   C261      1.0  0.72709  0.71662  0.43172  1.0000
  H   H448      1.0  0.79354  0.78612  0.27324  1.0000
  C   C262      1.0  0.81347  0.54729  0.24671  1.0000
  C   C263      1.0  0.77804  0.75394  0.27751  1.0000
  C   C264      1.0  0.73796  0.63062  0.31534  1.0000
  C   C265      1.0  0.76632  0.78555  0.40541  1.0000
  H   H449      1.0  0.99288  0.68286  0.35099  1.0000
  H   H450      1.0  0.82845  0.80924  0.39278  1.0000
  C   C266      1.0  0.00534  0.75235  0.43902  1.0000
  H   H451      1.0  0.84187  0.55888  0.22608  1.0000
  H   H452      1.0  0.87366  0.52154  0.34153  1.0000
  C   C267      1.0  0.01599  0.67680  0.35924  1.0000
  H   H453      1.0  0.75424  0.68736  0.22303  1.0000
  S   S77       1.0  0.95600  0.67487  0.47610  1.0000
  H   H454      1.0  0.01618  0.65718  0.33349  1.0000
  C   C268      1.0  0.78347  0.69134  0.22620  1.0000
  H   H455      1.0  0.72303  0.62135  0.28241  1.0000
  H   H456      1.0  0.73562  0.68156  0.31044  1.0000
  H   H457      1.0  0.78087  0.63406  0.23533  1.0000
  H   H458      1.0  0.84786  0.54564  0.35805  1.0000
  S   S78       1.0  0.85328  0.66877  0.49532  1.0000
  C   C269      1.0  0.86190  0.53029  0.37228  1.0000
  C   C270      1.0  0.73994  0.51762  0.29892  1.0000
  C   C271      1.0  0.03277  0.72243  0.48743  1.0000
  S   S79       1.0  0.70309  0.85238  0.34750  1.0000
  H   H459      1.0  0.77197  0.91291  0.49956  1.0000
  H   H460      1.0  0.80833  0.55810  0.85750  1.0000
  C   C272      1.0  0.77520  0.98764  0.61731  1.0000
  H   H461      1.0  0.72611  0.93672  0.65954  1.0000
  H   H462      1.0  0.83272  0.56164  0.53966  1.0000
  C   C273      1.0  0.80817  0.53523  0.55925  1.0000
  H   H463      1.0  0.71906  0.85821  0.57120  1.0000
  H   H464      1.0  0.80374  0.95760  0.52062  1.0000
  H   H465      1.0  0.75579  0.97001  0.52036  1.0000
  H   H466      1.0  0.78130  0.55111  0.80701  1.0000
  C   C274      1.0  0.77021  0.52740  0.55726  1.0000
  C   C275      1.0  0.74177  0.93873  0.53414  1.0000
  H   H467      1.0  0.72111  0.86595  0.63536  1.0000
  H   H468      1.0  0.83001  0.52814  0.80103  1.0000
  H   H469      1.0  0.76038  0.92869  0.62870  1.0000
  H   H470      1.0  0.79449  0.99386  0.64640  1.0000
  S   S80       1.0  0.76110  0.55897  0.52180  1.0000
  H   H471      1.0  0.82140  0.55332  0.73065  1.0000
  H   H472      1.0  0.77683  0.91403  0.56279  1.0000
  C   C276      1.0  0.78583  0.53562  0.83801  1.0000
  H   H473      1.0  0.02919  0.69753  0.50977  1.0000
  C   C277      1.0  0.74434  0.94382  0.62372  1.0000
  H   H474      1.0  0.72202  0.92322  0.50689  1.0000
  C   C278      1.0  0.77510  0.93012  0.53027  1.0000
  N   N20       1.0  0.71871  0.93010  0.58358  1.0000
  H   H475      1.0  0.79375  0.53766  0.68076  1.0000
  H   H476      1.0  0.71746  0.98284  0.56736  1.0000
  H   H477      1.0  0.75887  0.51916  0.86425  1.0000
  H   H478      1.0  0.76161  0.00533  0.62122  1.0000
  C   C279      1.0  0.80348  0.52761  0.71213  1.0000
  H   H479      1.0  0.79408  0.99738  0.58182  1.0000
  H   H480      1.0  0.82177  0.51705  0.69618  1.0000
  C   C280      1.0  0.70335  0.85955  0.60476  1.0000
