data_image0
_chemical_formula_structural       HSHCHC3HC2H2C3H4CSH3CHC3NC2H6C2FeCH3SCH2CH3FeH2CH7CHCH2CHCFeCSFe2SFeS2HSCSFeSHCSCFeS2CFeSCS2FeSCS2C6H10C6H4CH2CFeC3HC6SH5C6H4CH3C2H5CH2C2HS2HCHSH2NC8H12CH7CH3CH2CH4CSH3C3HCH2NH3SH4CSCHFeH2FeH16C3H9C4H3FeH4C3H2CHCH4CH2CH2SNH3CH2C3HCNHC3NC3SCH6CHFeC2H2CH5CSHFeS2H3CH2CH3SH2C2HFeCHCHC3H2CHCHCFeCH3NHCNSH2CH3CHCSHCH5SH4C2HCHNHSHFeHNH2CH6Fe2SHCS2H4S2FeS2CSHFeSCH3C2NHSH4SH2CHC7H3CH4CHC6H5C6H4CHFeHCH3SHCHCHCH4CHSHC6H6FeHC6HCH6SHCH8CH3CH4NC8H7CH14NHCH4SC2HSCH6CHCH11CHN2H3CHCH7CFeNHSHSHCHC2H4CHCSCHC2H2SC2H4SCHC2HNHCHCHFeH4CSC3H3SCHC2H6FeHCNC2H2CHC2H6FeH2C4H3CHNHCHFeH3CSHC4HNSH2CH3C3HC3HC2HCH2C2H2CFeH4CH7NH5CH5CHC2HCH4C2H6CHCFeS2CH2Fe2SCSHS2H2C2H2FeHSFeSFeHS2H2CHC4H2CSH3C6H4CHC4H2SH2CHCH2FeHNHSHNCH6CHCHCH2FeHCHCHCHC2HSHCH2CH2CSH3NHCH2SHCH3C4HCFeSHSH2CHCSCFeCSFeHFeSNSCFeH2FeS2HFeSCSFeSHFeS2FeSFeSFe2S2FeS2FeSHSH2CFeS2FeS2H2FeS3FeS2FeS2HFeSHSH3C2H2SHC6H5CHC4H4C6HCH2C6H6CHNC6H4C6H4C7H6CH2CSCNC6H4C5H11NC8H20NHC2H2C3H5CH6CHCHCHCH3CH3CHC3H5SH6NC8H20FeH3CH2CH2C2HCH5CH2FeHSHCHCHCH2SNH4NH4C2H2CSHCH4C2H2NHCFeHSHCH2NCH3CSFeHCH3CH3CH4SHCSH2CHCNHCH2CHSFeCHC2H4CH7NHCHCHCH5C2H3C3H6CH2CHSHSHCHCHCH3CH2CSH2CHCH3SH2CH2SCH9SC2HCH2C2HCH2C2HCH3C5HSFeS2HSHC2S2H2C4HFeSHSH5CH2FeSCSCFeS2FeH2CFe2SFeCSHCHSHCSHFeHFeSHCH3CSH4CSC3SC3H3C6H5CSCH2CHC2HC4H4C2HC3H2CH2CHNHC2H2CHC3H5C6H3CH2FeCH2CH3SHC2HCH3CHCHC2H2NH7CFeCH2C2SH2CHC3H2CH5FeCH2C3FeH2C2H4SC2H4CSHCHCHC2HSCHNC7H14SH4NHCNH2C2FeHCHSCNH3NH3FeHCH2CHCHSCFeSH2CHSH4SH4CSNHSH2CH2SFeH6FeH2C2H3CH3CH4SHCH3CH2C3SCHCH4CHFeS2FeSFeHS2HSH7CHC3H3SCH2CS2CH4CH2CHCHC7H4C5HCHCH3FeH3CHSH4SCHC2H2C2HSHCH4CH3FeCH2CNC2HSCH3CH7CNC6HCH5SH3NHCHC2HNHCH2CHCH6SFeH2FeHSFeS3H2FeHSFeS4CSC5FeHC6H4C6H5NH2NC4HCSCH8S2HCHFeCH6FeCH8C3H3CHCH4NH7CH2CH2CH5CH2SH3CH2C4HCHSCHCHS3HFeS2FeHFeHFeHS2H2SFeS2FeS2CFeSHSFeHSFeCSFeS2FeS2FeS2FeSCSC2H4FeS2HCHS2HFeSFeS2FeSHFeSHSFeC7H4CH2C4FeH2C5H4C7H5C4SCH3C6HCH2C6H4C6H4C7H2C2H2CHCH5SCH7NC8H20CH6C2H6SCH5FeCH3FeCH2CHCH2FeSHCH3CH2CHCHSC2NH2C2H3CH2C2H6C3HCSH3NCH2C3HCSHCHCH4CH2CH2C4SH4CH6CHNHCHC2HC2HCH2CH7CH3FeH2CNH4CSHCH2SHCH2SH4C2H3CHC2H3SH2NCHCH5CHC2HSCSNH5NHCHCH4CNH5C2HCH2SH4NCH5CH2CH3C3HCHCNHCH7C2HC3H2CH3SH8SHSHS2HC3H2SH4C2H2C2S2FeS2CH2S2HCHSH3Fe2HCHCHC2HCHCHCH2C4H3C4HCH7CHC7H3C3FeCH5CH2CH3CHCSCHC2HCH3C4HCHC2H2NH2NH2CHC3NH6CHSH2CHCSHC3HCSCFeH2FeSH2CH4CHSNC5HC2H6NCH2CH7CNH5CH7CH4FeCH4FeH3CFeHCHSCSH2SHCHNCHC2FeHCHC2NC8H10SHC2H6SH4SH7CFeHCH3SH2CH2CHFeH5C2HCHCSC2H4CH3CSH2CHC2H2CH2CH4FeCH2CFeS2HSH2CSH3C2H2CHCHC2H2C3HSH2C2HSFeH2CSH5CHCH2CH2CHS2CHCHC2NCNHCHCHSCHC2S2H3CFeHC2H3NHCHCHC2H4CH12CH3C2H2CHS2FeS2H2CH2CH2SH2SH4C2FeSFeS2H2FeH4CH6C2H2SHFeC2FeHC3SCH2C6H2CHSHCHC2HCH2CH2C2HSFeH6CHCHC2H2FeCH2NHCHNHCHCH2CNH3C2H4CSH2C3H2SH3CH2FeCH4SH2FeH3CSCH2CFeHC2H2FeHNS2FeS2FeSHFeCFeS3FeSHFeS2FeSFeS3FeS2FeSH2C2FeS2FeS2CHFeS2HFeS2FeSHFeSFeS3FeS2FeSHFeSFeS3C6H6CHC8H4C6H7SCH3C2HSC2HCH3CH3CH2CHC6H4C6H5CH3CH2C6H4C6H12C2H4SH2NC8H20SHFeH3FeH2CNH7CHC2H3C2HCHNC8H10SHCH3C2SH2CHCH3FeH2CH14C2HC2H3CSCH4CHCHNCH5C2NCHFeH2CH3SH2CHNH2SH2C3H9CH5CHC2HCH5C2HC2SHCFeHCH3CH5CHCH3CHSH2CH2SH3CHCHC3HCH2NCHCH2CH2C3H6CSHCHNC2H2CHCSHCHCHCH2CH2CFeCHCH5CH2CH4SCH2CNHCHCFeHC4NC2HCH2SHCFeS2CFeS2FeS3C5H2C6HCH2C2HCH9SH2SC4FeHC2H5CH3CH2SH2NC2HCH3NHNC8H21CSCHCNH3CH4CHNHCHCH5C2H2S2CHCSHC7HSH2CHC5HCH2FeHCHCHCH8SH3SH3CH7C2H5CFeH5C2FeCHSHC2H2SCSHCFeSHCSH3CH3CH4NC6H4FeCHSH4SH2CHSHSC2H2CH2C5HNH2SH4CH4CH2CH5CHC2H4NCSC3HC2FeCHCHFeH2CHCH3FeHC2H3CH7CH2SH5C2H2C4H3FeH2CHNH5CH4CH2Fe2H2CHC2HC3
_chemical_formula_sum              "H2304 S384 C1344 N96 Fe192"
_cell_length_a       74.9342
_cell_length_b       74.6941
_cell_length_c       74.779
_cell_angle_alpha    81.4159
_cell_angle_beta     81.2788
_cell_angle_gamma    81.0025

_space_group_name_H-M_alt    "P 1"
_space_group_IT_number       1

loop_
  _space_group_symop_operation_xyz
  'x, y, z'

loop_
  _atom_site_type_symbol
  _atom_site_label
  _atom_site_symmetry_multiplicity
  _atom_site_fract_x
  _atom_site_fract_y
  _atom_site_fract_z
  _atom_site_occupancy
  H   H1        1.0  0.39331  0.46342  0.25445  1.0000
  S   S1        1.0  0.46964  0.44080  0.06077  1.0000
  H   H2        1.0  0.48044  0.48285  0.23448  1.0000
  C   C1        1.0  0.47589  0.48247  0.08190  1.0000
  H   H3        1.0  0.43055  0.48436  0.16891  1.0000
  C   C2        1.0  0.49175  0.50093  0.04649  1.0000
  C   C3        1.0  0.44131  0.47151  0.22421  1.0000
  C   C4        1.0  0.44715  0.45290  0.22272  1.0000
  H   H4        1.0  0.37380  0.47672  0.24482  1.0000
  C   C5        1.0  0.45531  0.48739  0.13632  1.0000
  C   C6        1.0  0.46198  0.45945  0.04544  1.0000
  H   H5        1.0  0.48894  0.44592  0.18141  1.0000
  H   H6        1.0  0.44140  0.49327  0.14151  1.0000
  C   C7        1.0  0.45374  0.49207  0.02265  1.0000
  C   C8        1.0  0.44323  0.48876  0.03964  1.0000
  C   C9        1.0  0.44735  0.47238  0.05106  1.0000
  H   H7        1.0  0.48947  0.44081  0.15829  1.0000
  H   H8        1.0  0.49747  0.50321  0.01694  1.0000
  H   H9        1.0  0.43224  0.49896  0.04416  1.0000
  H   H10       1.0  0.43966  0.47004  0.06447  1.0000
  C   C10       1.0  0.46516  0.44521  0.22489  1.0000
  S   S2        1.0  0.47248  0.42218  0.22178  1.0000
  H   H11       1.0  0.48013  0.47731  0.16983  1.0000
  H   H12       1.0  0.46496  0.49722  0.13649  1.0000
  H   H13       1.0  0.48468  0.50427  0.09231  1.0000
  C   C11       1.0  0.48238  0.43912  0.17243  1.0000
  H   H14       1.0  0.45574  0.44212  0.18791  1.0000
  C   C12       1.0  0.38856  0.47603  0.24567  1.0000
  C   C13       1.0  0.47716  0.45610  0.22899  1.0000
  C   C14       1.0  0.46585  0.47683  0.17652  1.0000
  N   N1        1.0  0.45608  0.46559  0.16691  1.0000
  C   C15       1.0  0.46167  0.44562  0.17346  1.0000
  C   C16       1.0  0.48828  0.49752  0.07976  1.0000
  H   H15       1.0  0.45445  0.48591  0.12193  1.0000
  H   H16       1.0  0.49106  0.45029  0.23069  1.0000
  H   H17       1.0  0.47677  0.46650  0.14335  1.0000
  H   H18       1.0  0.48259  0.45213  0.02351  1.0000
  H   H19       1.0  0.48452  0.42427  0.17750  1.0000
  H   H20       1.0  0.39566  0.47502  0.23164  1.0000
  C   C17       1.0  0.45328  0.48232  0.22853  1.0000
  C   C18       1.0  0.43573  0.46965  0.17209  1.0000
  Fe  Fe1       1.0  0.50244  0.41206  0.22291  1.0000
  C   C19       1.0  0.47114  0.47454  0.23106  1.0000
  H   H21       1.0  0.46708  0.47033  0.19076  1.0000
  H   H22       1.0  0.45626  0.43663  0.16559  1.0000
  H   H23       1.0  0.50439  0.49104  0.04749  1.0000
  S   S3        1.0  0.44624  0.50540  0.23151  1.0000
  C   C20       1.0  0.46167  0.46852  0.14655  1.0000
  H   H24       1.0  0.43217  0.46666  0.18715  1.0000
  H   H25       1.0  0.42755  0.47743  0.22224  1.0000
  C   C21       1.0  0.47177  0.46243  0.02809  1.0000
  H   H26       1.0  0.47690  0.47397  0.09531  1.0000
  H   H27       1.0  0.38570  0.50530  0.24382  1.0000
  H   H28       1.0  0.45750  0.45790  0.13964  1.0000
  Fe  Fe2       1.0  0.50021  0.43667  0.05587  1.0000
  H   H29       1.0  0.43779  0.44447  0.21967  1.0000
  H   H30       1.0  0.42614  0.44433  0.16758  1.0000
  C   C22       1.0  0.42402  0.45925  0.16306  1.0000
  H   H31       1.0  0.44448  0.49715  0.18828  1.0000
  H   H32       1.0  0.48050  0.47301  0.07153  1.0000
  H   H33       1.0  0.45419  0.50475  0.16528  1.0000
  H   H34       1.0  0.50242  0.49031  0.08025  1.0000
  H   H35       1.0  0.42640  0.46197  0.14796  1.0000
  H   H36       1.0  0.46666  0.50371  0.18406  1.0000
  H   H37       1.0  0.40940  0.46409  0.16724  1.0000
  C   C23       1.0  0.46778  0.47879  0.01677  1.0000
  H   H38       1.0  0.48074  0.49269  0.04605  1.0000
  C   C24       1.0  0.45715  0.49671  0.17839  1.0000
  H   H39       1.0  0.40731  0.49429  0.24809  1.0000
  H   H40       1.0  0.46133  0.48804  0.08154  1.0000
  C   C25       1.0  0.39262  0.49344  0.25223  1.0000
  H   H41       1.0  0.50460  0.32651  0.24384  1.0000
  C   C26       1.0  0.46205  0.35685  0.34839  1.0000
  Fe  Fe3       1.0  0.40477  0.11890  0.48772  1.0000
  C   C27       1.0  0.30176  0.36001  0.48105  1.0000
  S   S4        1.0  0.39516  0.14713  0.47297  1.0000
  Fe  Fe4       1.0  0.40385  0.07667  0.49204  1.0000
  Fe  Fe5       1.0  0.36508  0.28944  0.48914  1.0000
  S   S5        1.0  0.39134  0.05275  0.48596  1.0000
  Fe  Fe6       1.0  0.43934  0.09157  0.48889  1.0000
  S   S6        1.0  0.46818  0.08741  0.47583  1.0000
  S   S7        1.0  0.41748  0.09644  0.47079  1.0000
  H   H42       1.0  0.05885  0.47487  0.32152  1.0000
  S   S8        1.0  0.46295  0.08500  0.39304  1.0000
  C   C28       1.0  0.39641  0.47982  0.28454  1.0000
  S   S9        1.0  0.08523  0.47470  0.35941  1.0000
  Fe  Fe7       1.0  0.04285  0.43582  0.49434  1.0000
  S   S10       1.0  0.03896  0.45457  0.46859  1.0000
  H   H43       1.0  0.35110  0.23828  0.49923  1.0000
  C   C29       1.0  0.13680  0.46816  0.36779  1.0000
  S   S11       1.0  0.08418  0.45217  0.46039  1.0000
  C   C30       1.0  0.45995  0.32823  0.39248  1.0000
  Fe  Fe8       1.0  0.06268  0.43570  0.45666  1.0000
  S   S12       1.0  0.06125  0.42399  0.43118  1.0000
  S   S13       1.0  0.06565  0.41602  0.48226  1.0000
  C   C31       1.0  0.17178  0.41412  0.47760  1.0000
  Fe  Fe9       1.0  0.39529  0.27479  0.46023  1.0000
  S   S14       1.0  0.40491  0.27110  0.43068  1.0000
  C   C32       1.0  0.35683  0.49818  0.29484  1.0000
  S   S15       1.0  0.36920  0.26470  0.47398  1.0000
  S   S16       1.0  0.42796  0.11523  0.50422  1.0000
  Fe  Fe10      1.0  0.24644  0.44104  0.46960  1.0000
  S   S17       1.0  0.24819  0.46977  0.45532  1.0000
  C   C33       1.0  0.48929  0.32057  0.34568  1.0000
  S   S18       1.0  0.24554  0.41492  0.45857  1.0000
  S   S19       1.0  0.22061  0.43924  0.48889  1.0000
  C   C34       1.0  0.26714  0.48165  0.39411  1.0000
  C   C35       1.0  0.26980  0.46367  0.40299  1.0000
  C   C36       1.0  0.26422  0.45983  0.42182  1.0000
  C   C37       1.0  0.25592  0.47398  0.43184  1.0000
  C   C38       1.0  0.25332  0.49195  0.42299  1.0000
  C   C39       1.0  0.43426  0.01252  0.47764  1.0000
  H   H44       1.0  0.41830  0.46060  0.27174  1.0000
  H   H45       1.0  0.26648  0.44598  0.42860  1.0000
  H   H46       1.0  0.48220  0.33944  0.37565  1.0000
  H   H47       1.0  0.29879  0.40641  0.49982  1.0000
  H   H48       1.0  0.43104  0.14614  0.41494  1.0000
  H   H49       1.0  0.12004  0.47758  0.33685  1.0000
  H   H50       1.0  0.14933  0.49330  0.31237  1.0000
  H   H51       1.0  0.01803  0.50219  0.49484  1.0000
  H   H52       1.0  0.44885  0.33910  0.38861  1.0000
  H   H53       1.0  0.13725  0.45343  0.37335  1.0000
  C   C40       1.0  0.46481  0.27754  0.41169  1.0000
  C   C41       1.0  0.45638  0.28248  0.42864  1.0000
  C   C42       1.0  0.43799  0.28060  0.43452  1.0000
  C   C43       1.0  0.42781  0.27413  0.42329  1.0000
  C   C44       1.0  0.43616  0.26942  0.40619  1.0000
  C   C45       1.0  0.45470  0.27088  0.40050  1.0000
  H   H54       1.0  0.46410  0.28774  0.43732  1.0000
  H   H55       1.0  0.43165  0.28433  0.44769  1.0000
  H   H56       1.0  0.42831  0.26445  0.39743  1.0000
  H   H57       1.0  0.46109  0.26698  0.38743  1.0000
  C   C46       1.0  0.25888  0.49578  0.40417  1.0000
  H   H58       1.0  0.12875  0.41563  0.46643  1.0000
  H   H59       1.0  0.34446  0.33619  0.47123  1.0000
  C   C47       1.0  0.50446  0.33187  0.34725  1.0000
  Fe  Fe11      1.0  0.22047  0.41234  0.47934  1.0000
  C   C48       1.0  0.14844  0.42555  0.50117  1.0000
  C   C49       1.0  0.15783  0.41246  0.46752  1.0000
  C   C50       1.0  0.13214  0.46677  0.33644  1.0000
  H   H60       1.0  0.16134  0.40704  0.45462  1.0000
  C   C51       1.0  0.07841  0.46109  0.37959  1.0000
  C   C52       1.0  0.07448  0.46820  0.39625  1.0000
  C   C53       1.0  0.06917  0.45684  0.41228  1.0000
  C   C54       1.0  0.06764  0.43853  0.41150  1.0000
  C   C55       1.0  0.07129  0.43161  0.39477  1.0000
  C   C56       1.0  0.07684  0.44283  0.37886  1.0000
  S   S20       1.0  0.27400  0.48597  0.37045  1.0000
  H   H61       1.0  0.06617  0.46226  0.42519  1.0000
  H   H62       1.0  0.07011  0.41745  0.39419  1.0000
  H   H63       1.0  0.07988  0.43734  0.36597  1.0000
  H   H64       1.0  0.19189  0.45379  0.34515  1.0000
  H   H65       1.0  0.02398  0.40338  0.46778  1.0000
  C   C57       1.0  0.46715  0.08616  0.45291  1.0000
  C   C58       1.0  0.45550  0.07528  0.44809  1.0000
  C   C59       1.0  0.45413  0.07490  0.42967  1.0000
  C   C60       1.0  0.46422  0.08563  0.41612  1.0000
  C   C61       1.0  0.47546  0.09685  0.42105  1.0000
  C   C62       1.0  0.47722  0.09685  0.43940  1.0000
  H   H66       1.0  0.44764  0.06702  0.45857  1.0000
  H   H67       1.0  0.44541  0.06618  0.42595  1.0000
  H   H68       1.0  0.39986  0.09457  0.42990  1.0000
  H   H69       1.0  0.48590  0.10562  0.44311  1.0000
  C   C63       1.0  0.39305  0.16756  0.48317  1.0000
  H   H70       1.0  0.21992  0.47841  0.38862  1.0000
  H   H71       1.0  0.40338  0.08030  0.40049  1.0000
  H   H72       1.0  0.17160  0.48517  0.31971  1.0000
  C   C64       1.0  0.50047  0.12071  0.48182  1.0000
  C   C65       1.0  0.38808  0.18455  0.47292  1.0000
  H   H73       1.0  0.07562  0.48236  0.39682  1.0000
  H   H74       1.0  0.38375  0.14827  0.38277  1.0000
  H   H75       1.0  0.41309  0.09982  0.38834  1.0000
  H   H76       1.0  0.43416  0.11248  0.40873  1.0000
  H   H77       1.0  0.37010  0.14537  0.42141  1.0000
  C   C66       1.0  0.42508  0.11756  0.42065  1.0000
  H   H78       1.0  0.48157  0.09830  0.50386  1.0000
  H   H79       1.0  0.49524  0.11075  0.47494  1.0000
  C   C67       1.0  0.42391  0.02977  0.47947  1.0000
  C   C68       1.0  0.40488  0.03138  0.48320  1.0000
  H   H80       1.0  0.40487  0.14842  0.40157  1.0000
  S   S21       1.0  0.39010  0.30061  0.47352  1.0000
  S   S22       1.0  0.49502  0.25892  0.35694  1.0000
  H   H81       1.0  0.43061  0.04183  0.47790  1.0000
  C   C69       1.0  0.01299  0.49143  0.35936  1.0000
  H   H82       1.0  0.33254  0.22531  0.48171  1.0000
  S   S23       1.0  0.41230  0.25877  0.48081  1.0000
  H   H83       1.0  0.38168  0.01669  0.48799  1.0000
  H   H84       1.0  0.18048  0.43752  0.44493  1.0000
  N   N2        1.0  0.44064  0.21463  0.43756  1.0000
  C   C70       1.0  0.45591  0.22625  0.43462  1.0000
  C   C71       1.0  0.42844  0.21942  0.45464  1.0000
  C   C72       1.0  0.43006  0.21999  0.42150  1.0000
  C   C73       1.0  0.44882  0.19473  0.43885  1.0000
  C   C74       1.0  0.46940  0.22478  0.41691  1.0000
  C   C75       1.0  0.29436  0.34668  0.49404  1.0000
  C   C76       1.0  0.41315  0.21052  0.42185  1.0000
  C   C77       1.0  0.43653  0.18057  0.44911  1.0000
  H   H85       1.0  0.36739  0.13973  0.44549  1.0000
  H   H86       1.0  0.20847  0.47450  0.45797  1.0000
  H   H87       1.0  0.41664  0.21178  0.45772  1.0000
  H   H88       1.0  0.01695  0.44022  0.42186  1.0000
  H   H89       1.0  0.42536  0.23497  0.41994  1.0000
  H   H90       1.0  0.43878  0.21715  0.40856  1.0000
  H   H91       1.0  0.45376  0.19079  0.42497  1.0000
  H   H92       1.0  0.46109  0.19255  0.44608  1.0000
  H   H93       1.0  0.45655  0.28341  0.34953  1.0000
  H   H94       1.0  0.46308  0.23121  0.40462  1.0000
  H   H95       1.0  0.13633  0.49939  0.34396  1.0000
  H   H96       1.0  0.15951  0.44267  0.35108  1.0000
  C   C78       1.0  0.50496  0.16777  0.36957  1.0000
  H   H97       1.0  0.47320  0.03887  0.44455  1.0000
  H   H98       1.0  0.40291  0.21262  0.43396  1.0000
  H   H99       1.0  0.41698  0.19579  0.42051  1.0000
  H   H100      1.0  0.40624  0.21671  0.40980  1.0000
  H   H101      1.0  0.43987  0.16786  0.44254  1.0000
  H   H102      1.0  0.42174  0.18477  0.44924  1.0000
  H   H103      1.0  0.43956  0.17643  0.46335  1.0000
  C   C79       1.0  0.01402  0.42847  0.41595  1.0000
  H   H104      1.0  0.45032  0.24097  0.43480  1.0000
  H   H105      1.0  0.01230  0.49055  0.38863  1.0000
  H   H106      1.0  0.48089  0.05006  0.50016  1.0000
  C   C80       1.0  0.14929  0.48982  0.34229  1.0000
  H   H107      1.0  0.47398  0.29392  0.36950  1.0000
  H   H108      1.0  0.15557  0.44114  0.42504  1.0000
  C   C81       1.0  0.02273  0.48873  0.37654  1.0000
  H   H109      1.0  0.44829  0.12997  0.42474  1.0000
  H   H110      1.0  0.10879  0.50084  0.44851  1.0000
  H   H111      1.0  0.15938  0.47415  0.38119  1.0000
  H   H112      1.0  0.28044  0.34945  0.50044  1.0000
  C   C82       1.0  0.37361  0.13438  0.43252  1.0000
  S   S24       1.0  0.11134  0.42802  0.50117  1.0000
  H   H113      1.0  0.19662  0.48287  0.43871  1.0000
  H   H114      1.0  0.23267  0.43897  0.39789  1.0000
  H   H115      1.0  0.03055  0.47503  0.37918  1.0000
  C   C83       1.0  0.33938  0.23209  0.50737  1.0000
  C   C84       1.0  0.32092  0.41838  0.50619  1.0000
  C   C85       1.0  0.38914  0.20064  0.49873  1.0000
  H   H116      1.0  0.13815  0.47285  0.39552  1.0000
  C   C86       1.0  0.33055  0.33896  0.47766  1.0000
  H   H117      1.0  0.44589  0.22742  0.47243  1.0000
  H   H118      1.0  0.23878  0.43430  0.42096  1.0000
  N   N3        1.0  0.14562  0.47038  0.34815  1.0000
  H   H119      1.0  0.46442  0.22277  0.44594  1.0000
  H   H120      1.0  0.42695  0.21682  0.48421  1.0000
  H   H121      1.0  0.15800  0.49418  0.35108  1.0000
  S   S25       1.0  0.38841  0.09957  0.50723  1.0000
  H   H122      1.0  0.11788  0.44615  0.35548  1.0000
  H   H123      1.0  0.00705  0.50608  0.35785  1.0000
  H   H124      1.0  0.45550  0.33423  0.33765  1.0000
  H   H125      1.0  0.37587  0.12935  0.39742  1.0000
  C   C87       1.0  0.45781  0.33706  0.35125  1.0000
  S   S26       1.0  0.48774  0.28069  0.40472  1.0000
  C   C88       1.0  0.04237  0.49378  0.33965  1.0000
  H   H126      1.0  0.44441  0.33676  0.35999  1.0000
  Fe  Fe12      1.0  0.49186  0.08143  0.37953  1.0000
  H   H127      1.0  0.17133  0.44722  0.40533  1.0000
  H   H128      1.0  0.38223  0.21395  0.47264  1.0000
  Fe  Fe13      1.0  0.40540  0.28353  0.49544  1.0000
  H   H129      1.0  0.45026  0.36604  0.34322  1.0000
  H   H130      1.0  0.45453  0.31509  0.39708  1.0000
  H   H131      1.0  0.02556  0.42031  0.44834  1.0000
  H   H132      1.0  0.46478  0.33193  0.40460  1.0000
  H   H133      1.0  0.16151  0.49340  0.44659  1.0000
  H   H134      1.0  0.49964  0.34658  0.34753  1.0000
  H   H135      1.0  0.39871  0.14349  0.43369  1.0000
  H   H136      1.0  0.48295  0.14266  0.46805  1.0000
  H   H137      1.0  0.29882  0.28096  0.48672  1.0000
  H   H138      1.0  0.31924  0.37780  0.50228  1.0000
  H   H139      1.0  0.47290  0.29566  0.33498  1.0000
  H   H140      1.0  0.17754  0.42237  0.50225  1.0000
  H   H141      1.0  0.31690  0.43276  0.50032  1.0000
  H   H142      1.0  0.47396  0.35866  0.33789  1.0000
  H   H143      1.0  0.46402  0.36152  0.36125  1.0000
  H   H144      1.0  0.04963  0.45947  0.35638  1.0000
  C   C89       1.0  0.07694  0.49971  0.49070  1.0000
  C   C90       1.0  0.30159  0.27328  0.50015  1.0000
  C   C91       1.0  0.39942  0.10316  0.41636  1.0000
  H   H145      1.0  0.42797  0.13708  0.43905  1.0000
  H   H146      1.0  0.44927  0.30582  0.33902  1.0000
  H   H147      1.0  0.49671  0.05728  0.46896  1.0000
  H   H148      1.0  0.18095  0.47373  0.35391  1.0000
  H   H149      1.0  0.04403  0.44130  0.34695  1.0000
  H   H150      1.0  0.45130  0.30550  0.37163  1.0000
  H   H151      1.0  0.49267  0.17000  0.37907  1.0000
  H   H152      1.0  0.50432  0.04099  0.49911  1.0000
  H   H153      1.0  0.09306  0.47583  0.48089  1.0000
  C   C92       1.0  0.41070  0.09173  0.40194  1.0000
  C   C93       1.0  0.46446  0.30466  0.36243  1.0000
  C   C94       1.0  0.13448  0.42362  0.49121  1.0000
  C   C95       1.0  0.40454  0.13408  0.39927  1.0000
  H   H154      1.0  0.48487  0.04216  0.42202  1.0000
  H   H155      1.0  0.49611  0.30616  0.34713  1.0000
  H   H156      1.0  0.34528  0.20718  0.49459  1.0000
  Fe  Fe14      1.0  0.38614  0.25014  0.49546  1.0000
  H   H157      1.0  0.32590  0.36610  0.46290  1.0000
  H   H158      1.0  0.01314  0.42608  0.46979  1.0000
  H   H159      1.0  0.19505  0.47998  0.50448  1.0000
  H   H160      1.0  0.39217  0.12599  0.37737  1.0000
  C   C96       1.0  0.39434  0.13015  0.43272  1.0000
  C   C97       1.0  0.02607  0.46661  0.34051  1.0000
  C   C98       1.0  0.38808  0.13409  0.38900  1.0000
  H   H161      1.0  0.11459  0.44760  0.33226  1.0000
  H   H162      1.0  0.39537  0.48380  0.29848  1.0000
  C   C99       1.0  0.01636  0.41550  0.46041  1.0000
  H   H163      1.0  0.04031  0.50885  0.33981  1.0000
  C   C100      1.0  0.14448  0.47745  0.38150  1.0000
  H   H164      1.0  0.03182  0.49928  0.37582  1.0000
  H   H165      1.0  0.47540  0.21048  0.41530  1.0000
  H   H166      1.0  0.47828  0.04475  0.47030  1.0000
  H   H167      1.0  0.41689  0.13063  0.38938  1.0000
  C   C101      1.0  0.09226  0.48642  0.48936  1.0000
  H   H168      1.0  0.32986  0.41154  0.49522  1.0000
  H   H169      1.0  0.39656  0.12140  0.44582  1.0000
  C   C102      1.0  0.17936  0.45931  0.35370  1.0000
  H   H170      1.0  0.17452  0.42478  0.41871  1.0000
  H   H171      1.0  0.12204  0.47381  0.36875  1.0000
  S   S27       1.0  0.28940  0.38215  0.47494  1.0000
  N   N4        1.0  0.40547  0.12139  0.41694  1.0000
  H   H172      1.0  0.18877  0.47523  0.41095  1.0000
  H   H173      1.0  0.16685  0.45551  0.33055  1.0000
  H   H174      1.0  0.42683  0.10645  0.43220  1.0000
  C   C103      1.0  0.15846  0.49405  0.32251  1.0000
  H   H175      1.0  0.36361  0.48016  0.27447  1.0000
  H   H176      1.0  0.03112  0.46350  0.32636  1.0000
  C   C104      1.0  0.43332  0.13383  0.42504  1.0000
  C   C105      1.0  0.48564  0.03402  0.43565  1.0000
  C   C106      1.0  0.17022  0.43963  0.41927  1.0000
  H   H177      1.0  0.02955  0.44920  0.36653  1.0000
  C   C107      1.0  0.18107  0.44695  0.43192  1.0000
  N   N5        1.0  0.20058  0.44945  0.42453  1.0000
  H   H178      1.0  0.48620  0.32346  0.33132  1.0000
  C   C108      1.0  0.20916  0.45392  0.44002  1.0000
  C   C109      1.0  0.21017  0.43144  0.41890  1.0000
  C   C110      1.0  0.20053  0.46437  0.40845  1.0000
  N   N6        1.0  0.47199  0.32265  0.35907  1.0000
  C   C111      1.0  0.03789  0.45364  0.35350  1.0000
  C   C112      1.0  0.23054  0.43056  0.41137  1.0000
  C   C113      1.0  0.21749  0.47450  0.40364  1.0000
  S   S28       1.0  0.19488  0.40720  0.46872  1.0000
  C   C114      1.0  0.49257  0.04340  0.47316  1.0000
  H   H179      1.0  0.22355  0.45600  0.43589  1.0000
  H   H180      1.0  0.20973  0.44212  0.45106  1.0000
  H   H181      1.0  0.20892  0.42035  0.43063  1.0000
  H   H182      1.0  0.20376  0.42733  0.40796  1.0000
  H   H183      1.0  0.01243  0.46188  0.34334  1.0000
  H   H184      1.0  0.11851  0.47621  0.49789  1.0000
  C   C115      1.0  0.16251  0.45666  0.34531  1.0000
  H   H185      1.0  0.18678  0.46777  0.45779  1.0000
  Fe  Fe15      1.0  0.08556  0.43407  0.48707  1.0000
  C   C116      1.0  0.39638  0.01557  0.48512  1.0000
  C   C117      1.0  0.13930  0.41736  0.47417  1.0000
  H   H186      1.0  0.14035  0.48492  0.44799  1.0000
  H   H187      1.0  0.42405  0.46943  0.29042  1.0000
  C   C118      1.0  0.49145  0.03964  0.49417  1.0000
  H   H188      1.0  0.48525  0.01962  0.43392  1.0000
  H   H189      1.0  0.42400  0.08543  0.40631  1.0000
  H   H190      1.0  0.23030  0.46652  0.40748  1.0000
  H   H191      1.0  0.13813  0.46738  0.32185  1.0000
  H   H192      1.0  0.24697  0.50294  0.43070  1.0000
  C   C119      1.0  0.38623  0.20101  0.48061  1.0000
  S   S29       1.0  0.33585  0.30378  0.49721  1.0000
  H   H193      1.0  0.19855  0.45886  0.39596  1.0000
  Fe  Fe16      1.0  0.06070  0.46897  0.47539  1.0000
  S   S30       1.0  0.05868  0.49864  0.47888  1.0000
  S   S31       1.0  0.26447  0.42745  0.49039  1.0000
  H   H194      1.0  0.13583  0.43652  0.33904  1.0000
  H   H195      1.0  0.21510  0.48758  0.40955  1.0000
  H   H196      1.0  0.36408  0.49054  0.30609  1.0000
  C   C120      1.0  0.16699  0.42103  0.49433  1.0000
  H   H197      1.0  0.27628  0.45271  0.39527  1.0000
  H   H198      1.0  0.38553  0.18496  0.45901  1.0000
  C   C121      1.0  0.31993  0.35596  0.47294  1.0000
  H   H199      1.0  0.05024  0.49698  0.30976  1.0000
  H   H200      1.0  0.38947  0.46741  0.28626  1.0000
  H   H201      1.0  0.32850  0.26370  0.48763  1.0000
  S   S32       1.0  0.06282  0.45168  0.50214  1.0000
  H   H202      1.0  0.48231  0.10605  0.41078  1.0000
  H   H203      1.0  0.48676  0.31568  0.38238  1.0000
  C   C122      1.0  0.30496  0.32964  0.49871  1.0000
  C   C123      1.0  0.41678  0.47329  0.27823  1.0000
  H   H204      1.0  0.49022  0.14892  0.48764  1.0000
  Fe  Fe17      1.0  0.26191  0.40064  0.48107  1.0000
  C   C124      1.0  0.32315  0.32560  0.49058  1.0000
  H   H205      1.0  0.23602  0.41624  0.40917  1.0000
  C   C125      1.0  0.46070  0.29724  0.34534  1.0000
  H   H206      1.0  0.38503  0.10449  0.41400  1.0000
  C   C126      1.0  0.12492  0.44812  0.34132  1.0000
  C   C127      1.0  0.05553  0.48974  0.32235  1.0000
  C   C128      1.0  0.19951  0.47082  0.44893  1.0000
  H   H207      1.0  0.49122  0.02726  0.36053  1.0000
  H   H208      1.0  0.42223  0.23404  0.45269  1.0000
  C   C129      1.0  0.49867  0.01381  0.35904  1.0000
  H   H209      1.0  0.36719  0.12212  0.43203  1.0000
  C   C130      1.0  0.10680  0.48671  0.49893  1.0000
  H   H210      1.0  0.44628  0.20292  0.47393  1.0000
  C   C131      1.0  0.43766  0.21635  0.47216  1.0000
  Fe  Fe18      1.0  0.08584  0.50377  0.36292  1.0000
  C   C132      1.0  0.47618  0.32657  0.37712  1.0000
  H   H211      1.0  0.17301  0.46008  0.43540  1.0000
  H   H212      1.0  0.17932  0.45183  0.36770  1.0000
  H   H213      1.0  0.49464  0.31859  0.28861  1.0000
  N   N7        1.0  0.02424  0.48681  0.34170  1.0000
  H   H214      1.0  0.02110  0.49240  0.31285  1.0000
  C   C133      1.0  0.48572  0.13758  0.48224  1.0000
  N   N8        1.0  0.38681  0.49498  0.27223  1.0000
  S   S33       1.0  0.23665  0.39607  0.50110  1.0000
  H   H215      1.0  0.42430  0.48342  0.26908  1.0000
  H   H216      1.0  0.48085  0.23250  0.41733  1.0000
  C   C134      1.0  0.39610  0.16723  0.50121  1.0000
  H   H217      1.0  0.04993  0.48833  0.35132  1.0000
  H   H218      1.0  0.18096  0.46413  0.50093  1.0000
  H   H219      1.0  0.06856  0.49488  0.32290  1.0000
  C   C135      1.0  0.31728  0.25765  0.49696  1.0000
  H   H220      1.0  0.47264  0.13413  0.49010  1.0000
  C   C136      1.0  0.33405  0.21876  0.49583  1.0000
  S   S34       1.0  0.42936  0.29299  0.50493  1.0000
  H   H221      1.0  0.48721  0.02615  0.49974  1.0000
  C   C137      1.0  0.36654  0.49400  0.27588  1.0000
  H   H222      1.0  0.31191  0.24873  0.48901  1.0000
  H   H223      1.0  0.35926  0.50347  0.26556  1.0000
  H   H224      1.0  0.02507  0.41687  0.41807  1.0000
  H   H225      1.0  0.34293  0.49413  0.29682  1.0000
  H   H226      1.0  0.01465  0.43321  0.40108  1.0000
  S   S35       1.0  0.50243  0.08468  0.34959  1.0000
  H   H227      1.0  0.14073  0.49249  0.37925  1.0000
  H   H228      1.0  0.48368  0.01228  0.47028  1.0000
  H   H229      1.0  0.50440  0.34677  0.27011  1.0000
  H   H230      1.0  0.44893  0.01143  0.47468  1.0000
  C   C138      1.0  0.01439  0.49677  0.32611  1.0000
  C   C139      1.0  0.14678  0.49766  0.44565  1.0000
  H   H231      1.0  0.29900  0.31951  0.50874  1.0000
  C   C140      1.0  0.50350  0.03635  0.44248  1.0000
  H   H232      1.0  0.50252  0.07726  0.49300  1.0000
  N   N9        1.0  0.50490  0.02960  0.46239  1.0000
  H   H233      1.0  0.12897  0.50207  0.47043  1.0000
  S   S36       1.0  0.50460  0.20500  0.36723  1.0000
  H   H234      1.0  0.14561  0.50398  0.43149  1.0000
  Fe  Fe19      1.0  0.50421  0.26774  0.38096  1.0000
  H   H235      1.0  0.32156  0.21285  0.50218  1.0000
  N   N10       1.0  0.50579  0.11187  0.50005  1.0000
  H   H236      1.0  0.50413  0.13869  0.37129  1.0000
  H   H237      1.0  0.28882  0.26794  0.50659  1.0000
  C   C141      1.0  0.49885  0.01106  0.46847  1.0000
  H   H238      1.0  0.50518  0.05114  0.43941  1.0000
  H   H239      1.0  0.16158  0.50833  0.32033  1.0000
  H   H240      1.0  0.30493  0.28337  0.50811  1.0000
  H   H241      1.0  0.41730  0.50895  0.28416  1.0000
  H   H242      1.0  0.42834  0.49164  0.67337  1.0000
  H   H243      1.0  0.19331  0.45215  0.52895  1.0000
  Fe  Fe20      1.0  0.08622  0.49998  0.58333  1.0000
  Fe  Fe21      1.0  0.48587  0.12975  0.57849  1.0000
  S   S37       1.0  0.45861  0.14576  0.57461  1.0000
  H   H244      1.0  0.38818  0.43039  0.66942  1.0000
  C   C142      1.0  0.48627  0.34914  0.72143  1.0000
  S   S38       1.0  0.40891  0.09433  0.55284  1.0000
  S   S39       1.0  0.15254  0.48825  0.59965  1.0000
  H   H245      1.0  0.30169  0.24582  0.55373  1.0000
  H   H246      1.0  0.49185  0.21802  0.56808  1.0000
  H   H247      1.0  0.44977  0.01984  0.51140  1.0000
  H   H248      1.0  0.49416  0.35657  0.70957  1.0000
  S   S40       1.0  0.11323  0.48452  0.57305  1.0000
  S   S41       1.0  0.28810  0.47182  0.56690  1.0000
  Fe  Fe22      1.0  0.47293  0.28225  0.59458  1.0000
  S   S42       1.0  0.44607  0.27723  0.58713  1.0000
  S   S43       1.0  0.47786  0.27501  0.62384  1.0000
  C   C143      1.0  0.50400  0.35791  0.60373  1.0000
  S   S44       1.0  0.38595  0.22081  0.50947  1.0000
  H   H249      1.0  0.14489  0.43036  0.51436  1.0000
  Fe  Fe23      1.0  0.41258  0.09459  0.52261  1.0000
  S   S45       1.0  0.49897  0.39956  0.71692  1.0000
  C   C144      1.0  0.20957  0.49197  0.55353  1.0000
  H   H250      1.0  0.40134  0.11511  0.62503  1.0000
  H   H251      1.0  0.43882  0.09797  0.59005  1.0000
  H   H252      1.0  0.41685  0.08007  0.62757  1.0000
  C   C145      1.0  0.20394  0.48174  0.53925  1.0000
  C   C146      1.0  0.42765  0.48915  0.65930  1.0000
  N   N11       1.0  0.39738  0.47540  0.66757  1.0000
  H   H253      1.0  0.35618  0.24174  0.53489  1.0000
  S   S46       1.0  0.23210  0.43132  0.53773  1.0000
  H   H254      1.0  0.11275  0.43156  0.53853  1.0000
  H   H255      1.0  0.44722  0.10826  0.64743  1.0000
  H   H256      1.0  0.21643  0.49532  0.60175  1.0000
  H   H257      1.0  0.39203  0.01360  0.55187  1.0000
  S   S47       1.0  0.49008  0.45225  0.69133  1.0000
  H   H258      1.0  0.42196  0.50197  0.65140  1.0000
  H   H259      1.0  0.13365  0.42865  0.56538  1.0000
  C   C147      1.0  0.45230  0.07143  0.62820  1.0000
  H   H260      1.0  0.49207  0.35587  0.61425  1.0000
  C   C148      1.0  0.46907  0.46117  0.70286  1.0000
  C   C149      1.0  0.45958  0.45065  0.71714  1.0000
  C   C150      1.0  0.44222  0.45786  0.72514  1.0000
  C   C151      1.0  0.43446  0.47567  0.71910  1.0000
  C   C152      1.0  0.44432  0.48641  0.70538  1.0000
  C   C153      1.0  0.46145  0.47909  0.69711  1.0000
  C   C154      1.0  0.10603  0.50020  0.51016  1.0000
  H   H261      1.0  0.46879  0.48732  0.68615  1.0000
  H   H262      1.0  0.50427  0.49036  0.70245  1.0000
  H   H263      1.0  0.23848  0.49333  0.67750  1.0000
  C   C155      1.0  0.39644  0.02186  0.53891  1.0000
  H   H264      1.0  0.32358  0.27079  0.52757  1.0000
  H   H265      1.0  0.45384  0.19201  0.61861  1.0000
  H   H266      1.0  0.39198  0.50500  0.66379  1.0000
  H   H267      1.0  0.44281  0.07683  0.65660  1.0000
  C   C156      1.0  0.44818  0.11626  0.63375  1.0000
  H   H268      1.0  0.46419  0.23975  0.61323  1.0000
  C   C157      1.0  0.44187  0.28121  0.56414  1.0000
  C   C158      1.0  0.42569  0.27675  0.55971  1.0000
  C   C159      1.0  0.42184  0.27993  0.54156  1.0000
  C   C160      1.0  0.43406  0.28786  0.52775  1.0000
  C   C161      1.0  0.45033  0.29218  0.53218  1.0000
  C   C162      1.0  0.45429  0.28878  0.55029  1.0000
  H   H269      1.0  0.41599  0.27098  0.57038  1.0000
  H   H270      1.0  0.40926  0.27662  0.53832  1.0000
  H   H271      1.0  0.45979  0.29840  0.52157  1.0000
  H   H272      1.0  0.46672  0.29236  0.55362  1.0000
  H   H273      1.0  0.49389  0.05999  0.59509  1.0000
  C   C163      1.0  0.27146  0.46256  0.55819  1.0000
  C   C164      1.0  0.25468  0.45991  0.56860  1.0000
  C   C165      1.0  0.24264  0.45038  0.56220  1.0000
  C   C166      1.0  0.24705  0.44396  0.54514  1.0000
  C   C167      1.0  0.26344  0.44738  0.53445  1.0000
  C   C168      1.0  0.27575  0.45631  0.54109  1.0000
  H   H274      1.0  0.34610  0.26046  0.54685  1.0000
  H   H275      1.0  0.23002  0.44776  0.57061  1.0000
  H   H276      1.0  0.47937  0.11673  0.51637  1.0000
  H   H277      1.0  0.28866  0.45838  0.53295  1.0000
  C   C169      1.0  0.24677  0.49516  0.66394  1.0000
  H   H278      1.0  0.16786  0.44221  0.56033  1.0000
  Fe  Fe24      1.0  0.11441  0.50729  0.55016  1.0000
  H   H279      1.0  0.29620  0.26435  0.53609  1.0000
  C   C170      1.0  0.18834  0.49227  0.60069  1.0000
  H   H280      1.0  0.41545  0.01461  0.51584  1.0000
  H   H281      1.0  0.22183  0.49851  0.54751  1.0000
  H   H282      1.0  0.44194  0.48565  0.65297  1.0000
  S   S48       1.0  0.48455  0.30855  0.59207  1.0000
  H   H283      1.0  0.47112  0.21565  0.61542  1.0000
  C   C171      1.0  0.49309  0.09191  0.52907  1.0000
  H   H284      1.0  0.45854  0.12555  0.63320  1.0000
  C   C172      1.0  0.02522  0.48274  0.59261  1.0000
  H   H285      1.0  0.44529  0.22949  0.59529  1.0000
  C   C173      1.0  0.43526  0.06968  0.59470  1.0000
  H   H286      1.0  0.43501  0.12510  0.63222  1.0000
  H   H287      1.0  0.48007  0.08751  0.53615  1.0000
  H   H288      1.0  0.46602  0.08138  0.64805  1.0000
  H   H289      1.0  0.37159  0.46321  0.69851  1.0000
  C   C174      1.0  0.03896  0.49392  0.59123  1.0000
  H   H290      1.0  0.03275  0.45953  0.53998  1.0000
  S   S49       1.0  0.48525  0.32239  0.63966  1.0000
  H   H291      1.0  0.28328  0.24585  0.54148  1.0000
  C   C175      1.0  0.42256  0.10957  0.55744  1.0000
  C   C176      1.0  0.44130  0.10723  0.55145  1.0000
  C   C177      1.0  0.45247  0.11857  0.55645  1.0000
  C   C178      1.0  0.44475  0.13260  0.56687  1.0000
  C   C179      1.0  0.42591  0.13548  0.57206  1.0000
  C   C180      1.0  0.41485  0.12374  0.56764  1.0000
  H   H292      1.0  0.44717  0.09632  0.54345  1.0000
  H   H293      1.0  0.46700  0.11653  0.55227  1.0000
  H   H294      1.0  0.41993  0.14642  0.58000  1.0000
  H   H295      1.0  0.40032  0.12567  0.57206  1.0000
  H   H296      1.0  0.41286  0.02314  0.56792  1.0000
  H   H297      1.0  0.49787  0.31716  0.75699  1.0000
  Fe  Fe25      1.0  0.27922  0.49705  0.58105  1.0000
  H   H298      1.0  0.39468  0.03631  0.54162  1.0000
  C   C181      1.0  0.03490  0.49418  0.52700  1.0000
  C   C182      1.0  0.45850  0.21715  0.56072  1.0000
  C   C183      1.0  0.47072  0.22824  0.60559  1.0000
  C   C184      1.0  0.30218  0.41270  0.55095  1.0000
  C   C185      1.0  0.02164  0.46929  0.54636  1.0000
  C   C186      1.0  0.38795  0.49620  0.63866  1.0000
  H   H299      1.0  0.30749  0.50729  0.67561  1.0000
  C   C187      1.0  0.49897  0.04932  0.60521  1.0000
  H   H300      1.0  0.47636  0.18504  0.60726  1.0000
  H   H301      1.0  0.46210  0.24067  0.58035  1.0000
  H   H302      1.0  0.46652  0.22766  0.55251  1.0000
  H   H303      1.0  0.39404  0.43959  0.68806  1.0000
  H   H304      1.0  0.46010  0.35579  0.73844  1.0000
  H   H305      1.0  0.29299  0.41933  0.51831  1.0000
  S   S50       1.0  0.12443  0.50014  0.52203  1.0000
  H   H306      1.0  0.45919  0.08295  0.59232  1.0000
  C   C188      1.0  0.04286  0.50121  0.54212  1.0000
  H   H307      1.0  0.41826  0.47038  0.64465  1.0000
  H   H308      1.0  0.44410  0.06005  0.62916  1.0000
  H   H309      1.0  0.19874  0.50283  0.55812  1.0000
  H   H310      1.0  0.43454  0.23767  0.56746  1.0000
  H   H311      1.0  0.43866  0.50028  0.70093  1.0000
  H   H312      1.0  0.46071  0.20539  0.55273  1.0000
  H   H313      1.0  0.32562  0.39383  0.54340  1.0000
  H   H314      1.0  0.21351  0.48240  0.56557  1.0000
  C   C189      1.0  0.29733  0.24940  0.53994  1.0000
  H   H315      1.0  0.36825  0.48799  0.69518  1.0000
  H   H316      1.0  0.01046  0.44731  0.56493  1.0000
  H   H317      1.0  0.24395  0.48546  0.65515  1.0000
  C   C190      1.0  0.43817  0.22509  0.56075  1.0000
  H   H318      1.0  0.40188  0.48807  0.69042  1.0000
  H   H319      1.0  0.49142  0.20371  0.58890  1.0000
  H   H320      1.0  0.42044  0.07147  0.59951  1.0000
  H   H321      1.0  0.45300  0.11432  0.60532  1.0000
  N   N12       1.0  0.08849  0.43400  0.55821  1.0000
  C   C191      1.0  0.07901  0.42925  0.54347  1.0000
  C   C192      1.0  0.08310  0.45419  0.55911  1.0000
  C   C193      1.0  0.08129  0.42346  0.57596  1.0000
  C   C194      1.0  0.10880  0.42872  0.55354  1.0000
  C   C195      1.0  0.08136  0.40885  0.54089  1.0000
  C   C196      1.0  0.08809  0.46688  0.54139  1.0000
  C   C197      1.0  0.08798  0.42711  0.59340  1.0000
  C   C198      1.0  0.12149  0.43851  0.56214  1.0000
  H   H322      1.0  0.06408  0.43407  0.54574  1.0000
  H   H323      1.0  0.08412  0.43637  0.53003  1.0000
  H   H324      1.0  0.08912  0.45886  0.56988  1.0000
  H   H325      1.0  0.06810  0.45730  0.56310  1.0000
  H   H326      1.0  0.06610  0.42614  0.57819  1.0000
  H   H327      1.0  0.08494  0.40850  0.57560  1.0000
  H   H328      1.0  0.11261  0.41373  0.55706  1.0000
  C   C199      1.0  0.28900  0.38258  0.52763  1.0000
  H   H329      1.0  0.07376  0.40072  0.55232  1.0000
  H   H330      1.0  0.09590  0.40282  0.53883  1.0000
  H   H331      1.0  0.41045  0.43653  0.66794  1.0000
  H   H332      1.0  0.10237  0.46338  0.53519  1.0000
  H   H333      1.0  0.07879  0.46679  0.53121  1.0000
  H   H334      1.0  0.08647  0.48117  0.54452  1.0000
  H   H335      1.0  0.08491  0.44165  0.59575  1.0000
  H   H336      1.0  0.10267  0.42203  0.59355  1.0000
  H   H337      1.0  0.08068  0.41929  0.60535  1.0000
  H   H338      1.0  0.48975  0.47677  0.73060  1.0000
  H   H339      1.0  0.11548  0.44405  0.57492  1.0000
  H   H340      1.0  0.21509  0.49800  0.65319  1.0000
  H   H341      1.0  0.19052  0.47756  0.60401  1.0000
  H   H342      1.0  0.37920  0.47567  0.71373  1.0000
  N   N13       1.0  0.44334  0.08867  0.61807  1.0000
  H   H343      1.0  0.04898  0.48980  0.55153  1.0000
  C   C200      1.0  0.49013  0.34967  0.65890  1.0000
  H   H344      1.0  0.48696  0.17688  0.57394  1.0000
  H   H345      1.0  0.42902  0.21492  0.56709  1.0000
  H   H346      1.0  0.44312  0.01481  0.55140  1.0000
  H   H347      1.0  0.44183  0.05617  0.60053  1.0000
  S   S51       1.0  0.50226  0.07681  0.62594  1.0000
  C   C201      1.0  0.20305  0.50231  0.59941  1.0000
  C   C202      1.0  0.48932  0.10509  0.51173  1.0000
  H   H348      1.0  0.12688  0.44956  0.55210  1.0000
  S   S52       1.0  0.38031  0.27387  0.51197  1.0000
  C   C203      1.0  0.41705  0.47308  0.65906  1.0000
  H   H349      1.0  0.03370  0.50559  0.51583  1.0000
  H   H350      1.0  0.46580  0.06681  0.62065  1.0000
  H   H351      1.0  0.27121  0.39339  0.55092  1.0000
  H   H352      1.0  0.30667  0.38323  0.55436  1.0000
  H   H353      1.0  0.18048  0.50765  0.52011  1.0000
  H   H354      1.0  0.50140  0.49333  0.73704  1.0000
  C   C204      1.0  0.50352  0.48036  0.73105  1.0000
  H   H355      1.0  0.48876  0.19124  0.55207  1.0000
  C   C205      1.0  0.32500  0.35930  0.52639  1.0000
  H   H356      1.0  0.15677  0.48657  0.54519  1.0000
  H   H357      1.0  0.49797  0.27606  0.51883  1.0000
  H   H358      1.0  0.47785  0.32239  0.74614  1.0000
  H   H359      1.0  0.25135  0.46453  0.58190  1.0000
  H   H360      1.0  0.28648  0.37946  0.51419  1.0000
  H   H361      1.0  0.02178  0.46936  0.51109  1.0000
  H   H362      1.0  0.46115  0.05861  0.65393  1.0000
  H   H363      1.0  0.38196  0.48565  0.63347  1.0000
  H   H364      1.0  0.31599  0.22544  0.53461  1.0000
  H   H365      1.0  0.34365  0.26575  0.51296  1.0000
  H   H366      1.0  0.49358  0.37169  0.67342  1.0000
  C   C206      1.0  0.18228  0.47423  0.51000  1.0000
  H   H367      1.0  0.21469  0.46984  0.53717  1.0000
  N   N14       1.0  0.49884  0.33931  0.73481  1.0000
  N   N15       1.0  0.01732  0.48616  0.53299  1.0000
  H   H368      1.0  0.45550  0.18529  0.57945  1.0000
  H   H369      1.0  0.30824  0.42453  0.54297  1.0000
  H   H370      1.0  0.26828  0.40725  0.52909  1.0000
  C   C207      1.0  0.45556  0.07246  0.64781  1.0000
  H   H371      1.0  0.02893  0.46813  0.59290  1.0000
  C   C208      1.0  0.18258  0.46432  0.52956  1.0000
  H   H372      1.0  0.15573  0.46314  0.56850  1.0000
  H   H373      1.0  0.46871  0.09945  0.61758  1.0000
  H   H374      1.0  0.02678  0.47284  0.55834  1.0000
  H   H375      1.0  0.16867  0.49489  0.56028  1.0000
  H   H376      1.0  0.44041  0.20041  0.59214  1.0000
  H   H377      1.0  0.30512  0.41215  0.56516  1.0000
  H   H378      1.0  0.46541  0.43683  0.72168  1.0000
  C   C209      1.0  0.49771  0.33274  0.65296  1.0000
  Fe  Fe26      1.0  0.12664  0.50163  0.58789  1.0000
  N   N16       1.0  0.18540  0.47545  0.54391  1.0000
  H   H379      1.0  0.16930  0.45892  0.53301  1.0000
  S   S53       1.0  0.01869  0.42909  0.51516  1.0000
  H   H380      1.0  0.38676  0.02137  0.52915  1.0000
  S   S54       1.0  0.26217  0.49898  0.60833  1.0000
  H   H381      1.0  0.19759  0.45184  0.56083  1.0000
  C   C210      1.0  0.49957  0.35862  0.66913  1.0000
  H   H382      1.0  0.31435  0.35104  0.52490  1.0000
  C   C211      1.0  0.18563  0.46281  0.56168  1.0000
  C   C212      1.0  0.46162  0.18573  0.60671  1.0000
  H   H383      1.0  0.47688  0.35599  0.65542  1.0000
  H   H384      1.0  0.26133  0.49135  0.66600  1.0000
  H   H385      1.0  0.20532  0.49069  0.52609  1.0000
  H   H386      1.0  0.33806  0.35230  0.51993  1.0000
  C   C213      1.0  0.37775  0.47560  0.69916  1.0000
  H   H387      1.0  0.18721  0.47034  0.57296  1.0000
  C   C214      1.0  0.44463  0.08550  0.59840  1.0000
  S   S55       1.0  0.49894  0.26628  0.58319  1.0000
  C   C215      1.0  0.16848  0.45335  0.56842  1.0000
  H   H388      1.0  0.16916  0.44690  0.58273  1.0000
  C   C216      1.0  0.41208  0.10814  0.61548  1.0000
  C   C217      1.0  0.39590  0.44062  0.67298  1.0000
  H   H389      1.0  0.40556  0.10288  0.60529  1.0000
  H   H390      1.0  0.43471  0.44953  0.73586  1.0000
  S   S56       1.0  0.41221  0.48399  0.72838  1.0000
  C   C218      1.0  0.17084  0.50117  0.59777  1.0000
  C   C219      1.0  0.27126  0.39323  0.53612  1.0000
  H   H391      1.0  0.42857  0.01132  0.58264  1.0000
  H   H392      1.0  0.42356  0.02838  0.52919  1.0000
  H   H393      1.0  0.50000  0.36383  0.74715  1.0000
  H   H394      1.0  0.50008  0.31877  0.70274  1.0000
  S   S57       1.0  0.06211  0.48370  0.58993  1.0000
  C   C220      1.0  0.39676  0.47567  0.68778  1.0000
  H   H395      1.0  0.40612  0.46407  0.69390  1.0000
  C   C221      1.0  0.34293  0.24978  0.53940  1.0000
  C   C222      1.0  0.32148  0.37892  0.51644  1.0000
  H   H396      1.0  0.40200  0.49691  0.63166  1.0000
  N   N17       1.0  0.46489  0.21150  0.57923  1.0000
  H   H397      1.0  0.25965  0.38607  0.53490  1.0000
  C   C223      1.0  0.38857  0.45975  0.66384  1.0000
  H   H398      1.0  0.37240  0.49415  0.66508  1.0000
  C   C224      1.0  0.46001  0.22782  0.58966  1.0000
  H   H399      1.0  0.45931  0.17121  0.60817  1.0000
  Fe  Fe27      1.0  0.49208  0.30002  0.62053  1.0000
  H   H400      1.0  0.04562  0.48391  0.52092  1.0000
  H   H401      1.0  0.50331  0.19448  0.63529  1.0000
  H   H402      1.0  0.43665  0.06956  0.57970  1.0000
  H   H403      1.0  0.48479  0.23103  0.60039  1.0000
  C   C225      1.0  0.48531  0.20635  0.57602  1.0000
  S   S58       1.0  0.49542  0.13064  0.60523  1.0000
  C   C226      1.0  0.45522  0.19574  0.58872  1.0000
  C   C227      1.0  0.49214  0.18930  0.56620  1.0000
  C   C228      1.0  0.30975  0.23777  0.52619  1.0000
  H   H404      1.0  0.07557  0.40763  0.52835  1.0000
  H   H405      1.0  0.37354  0.46208  0.66785  1.0000
  H   H406      1.0  0.42486  0.46089  0.66619  1.0000
  S   S59       1.0  0.49392  0.09955  0.57860  1.0000
  C   C229      1.0  0.41626  0.01630  0.53017  1.0000
  H   H407      1.0  0.33444  0.24086  0.54913  1.0000
  C   C230      1.0  0.17005  0.49100  0.54627  1.0000
  C   C231      1.0  0.38713  0.49309  0.65963  1.0000
  H   H408      1.0  0.26683  0.44293  0.52119  1.0000
  H   H409      1.0  0.49668  0.02721  0.59015  1.0000
  H   H410      1.0  0.32616  0.35911  0.54102  1.0000
  H   H411      1.0  0.39039  0.45876  0.64896  1.0000
  H   H412      1.0  0.47964  0.33938  0.71570  1.0000
  H   H413      1.0  0.43535  0.22904  0.54641  1.0000
  Fe  Fe28      1.0  0.50464  0.26027  0.61224  1.0000
  H   H414      1.0  0.29050  0.36925  0.53649  1.0000
  C   C232      1.0  0.33329  0.25913  0.52293  1.0000
  N   N18       1.0  0.30606  0.39156  0.52538  1.0000
  C   C233      1.0  0.42370  0.09248  0.62620  1.0000
  C   C234      1.0  0.31063  0.39449  0.54366  1.0000
  H   H415      1.0  0.28723  0.41558  0.55137  1.0000
  H   H416      1.0  0.49862  0.09877  0.53871  1.0000
  C   C235      1.0  0.50048  0.03074  0.60243  1.0000
  H   H417      1.0  0.42231  0.09531  0.64054  1.0000
  C   C236      1.0  0.45387  0.10443  0.61801  1.0000
  C   C237      1.0  0.50632  0.28355  0.52537  1.0000
  H   H418      1.0  0.39616  0.18317  0.52303  1.0000
  H   H419      1.0  0.42024  0.11883  0.60827  1.0000
  H   H420      1.0  0.34498  0.22334  0.51920  1.0000
  H   H421      1.0  0.46325  0.37011  0.71724  1.0000
  H   H422      1.0  0.49463  0.30526  0.72468  1.0000
  H   H423      1.0  0.49676  0.29423  0.53212  1.0000
  Fe  Fe29      1.0  0.23854  0.42373  0.50896  1.0000
  H   H424      1.0  0.50105  0.13606  0.51400  1.0000
  H   H425      1.0  0.30078  0.23267  0.51805  1.0000
  C   C238      1.0  0.01120  0.47993  0.51689  1.0000
  C   C239      1.0  0.17163  0.50899  0.53317  1.0000
  C   C240      1.0  0.50392  0.05393  0.62121  1.0000
  C   C241      1.0  0.48852  0.32876  0.75083  1.0000
  H   H426      1.0  0.50233  0.07931  0.52608  1.0000
  H   H427      1.0  0.18977  0.50825  0.63600  1.0000
  H   H428      1.0  0.32883  0.41854  0.51753  1.0000
  C   C242      1.0  0.47033  0.36287  0.72883  1.0000
  H   H429      1.0  0.47476  0.37353  0.73529  1.0000
  N   N19       1.0  0.32449  0.24680  0.51370  1.0000
  H   H430      1.0  0.33462  0.38450  0.51503  1.0000
  C   C243      1.0  0.30366  0.40902  0.51244  1.0000
  H   H431      1.0  0.39984  0.15430  0.50932  1.0000
  Fe  Fe30      1.0  0.50589  0.10069  0.60381  1.0000
  H   H432      1.0  0.49875  0.36058  0.59034  1.0000
  H   H433      1.0  0.05409  0.50912  0.53586  1.0000
  H   H434      1.0  0.17020  0.48484  0.50910  1.0000
  C   C244      1.0  0.50531  0.31216  0.71560  1.0000
  S   S60       1.0  0.42670  0.07045  0.50908  1.0000
  H   H435      1.0  0.46435  0.00941  0.52857  1.0000
  C   C245      1.0  0.42083  0.00964  0.57157  1.0000
  C   C246      1.0  0.39401  0.18366  0.50896  1.0000
  C   C247      1.0  0.40877  0.48371  0.80393  1.0000
  C   C248      1.0  0.47927  0.33940  0.76683  1.0000
  H   H436      1.0  0.43749  0.46446  0.97872  1.0000
  N   N20       1.0  0.41261  0.49891  0.78848  1.0000
  S   S61       1.0  0.47142  0.44449  0.88438  1.0000
  H   H437      1.0  0.47125  0.45007  0.99460  1.0000
  H   H438      1.0  0.49991  0.45868  0.98905  1.0000
  C   C249      1.0  0.50149  0.46442  0.97444  1.0000
  H   H439      1.0  0.46881  0.48068  0.90894  1.0000
  H   H440      1.0  0.48761  0.41152  0.98447  1.0000
  H   H441      1.0  0.48627  0.44794  0.92741  1.0000
  C   C250      1.0  0.49645  0.45167  0.96207  1.0000
  C   C251      1.0  0.47253  0.43940  0.98546  1.0000
  C   C252      1.0  0.42133  0.47958  0.81910  1.0000
  H   H442      1.0  0.44119  0.44893  0.96190  1.0000
  C   C253      1.0  0.46360  0.46271  0.86871  1.0000
  C   C254      1.0  0.47183  0.46451  0.85055  1.0000
  C   C255      1.0  0.46675  0.48016  0.83857  1.0000
  H   H443      1.0  0.50639  0.43897  0.96308  1.0000
  C   C256      1.0  0.44507  0.49204  0.86287  1.0000
  C   C257      1.0  0.44991  0.47627  0.87473  1.0000
  H   H444      1.0  0.48210  0.45383  0.84575  1.0000
  C   C258      1.0  0.46429  0.46450  0.96197  1.0000
  H   H445      1.0  0.48793  0.47798  0.89192  1.0000
  H   H446      1.0  0.44350  0.47491  0.88876  1.0000
  C   C259      1.0  0.47482  0.44032  0.93344  1.0000
  C   C260      1.0  0.45358  0.49406  0.84485  1.0000
  H   H447      1.0  0.48047  0.41784  0.00687  1.0000
  H   H448      1.0  0.49470  0.40021  0.80492  1.0000
  C   C261      1.0  0.42263  0.49111  0.77168  1.0000
  Fe  Fe31      1.0  0.50169  0.43815  0.87852  1.0000
  H   H449      1.0  0.48749  0.33635  0.77837  1.0000
  H   H450      1.0  0.41913  0.49088  0.82765  1.0000
  H   H451      1.0  0.49371  0.47830  0.97259  1.0000
  H   H452      1.0  0.49947  0.45826  0.94780  1.0000
  C   C262      1.0  0.50521  0.50683  0.87351  1.0000
  H   H453      1.0  0.41778  0.46722  0.82838  1.0000
  H   H454      1.0  0.46353  0.42597  0.95875  1.0000
  H   H455      1.0  0.47575  0.42856  0.92565  1.0000
  H   H456      1.0  0.43671  0.47268  0.95481  1.0000
  H   H457      1.0  0.46172  0.44904  0.93126  1.0000
  H   H458      1.0  0.49032  0.48542  0.91332  1.0000
  H   H459      1.0  0.47326  0.48164  0.82460  1.0000
  N   N21       1.0  0.47719  0.44719  0.96583  1.0000
  H   H460      1.0  0.43506  0.50279  0.86789  1.0000
  H   H461      1.0  0.44719  0.47412  0.76179  1.0000
  H   H462      1.0  0.47585  0.48142  0.00366  1.0000
  H   H463      1.0  0.37925  0.48533  0.78725  1.0000
  H   H464      1.0  0.49944  0.42694  0.99339  1.0000
  C   C263      1.0  0.47565  0.43312  0.95377  1.0000
  H   H465      1.0  0.45883  0.43480  0.98772  1.0000
  H   H466      1.0  0.42223  0.50184  0.75962  1.0000
  H   H467      1.0  0.45161  0.49435  0.76883  1.0000
  H   H468      1.0  0.40862  0.47061  0.79857  1.0000
  H   H469      1.0  0.48744  0.42199  0.95422  1.0000
  C   C264      1.0  0.49765  0.50115  0.85747  1.0000
  H   H470      1.0  0.47622  0.35436  0.76343  1.0000
  C   C265      1.0  0.48592  0.42300  0.99269  1.0000
  C   C266      1.0  0.44383  0.46237  0.96461  1.0000
  H   H471      1.0  0.43597  0.47682  0.81396  1.0000
  C   C267      1.0  0.48136  0.48656  0.90259  1.0000
  H   H472      1.0  0.39489  0.48674  0.81159  1.0000
  H   H473      1.0  0.46799  0.47179  0.94810  1.0000
  H   H474      1.0  0.46540  0.47454  0.97122  1.0000
  H   H475      1.0  0.46603  0.33445  0.77230  1.0000
  C   C268      1.0  0.38177  0.49764  0.77748  1.0000
  C   C269      1.0  0.44281  0.48335  0.77249  1.0000
  H   H476      1.0  0.48679  0.49248  0.86223  1.0000
  H   H477      1.0  0.38713  0.49359  0.76377  1.0000
  H   H478      1.0  0.43645  0.50558  0.79797  1.0000
  H   H479      1.0  0.44533  0.47507  0.78557  1.0000
  H   H480      1.0  0.41584  0.47996  0.76847  1.0000
  H   H481      1.0  0.46686  0.50639  0.88397  1.0000
  C   C270      1.0  0.47597  0.50652  0.89440  1.0000
  H   H482      1.0  0.36837  0.50621  0.77621  1.0000
  C   C271      1.0  0.39454  0.50910  0.78380  1.0000
  Fe  Fe32      1.0  0.39461  0.53730  0.05112  1.0000
  S   S62       1.0  0.42381  0.54170  0.04791  1.0000
  S   S63       1.0  0.38069  0.52886  0.07985  1.0000
  C   C272      1.0  0.49213  0.60225  0.14140  1.0000
  H   H483      1.0  0.45471  0.60167  0.15218  1.0000
  H   H484      1.0  0.41252  0.60792  0.10999  1.0000
  Fe  Fe33      1.0  0.42629  0.53100  0.02110  1.0000
  Fe  Fe34      1.0  0.41419  0.56852  0.03239  1.0000
  S   S64       1.0  0.42313  0.59326  0.03974  1.0000
  C   C273      1.0  0.46046  0.62710  0.15917  1.0000
  S   S65       1.0  0.38481  0.56496  0.03659  1.0000
  H   H485      1.0  0.49839  0.65908  0.15715  1.0000
  S   S66       1.0  0.49482  0.64833  0.09448  1.0000
  S   S67       1.0  0.40572  0.54502  0.23026  1.0000
  H   H486      1.0  0.43951  0.57142  0.14637  1.0000
  H   H487      1.0  0.48152  0.52159  0.02455  1.0000
  C   C274      1.0  0.46270  0.60603  0.16174  1.0000
  C   C275      1.0  0.39848  0.57564  0.10537  1.0000
  H   H488      1.0  0.45550  0.60184  0.17545  1.0000
  H   H489      1.0  0.46851  0.53212  0.04967  1.0000
  Fe  Fe35      1.0  0.40832  0.53273  0.18043  1.0000
  H   H490      1.0  0.49192  0.60523  0.11211  1.0000
  S   S68       1.0  0.41853  0.52596  0.15149  1.0000
  Fe  Fe36      1.0  0.41242  0.56234  0.20352  1.0000
  S   S69       1.0  0.42148  0.59043  0.19922  1.0000
  Fe  Fe37      1.0  0.42374  0.52230  0.21704  1.0000
  H   H491      1.0  0.45747  0.56902  0.18089  1.0000
  S   S70       1.0  0.43201  0.54029  0.19148  1.0000
  S   S71       1.0  0.38885  0.55621  0.19094  1.0000
  H   H492      1.0  0.35971  0.57333  0.14799  1.0000
  H   H493      1.0  0.49813  0.53704  0.05349  1.0000
  C   C276      1.0  0.34342  0.53777  0.25380  1.0000
  H   H494      1.0  0.47381  0.57279  0.15175  1.0000
  C   C277      1.0  0.44672  0.57926  0.22347  1.0000
  C   C278      1.0  0.43874  0.59362  0.21175  1.0000
  C   C279      1.0  0.44512  0.61066  0.20934  1.0000
  C   C280      1.0  0.45962  0.61322  0.21825  1.0000
  H   H495      1.0  0.49631  0.53136  0.08975  1.0000
  H   H496      1.0  0.47117  0.54336  0.07938  1.0000
  C   C281      1.0  0.46755  0.59885  0.23004  1.0000
  S   S72       1.0  0.49690  0.65019  0.21420  1.0000
  H   H497      1.0  0.40753  0.57474  0.07653  1.0000
  H   H498      1.0  0.48426  0.66343  0.12843  1.0000
  H   H499      1.0  0.36582  0.52994  0.11756  1.0000
  C   C282      1.0  0.44573  0.58691  0.04368  1.0000
  C   C283      1.0  0.45299  0.59599  0.05530  1.0000
  C   C284      1.0  0.47126  0.59120  0.05808  1.0000
  C   C285      1.0  0.48239  0.57783  0.04872  1.0000
  C   C286      1.0  0.47506  0.56853  0.03731  1.0000
  C   C287      1.0  0.45663  0.57289  0.03500  1.0000
  H   H500      1.0  0.44452  0.60671  0.06215  1.0000
  H   H501      1.0  0.47679  0.59798  0.06737  1.0000
  H   H502      1.0  0.48370  0.55841  0.02979  1.0000
  H   H503      1.0  0.45104  0.56589  0.02592  1.0000
  C   C288      1.0  0.39134  0.52741  0.09981  1.0000
  H   H504      1.0  0.47807  0.55306  0.18324  1.0000
  C   C289      1.0  0.38849  0.52797  0.13288  1.0000
  C   C290      1.0  0.40745  0.52601  0.13208  1.0000
  C   C291      1.0  0.41829  0.52443  0.11517  1.0000
  C   C292      1.0  0.41032  0.52527  0.09910  1.0000
  H   H505      1.0  0.36196  0.59005  0.12842  1.0000
  H   H506      1.0  0.37996  0.52902  0.14582  1.0000
  S   S73       1.0  0.39783  0.52393  0.02524  1.0000
  H   H507      1.0  0.47524  0.57390  0.19232  1.0000
  H   H508      1.0  0.50553  0.52081  0.02591  1.0000
  C   C293      1.0  0.50216  0.52364  0.06148  1.0000
  H   H509      1.0  0.37707  0.60859  0.10357  1.0000
  C   C294      1.0  0.46201  0.53346  0.07820  1.0000
  H   H510      1.0  0.42591  0.57370  0.08926  1.0000
  H   H511      1.0  0.46442  0.62638  0.21630  1.0000
  Fe  Fe38      1.0  0.50363  0.62350  0.23181  1.0000
  H   H512      1.0  0.48319  0.60128  0.18772  1.0000
  N   N22       1.0  0.48202  0.59654  0.15987  1.0000
  H   H513      1.0  0.37285  0.61775  0.12514  1.0000
  S   S74       1.0  0.40154  0.51283  0.20543  1.0000
  H   H514      1.0  0.36740  0.56595  0.12625  1.0000
  N   N23       1.0  0.48764  0.51129  0.06281  1.0000
  C   C295      1.0  0.47247  0.56775  0.18064  1.0000
  H   H515      1.0  0.46988  0.61047  0.12421  1.0000
  H   H516      1.0  0.41139  0.59522  0.08403  1.0000
  H   H517      1.0  0.38662  0.62803  0.10557  1.0000
  H   H518      1.0  0.49441  0.61621  0.17092  1.0000
  H   H519      1.0  0.47000  0.62062  0.01783  1.0000
  H   H520      1.0  0.45874  0.51305  0.06193  1.0000
  C   C296      1.0  0.38319  0.61482  0.11325  1.0000
  H   H521      1.0  0.45854  0.52457  0.09111  1.0000
  C   C297      1.0  0.48157  0.57624  0.16202  1.0000
  H   H522      1.0  0.39935  0.56055  0.10797  1.0000
  C   C298      1.0  0.41175  0.58027  0.08801  1.0000
  H   H523      1.0  0.48043  0.58686  0.12390  1.0000
  H   H524      1.0  0.46693  0.57078  0.24188  1.0000
  Fe  Fe39      1.0  0.38361  0.53693  0.21715  1.0000
  H   H525      1.0  0.44196  0.56607  0.22546  1.0000
  C   C299      1.0  0.40066  0.60344  0.11955  1.0000
  H   H526      1.0  0.41673  0.57033  0.15676  1.0000
  C   C300      1.0  0.38797  0.57673  0.13831  1.0000
  H   H527      1.0  0.42266  0.55979  0.12589  1.0000
  C   C301      1.0  0.36822  0.57671  0.13474  1.0000
  H   H528      1.0  0.43889  0.62191  0.20045  1.0000
  C   C302      1.0  0.42516  0.57753  0.14526  1.0000
  C   C303      1.0  0.42041  0.57480  0.12650  1.0000
  H   H529      1.0  0.49538  0.56849  0.15889  1.0000
  S   S75       1.0  0.35561  0.53161  0.23263  1.0000
  H   H530      1.0  0.38729  0.58506  0.14965  1.0000
  C   C304      1.0  0.46094  0.58193  0.23270  1.0000
  H   H531      1.0  0.43294  0.52276  0.11446  1.0000
  H   H532      1.0  0.40214  0.60839  0.13249  1.0000
  C   C305      1.0  0.50474  0.65171  0.14590  1.0000
  H   H533      1.0  0.44895  0.54194  0.07533  1.0000
  H   H534      1.0  0.39252  0.56238  0.14409  1.0000
  C   C306      1.0  0.38050  0.52849  0.11684  1.0000
  S   S76       1.0  0.48537  0.60161  0.24202  1.0000
  H   H535      1.0  0.38457  0.58021  0.10167  1.0000
  H   H536      1.0  0.42400  0.59213  0.14707  1.0000
  H   H537      1.0  0.43102  0.58048  0.11609  1.0000
  N   N24       1.0  0.40148  0.58293  0.12229  1.0000
  H   H538      1.0  0.44568  0.63243  0.16069  1.0000
  C   C307      1.0  0.49419  0.51257  0.02758  1.0000
  H   H539      1.0  0.46644  0.63281  0.14542  1.0000
  H   H540      1.0  0.41884  0.52405  0.08621  1.0000
  S   S77       1.0  0.49397  0.62764  0.04851  1.0000
  H   H541      1.0  0.46634  0.63239  0.16976  1.0000
  C   C308      1.0  0.50513  0.64500  0.11473  1.0000
  H   H542      1.0  0.32195  0.52191  0.25287  1.0000
  H   H543      1.0  0.45772  0.63993  0.02758  1.0000
  H   H544      1.0  0.43645  0.62363  0.01732  1.0000
  C   C309      1.0  0.49177  0.60173  0.17419  1.0000
  C   C310      1.0  0.48279  0.60097  0.12469  1.0000
  C   C311      1.0  0.46897  0.52225  0.06229  1.0000
  C   C312      1.0  0.46175  0.63406  0.01451  1.0000
  H   H545      1.0  0.49480  0.61655  0.14038  1.0000
  C   C313      1.0  0.49682  0.65422  0.12959  1.0000
  Fe  Fe40      1.0  0.39137  0.55224  0.01036  1.0000
  S   S78       1.0  0.50574  0.57397  0.05010  1.0000
  H   H546      1.0  0.50583  0.59401  0.13946  1.0000
  S   S79       1.0  0.45053  0.51314  0.00910  1.0000
  H   H547      1.0  0.49655  0.93794  0.47039  1.0000
  H   H548      1.0  0.49133  0.73809  0.30284  1.0000
  C   C314      1.0  0.02612  0.58748  0.36328  1.0000
  H   H549      1.0  0.49163  0.95626  0.28680  1.0000
  C   C315      1.0  0.04249  0.57869  0.37331  1.0000
  S   S80       1.0  0.46791  0.87989  0.41140  1.0000
  C   C316      1.0  0.47007  0.76063  0.29802  1.0000
  Fe  Fe41      1.0  0.41052  0.91570  0.48314  1.0000
  C   C317      1.0  0.03190  0.61918  0.47187  1.0000
  S   S81       1.0  0.39397  0.90788  0.46345  1.0000
  Fe  Fe42      1.0  0.42938  0.94779  0.48935  1.0000
  H   H550      1.0  0.36067  0.86912  0.47911  1.0000
  Fe  Fe43      1.0  0.44694  0.90786  0.49731  1.0000
  S   S82       1.0  0.47386  0.89033  0.49217  1.0000
  N   N25       1.0  0.12892  0.52871  0.45449  1.0000
  S   S83       1.0  0.43759  0.92474  0.47242  1.0000
  C   C318      1.0  0.48993  0.99817  0.36478  1.0000
  Fe  Fe44      1.0  0.07444  0.54094  0.34420  1.0000
  H   H551      1.0  0.45816  0.84548  0.39216  1.0000
  H   H552      1.0  0.41137  0.95701  0.42215  1.0000
  Fe  Fe45      1.0  0.11310  0.53149  0.35664  1.0000
  S   S84       1.0  0.10169  0.51370  0.38137  1.0000
  S   S85       1.0  0.14227  0.52975  0.36261  1.0000
  H   H553      1.0  0.20774  0.66559  0.48646  1.0000
  Fe  Fe46      1.0  0.07887  0.53669  0.38391  1.0000
  S   S86       1.0  0.07107  0.55079  0.40899  1.0000
  C   C319      1.0  0.34981  0.54896  0.26417  1.0000
  S   S87       1.0  0.09041  0.55488  0.35989  1.0000
  Fe  Fe47      1.0  0.09841  0.62033  0.46419  1.0000
  S   S88       1.0  0.11626  0.59302  0.46615  1.0000
  H   H554      1.0  0.25841  0.54432  0.50049  1.0000
  Fe  Fe48      1.0  0.13258  0.64025  0.45381  1.0000
  S   S89       1.0  0.15202  0.61438  0.45415  1.0000
  S   S90       1.0  0.14445  0.66692  0.44915  1.0000
  Fe  Fe49      1.0  0.13179  0.60445  0.44016  1.0000
  S   S91       1.0  0.13965  0.58713  0.41742  1.0000
  Fe  Fe50      1.0  0.13437  0.60592  0.47993  1.0000
  S   S92       1.0  0.11346  0.63114  0.43727  1.0000
  Fe  Fe51      1.0  0.49624  0.76349  0.35469  1.0000
  Fe  Fe52      1.0  0.25196  0.66334  0.45209  1.0000
  S   S93       1.0  0.25306  0.63300  0.45706  1.0000
  S   S94       1.0  0.22707  0.68166  0.44289  1.0000
  Fe  Fe53      1.0  0.28926  0.66340  0.46507  1.0000
  S   S95       1.0  0.29266  0.63252  0.47121  1.0000
  S   S96       1.0  0.31250  0.67604  0.47384  1.0000
  Fe  Fe54      1.0  0.28222  0.63252  0.44458  1.0000
  S   S97       1.0  0.29612  0.61057  0.42723  1.0000
  H   H555      1.0  0.19163  0.61457  0.40524  1.0000
  S   S98       1.0  0.28077  0.66309  0.43735  1.0000
  H   H556      1.0  0.17447  0.57027  0.39948  1.0000
  H   H557      1.0  0.18314  0.59323  0.41174  1.0000
  C   C320      1.0  0.32707  0.53059  0.26072  1.0000
  Fe  Fe55      1.0  0.26018  0.55538  0.36135  1.0000
  S   S99       1.0  0.28672  0.53672  0.35778  1.0000
  S   S100      1.0  0.24901  0.57682  0.38023  1.0000
  Fe  Fe56      1.0  0.24433  0.54013  0.33251  1.0000
  S   S101      1.0  0.26968  0.52022  0.32618  1.0000
  S   S102      1.0  0.21891  0.54486  0.31830  1.0000
  H   H558      1.0  0.14964  0.51107  0.46851  1.0000
  H   H559      1.0  0.01607  0.52550  0.43998  1.0000
  Fe  Fe57      1.0  0.28561  0.54313  0.32733  1.0000
  S   S103      1.0  0.31188  0.55115  0.30963  1.0000
  S   S104      1.0  0.24282  0.53318  0.36279  1.0000
  S   S105      1.0  0.26016  0.56361  0.33122  1.0000
  Fe  Fe58      1.0  0.38690  0.80147  0.46150  1.0000
  S   S106      1.0  0.41167  0.79101  0.47503  1.0000
  S   S107      1.0  0.38183  0.83014  0.44676  1.0000
  Fe  Fe59      1.0  0.37229  0.76375  0.46872  1.0000
  S   S108      1.0  0.39615  0.75073  0.48344  1.0000
  S   S109      1.0  0.34964  0.75006  0.46040  1.0000
  H   H560      1.0  0.18802  0.65914  0.48084  1.0000
  Fe  Fe60      1.0  0.41329  0.76627  0.46086  1.0000
  S   S110      1.0  0.44091  0.75324  0.44899  1.0000
  H   H561      1.0  0.02268  0.55937  0.39905  1.0000
  S   S111      1.0  0.38996  0.77791  0.44531  1.0000
  H   H562      1.0  0.35591  0.71530  0.48495  1.0000
  H   H563      1.0  0.41686  0.51567  0.25982  1.0000
  H   H564      1.0  0.41408  0.80458  0.41191  1.0000
  C   C321      1.0  0.18468  0.60447  0.40039  1.0000
  C   C322      1.0  0.47084  0.73376  0.33377  1.0000
  H   H565      1.0  0.02432  0.59437  0.44205  1.0000
  H   H566      1.0  0.06439  0.52372  0.50297  1.0000
  S   S112      1.0  0.46615  0.77004  0.36430  1.0000
  H   H567      1.0  0.40004  0.98620  0.48546  1.0000
  C   C323      1.0  0.44776  0.75801  0.42544  1.0000
  C   C324      1.0  0.43528  0.76642  0.41362  1.0000
  C   C325      1.0  0.44105  0.77001  0.39484  1.0000
  C   C326      1.0  0.45937  0.76536  0.38785  1.0000
  C   C327      1.0  0.47190  0.75704  0.39967  1.0000
  C   C328      1.0  0.46605  0.75327  0.41843  1.0000
  H   H568      1.0  0.42120  0.77012  0.41890  1.0000
  H   H569      1.0  0.43134  0.77647  0.38572  1.0000
  H   H570      1.0  0.48605  0.75339  0.39434  1.0000
  H   H571      1.0  0.47574  0.74668  0.42754  1.0000
  H   H572      1.0  0.49739  0.96446  0.32810  1.0000
  C   C329      1.0  0.00774  0.56117  0.39931  1.0000
  H   H573      1.0  0.47544  0.84518  0.50343  1.0000
  C   C330      1.0  0.33998  0.55285  0.28116  1.0000
  C   C331      1.0  0.32362  0.54566  0.28806  1.0000
  C   C332      1.0  0.31725  0.53446  0.27771  1.0000
  C   C333      1.0  0.01240  0.64840  0.46911  1.0000
  H   H574      1.0  0.01874  0.57615  0.43141  1.0000
  H   H575      1.0  0.34509  0.56153  0.28899  1.0000
  H   H576      1.0  0.30472  0.52882  0.28276  1.0000
  H   H577      1.0  0.17638  0.61196  0.48563  1.0000
  C   C334      1.0  0.32246  0.69687  0.46990  1.0000
  C   C335      1.0  0.33683  0.69830  0.47960  1.0000
  C   C336      1.0  0.34507  0.71446  0.47720  1.0000
  C   C337      1.0  0.33922  0.72948  0.46484  1.0000
  C   C338      1.0  0.32496  0.72799  0.45506  1.0000
  C   C339      1.0  0.31659  0.71189  0.45759  1.0000
  H   H578      1.0  0.27317  0.59182  0.48013  1.0000
  C   C340      1.0  0.44575  0.73332  0.31634  1.0000
  H   H579      1.0  0.32027  0.73943  0.44543  1.0000
  H   H580      1.0  0.30561  0.71113  0.44998  1.0000
  C   C341      1.0  0.28281  0.60099  0.41454  1.0000
  C   C342      1.0  0.29067  0.58593  0.40543  1.0000
  C   C343      1.0  0.28038  0.57810  0.39514  1.0000
  C   C344      1.0  0.26223  0.58543  0.39376  1.0000
  C   C345      1.0  0.25432  0.60032  0.40305  1.0000
  C   C346      1.0  0.26456  0.60807  0.41341  1.0000
  H   H581      1.0  0.30476  0.58031  0.40636  1.0000
  H   H582      1.0  0.28650  0.56647  0.38821  1.0000
  H   H583      1.0  0.24028  0.60608  0.40203  1.0000
  H   H584      1.0  0.25839  0.61974  0.42023  1.0000
  H   H585      1.0  0.02245  0.57060  0.49845  1.0000
  H   H586      1.0  0.15069  0.63613  0.49499  1.0000
  C   C347      1.0  0.43678  0.96111  0.43292  1.0000
  H   H587      1.0  0.50276  0.00557  0.48223  1.0000
  N   N26       1.0  0.18910  0.58347  0.37505  1.0000
  C   C348      1.0  0.16786  0.66962  0.44731  1.0000
  C   C349      1.0  0.18230  0.65549  0.44416  1.0000
  C   C350      1.0  0.20066  0.65867  0.44314  1.0000
  C   C351      1.0  0.20457  0.67609  0.44493  1.0000
  C   C352      1.0  0.19009  0.69013  0.44761  1.0000
  C   C353      1.0  0.17197  0.68691  0.44890  1.0000
  H   H588      1.0  0.17932  0.64226  0.44229  1.0000
  H   H589      1.0  0.21175  0.64789  0.44043  1.0000
  H   H590      1.0  0.19290  0.70368  0.44869  1.0000
  H   H591      1.0  0.16103  0.69800  0.45104  1.0000
  C   C354      1.0  0.08975  0.56202  0.41035  1.0000
  C   C355      1.0  0.08793  0.57576  0.42160  1.0000
  C   C356      1.0  0.10313  0.58388  0.42341  1.0000
  C   C357      1.0  0.12021  0.57838  0.41389  1.0000
  C   C358      1.0  0.12196  0.56504  0.40225  1.0000
  C   C359      1.0  0.10681  0.55683  0.40058  1.0000
  H   H592      1.0  0.07481  0.58033  0.42880  1.0000
  H   H593      1.0  0.10152  0.59452  0.43207  1.0000
  H   H594      1.0  0.13506  0.56080  0.39472  1.0000
  H   H595      1.0  0.10858  0.54620  0.39198  1.0000
  C   C360      1.0  0.16328  0.53337  0.34936  1.0000
  C   C361      1.0  0.17922  0.52757  0.35755  1.0000
  C   C362      1.0  0.19634  0.53061  0.34800  1.0000
  C   C363      1.0  0.19768  0.53972  0.33021  1.0000
  C   C364      1.0  0.18174  0.54531  0.32190  1.0000
  C   C365      1.0  0.16456  0.54214  0.33144  1.0000
  C   C366      1.0  0.43835  0.73374  0.29801  1.0000
  H   H596      1.0  0.32242  0.58067  0.45626  1.0000
  H   H597      1.0  0.18268  0.55235  0.30813  1.0000
  H   H598      1.0  0.15234  0.54677  0.32504  1.0000
  H   H599      1.0  0.17122  0.57640  0.34524  1.0000
  H   H600      1.0  0.18287  0.55577  0.38262  1.0000
  H   H601      1.0  0.41912  0.86739  0.42343  1.0000
  C   C367      1.0  0.03298  0.55157  0.32486  1.0000
  H   H602      1.0  0.35712  0.82807  0.49155  1.0000
  H   H603      1.0  0.16057  0.59451  0.38051  1.0000
  C   C368      1.0  0.31063  0.57844  0.46691  1.0000
  S   S113      1.0  0.05605  0.55508  0.32347  1.0000
  C   C369      1.0  0.49050  0.93606  0.50737  1.0000
  N   N27       1.0  0.34969  0.85311  0.50387  1.0000
  C   C370      1.0  0.39311  0.88563  0.45850  1.0000
  C   C371      1.0  0.40229  0.86965  0.46733  1.0000
  C   C372      1.0  0.39956  0.85226  0.46364  1.0000
  C   C373      1.0  0.38760  0.85098  0.45122  1.0000
  C   C374      1.0  0.37926  0.86699  0.44195  1.0000
  C   C375      1.0  0.38192  0.88413  0.44561  1.0000
  H   H604      1.0  0.41115  0.87071  0.47715  1.0000
  H   H605      1.0  0.40636  0.83993  0.47061  1.0000
  H   H606      1.0  0.49371  0.77294  0.45028  1.0000
  H   H607      1.0  0.37491  0.89634  0.43863  1.0000
  C   C376      1.0  0.47057  0.88037  0.43424  1.0000
  C   C377      1.0  0.45563  0.87867  0.44777  1.0000
  C   C378      1.0  0.45697  0.88093  0.46576  1.0000
  C   C379      1.0  0.47338  0.88448  0.47039  1.0000
  C   C380      1.0  0.48864  0.88519  0.45709  1.0000
  H   H608      1.0  0.09198  0.51893  0.45660  1.0000
  H   H609      1.0  0.44274  0.87646  0.44422  1.0000
  H   H610      1.0  0.44510  0.88043  0.47592  1.0000
  H   H611      1.0  0.47697  0.73509  0.28751  1.0000
  H   H612      1.0  0.47966  0.76724  0.28713  1.0000
  H   H613      1.0  0.37023  0.86619  0.43217  1.0000
  H   H614      1.0  0.46635  0.72915  0.36335  1.0000
  H   H615      1.0  0.43986  0.95471  0.44661  1.0000
  H   H616      1.0  0.14924  0.58631  0.35468  1.0000
  H   H617      1.0  0.02726  0.61913  0.37762  1.0000
  H   H618      1.0  0.44005  0.97529  0.43212  1.0000
  N   N28       1.0  0.30103  0.60037  0.33465  1.0000
  C   C381      1.0  0.31405  0.58322  0.33912  1.0000
  C   C382      1.0  0.29484  0.59905  0.31664  1.0000
  C   C383      1.0  0.28509  0.60066  0.34974  1.0000
  C   C384      1.0  0.31095  0.61660  0.33383  1.0000
  C   C385      1.0  0.32218  0.58156  0.35717  1.0000
  C   C386      1.0  0.30943  0.60044  0.29970  1.0000
  C   C387      1.0  0.26685  0.61196  0.34534  1.0000
  C   C388      1.0  0.30088  0.63553  0.32731  1.0000
  H   H619      1.0  0.30720  0.57088  0.33979  1.0000
  H   H620      1.0  0.32591  0.58173  0.32832  1.0000
  H   H621      1.0  0.28339  0.60977  0.31339  1.0000
  H   H622      1.0  0.28928  0.58596  0.31728  1.0000
  H   H623      1.0  0.28178  0.58655  0.35458  1.0000
  H   H624      1.0  0.28857  0.60568  0.36192  1.0000
  H   H625      1.0  0.31430  0.61774  0.34759  1.0000
  H   H626      1.0  0.32456  0.61473  0.32541  1.0000
  H   H627      1.0  0.33196  0.59145  0.35645  1.0000
  H   H628      1.0  0.31160  0.58317  0.36906  1.0000
  H   H629      1.0  0.32993  0.56767  0.35970  1.0000
  H   H630      1.0  0.31471  0.61377  0.29727  1.0000
  H   H631      1.0  0.32090  0.58916  0.30034  1.0000
  H   H632      1.0  0.30309  0.59929  0.28748  1.0000
  H   H633      1.0  0.26019  0.60506  0.33650  1.0000
  H   H634      1.0  0.26818  0.62610  0.33908  1.0000
  H   H635      1.0  0.25738  0.61284  0.35824  1.0000
  H   H636      1.0  0.29264  0.64182  0.33901  1.0000
  H   H637      1.0  0.29210  0.63532  0.31676  1.0000
  H   H638      1.0  0.31106  0.64462  0.32070  1.0000
  N   N29       1.0  0.44377  0.82599  0.41115  1.0000
  H   H639      1.0  0.35483  0.51307  0.29582  1.0000
  C   C389      1.0  0.44772  0.80792  0.42283  1.0000
  C   C390      1.0  0.43293  0.82327  0.39657  1.0000
  H   H640      1.0  0.37429  0.88145  0.49781  1.0000
  H   H641      1.0  0.10888  0.54253  0.43745  1.0000
  C   C391      1.0  0.45999  0.80767  0.43768  1.0000
  C   C392      1.0  0.41367  0.81803  0.40334  1.0000
  C   C393      1.0  0.47498  0.81960  0.39127  1.0000
  H   H642      1.0  0.45012  0.82980  0.50080  1.0000
  H   H643      1.0  0.25757  0.56713  0.50690  1.0000
  H   H644      1.0  0.45400  0.79703  0.41426  1.0000
  H   H645      1.0  0.43488  0.80322  0.43018  1.0000
  H   H646      1.0  0.01285  0.58172  0.47198  1.0000
  C   C394      1.0  0.01324  0.61968  0.38503  1.0000
  H   H647      1.0  0.43151  0.98598  0.40281  1.0000
  H   H648      1.0  0.07055  0.54722  0.44921  1.0000
  H   H649      1.0  0.47364  0.81137  0.43193  1.0000
  H   H650      1.0  0.45651  0.70071  0.29647  1.0000
  H   H651      1.0  0.42516  0.92628  0.41070  1.0000
  H   H652      1.0  0.03315  0.60451  0.47429  1.0000
  C   C395      1.0  0.48719  0.88324  0.43897  1.0000
  H   H653      1.0  0.25688  0.50967  0.39746  1.0000
  C   C396      1.0  0.29862  0.56648  0.46018  1.0000
  H   H654      1.0  0.40474  0.82845  0.41088  1.0000
  C   C397      1.0  0.24809  0.58468  0.47398  1.0000
  H   H655      1.0  0.48055  0.80748  0.40023  1.0000
  C   C398      1.0  0.03014  0.55666  0.49851  1.0000
  H   H656      1.0  0.46915  0.81501  0.38024  1.0000
  H   H657      1.0  0.14919  0.53730  0.41836  1.0000
  H   H658      1.0  0.47673  0.68584  0.30036  1.0000
  C   C399      1.0  0.47083  0.70050  0.29860  1.0000
  H   H659      1.0  0.05759  0.65390  0.46432  1.0000
  H   H660      1.0  0.16569  0.52546  0.43321  1.0000
  H   H661      1.0  0.49890  0.88417  0.42864  1.0000
  C   C400      1.0  0.46802  0.95546  0.41772  1.0000
  H   H662      1.0  0.21480  0.55366  0.38969  1.0000
  C   C401      1.0  0.46280  0.72321  0.35178  1.0000
  C   C402      1.0  0.06464  0.55166  0.46264  1.0000
  C   C403      1.0  0.48370  0.94226  0.32398  1.0000
  H   H663      1.0  0.19918  0.56531  0.35457  1.0000
  H   H664      1.0  0.46940  0.95366  0.44745  1.0000
  H   H665      1.0  0.30672  0.55270  0.45939  1.0000
  H   H666      1.0  0.06287  0.62724  0.50642  1.0000
  H   H667      1.0  0.47710  0.94960  0.40625  1.0000
  S   S114      1.0  0.26023  0.66590  0.47925  1.0000
  H   H668      1.0  0.29718  0.57242  0.44583  1.0000
  H   H669      1.0  0.34159  0.68683  0.48913  1.0000
  H   H670      1.0  0.10704  0.52636  0.47690  1.0000
  H   H671      1.0  0.26276  0.57082  0.43973  1.0000
  H   H672      1.0  0.21201  0.60341  0.34609  1.0000
  H   H673      1.0  0.42186  0.83386  0.43223  1.0000
  N   N30       1.0  0.39394  0.71558  0.43281  1.0000
  C   C404      1.0  0.37576  0.71253  0.42821  1.0000
  C   C405      1.0  0.39493  0.73581  0.42882  1.0000
  C   C406      1.0  0.39411  0.70983  0.45302  1.0000
  C   C407      1.0  0.40906  0.70441  0.42179  1.0000
  C   C408      1.0  0.37073  0.69299  0.43349  1.0000
  C   C409      1.0  0.39164  0.74470  0.40938  1.0000
  C   C410      1.0  0.41168  0.71125  0.46071  1.0000
  C   C411      1.0  0.42767  0.71176  0.41709  1.0000
  H   H674      1.0  0.36447  0.72196  0.43474  1.0000
  H   H675      1.0  0.37514  0.71581  0.41329  1.0000
  H   H676      1.0  0.40816  0.73921  0.43132  1.0000
  H   H677      1.0  0.38454  0.74321  0.43838  1.0000
  H   H678      1.0  0.38264  0.71796  0.46088  1.0000
  H   H679      1.0  0.39197  0.69530  0.45688  1.0000
  H   H680      1.0  0.41164  0.69022  0.42888  1.0000
  H   H681      1.0  0.40503  0.70277  0.40844  1.0000
  H   H682      1.0  0.36626  0.69017  0.44837  1.0000
  H   H683      1.0  0.35885  0.69175  0.42669  1.0000
  H   H684      1.0  0.38203  0.68242  0.42918  1.0000
  H   H685      1.0  0.39656  0.75825  0.40658  1.0000
  H   H686      1.0  0.39881  0.73632  0.39873  1.0000
  H   H687      1.0  0.37683  0.74720  0.40819  1.0000
  H   H688      1.0  0.40916  0.70871  0.47585  1.0000
  H   H689      1.0  0.41609  0.72493  0.45720  1.0000
  H   H690      1.0  0.42287  0.70056  0.45639  1.0000
  H   H691      1.0  0.42706  0.72423  0.40697  1.0000
  H   H692      1.0  0.43789  0.70128  0.41079  1.0000
  H   H693      1.0  0.43309  0.71478  0.42909  1.0000
  Fe  Fe61      1.0  0.26921  0.51509  0.35674  1.0000
  H   H694      1.0  0.09253  0.56772  0.50397  1.0000
  H   H695      1.0  0.40702  0.81687  0.39134  1.0000
  H   H696      1.0  0.19879  0.61553  0.45780  1.0000
  C   C412      1.0  0.02808  0.65720  0.46649  1.0000
  H   H697      1.0  0.24285  0.57250  0.48195  1.0000
  H   H698      1.0  0.37507  0.84060  0.48990  1.0000
  C   C413      1.0  0.47235  0.70871  0.31596  1.0000
  H   H699      1.0  0.02951  0.60062  0.35530  1.0000
  H   H700      1.0  0.34648  0.84527  0.46767  1.0000
  C   C414      1.0  0.20148  0.63973  0.50195  1.0000
  C   C415      1.0  0.43330  0.83970  0.42313  1.0000
  H   H701      1.0  0.43018  0.95314  0.39815  1.0000
  C   C416      1.0  0.38977  0.51351  0.27599  1.0000
  H   H702      1.0  0.03190  0.56172  0.29650  1.0000
  H   H703      1.0  0.46847  0.97044  0.41503  1.0000
  H   H704      1.0  0.47960  0.81073  0.50480  1.0000
  H   H705      1.0  0.20896  0.60197  0.47615  1.0000
  H   H706      1.0  0.02614  0.57878  0.35245  1.0000
  C   C417      1.0  0.20282  0.61602  0.47139  1.0000
  H   H707      1.0  0.04181  0.58242  0.38716  1.0000
  H   H708      1.0  0.44072  0.74683  0.32125  1.0000
  Fe  Fe62      1.0  0.39252  0.77668  0.49636  1.0000
  H   H709      1.0  0.43151  0.83572  0.38636  1.0000
  S   S115      1.0  0.06129  0.52443  0.36857  1.0000
  H   H710      1.0  0.28329  0.67472  0.50492  1.0000
  C   C418      1.0  0.36312  0.83661  0.49942  1.0000
  H   H711      1.0  0.25981  0.54755  0.43944  1.0000
  C   C419      1.0  0.01446  0.62931  0.47188  1.0000
  H   H712      1.0  0.12417  0.52595  0.42690  1.0000
  C   C420      1.0  0.02434  0.55635  0.30915  1.0000
  H   H713      1.0  0.43668  0.98099  0.37980  1.0000
  H   H714      1.0  0.30326  0.59212  0.46918  1.0000
  S   S116      1.0  0.43948  0.97515  0.47853  1.0000
  N   N31       1.0  0.00761  0.58982  0.37454  1.0000
  H   H715      1.0  0.17833  0.52078  0.37142  1.0000
  H   H716      1.0  0.48743  0.96208  0.48856  1.0000
  H   H717      1.0  0.48400  0.92828  0.49912  1.0000
  H   H718      1.0  0.45321  0.95052  0.38920  1.0000
  N   N32       1.0  0.28015  0.56496  0.47124  1.0000
  H   H719      1.0  0.48684  0.70535  0.31847  1.0000
  H   H720      1.0  0.01499  0.51172  0.32467  1.0000
  H   H721      1.0  0.46206  0.79355  0.44497  1.0000
  H   H722      1.0  0.50351  0.99197  0.29396  1.0000
  C   C421      1.0  0.11660  0.52867  0.44031  1.0000
  C   C422      1.0  0.19547  0.65903  0.49247  1.0000
  H   H723      1.0  0.43863  0.72337  0.32640  1.0000
  H   H724      1.0  0.46984  0.76732  0.31031  1.0000
  C   C423      1.0  0.04707  0.56527  0.46081  1.0000
  S   S117      1.0  0.50132  0.91612  0.40093  1.0000
  H   H725      1.0  0.06246  0.53932  0.47236  1.0000
  C   C424      1.0  0.44331  0.95737  0.39961  1.0000
  H   H726      1.0  0.21040  0.59342  0.38599  1.0000
  H   H727      1.0  0.21599  0.58539  0.33219  1.0000
  H   H728      1.0  0.45432  0.92554  0.43586  1.0000
  H   H729      1.0  0.27211  0.59154  0.45665  1.0000
  C   C425      1.0  0.49342  0.98282  0.29314  1.0000
  C   C426      1.0  0.04565  0.64698  0.46638  1.0000
  H   H730      1.0  0.38440  0.51575  0.29028  1.0000
  H   H731      1.0  0.45346  0.81668  0.44804  1.0000
  N   N33       1.0  0.18887  0.62562  0.50297  1.0000
  H   H732      1.0  0.04490  0.55730  0.49795  1.0000
  C   C427      1.0  0.20286  0.57739  0.35947  1.0000
  Fe  Fe63      1.0  0.48911  0.89391  0.39229  1.0000
  H   H733      1.0  0.41453  0.85677  0.40513  1.0000
  S   S118      1.0  0.11555  0.63222  0.48063  1.0000
  H   H734      1.0  0.04771  0.60192  0.50254  1.0000
  C   C428      1.0  0.47746  0.94874  0.43500  1.0000
  H   H735      1.0  0.19913  0.54676  0.40893  1.0000
  H   H736      1.0  0.48087  0.93364  0.43713  1.0000
  N   N34       1.0  0.02958  0.55702  0.46393  1.0000
  C   C429      1.0  0.42577  0.99666  0.47997  1.0000
  H   H737      1.0  0.47644  0.94619  0.31191  1.0000
  H   H738      1.0  0.47574  0.99981  0.37055  1.0000
  H   H739      1.0  0.46635  0.74845  0.33505  1.0000
  C   C430      1.0  0.14239  0.54198  0.44746  1.0000
  S   S119      1.0  0.48720  0.96151  0.36936  1.0000
  Fe  Fe64      1.0  0.49889  0.93127  0.37291  1.0000
  H   H740      1.0  0.15112  0.54281  0.45799  1.0000
  C   C431      1.0  0.15591  0.53794  0.43040  1.0000
  H   H741      1.0  0.33898  0.87883  0.48897  1.0000
  H   H742      1.0  0.42156  0.92663  0.43532  1.0000
  H   H743      1.0  0.07100  0.57656  0.49656  1.0000
  C   C432      1.0  0.26909  0.58374  0.47041  1.0000
  H   H744      1.0  0.04124  0.53163  0.45336  1.0000
  H   H745      1.0  0.46888  0.70863  0.35338  1.0000
  H   H746      1.0  0.42950  0.76938  0.50520  1.0000
  C   C433      1.0  0.16265  0.57918  0.35823  1.0000
  H   H747      1.0  0.19346  0.59701  0.33638  1.0000
  H   H748      1.0  0.30453  0.64819  0.50305  1.0000
  H   H749      1.0  0.29269  0.54431  0.49081  1.0000
  H   H750      1.0  0.43605  0.86520  0.40415  1.0000
  S   S120      1.0  0.36718  0.78872  0.48361  1.0000
  H   H751      1.0  0.03605  0.54973  0.43630  1.0000
  C   C434      1.0  0.26633  0.55413  0.50439  1.0000
  S   S121      1.0  0.48374  0.91022  0.36547  1.0000
  H   H752      1.0  0.20685  0.56842  0.40717  1.0000
  H   H753      1.0  0.13500  0.55602  0.44449  1.0000
  C   C435      1.0  0.28329  0.55747  0.49057  1.0000
  H   H754      1.0  0.21177  0.60393  0.50501  1.0000
  C   C436      1.0  0.20601  0.59187  0.34273  1.0000
  N   N35       1.0  0.44882  0.95121  0.41839  1.0000
  H   H755      1.0  0.40963  0.53190  0.27539  1.0000
  C   C437      1.0  0.19617  0.59798  0.38298  1.0000
  H   H756      1.0  0.29009  0.56690  0.49657  1.0000
  H   H757      1.0  0.21646  0.57271  0.36402  1.0000
  C   C438      1.0  0.02288  0.54486  0.34118  1.0000
  H   H758      1.0  0.21548  0.63496  0.49561  1.0000
  S   S122      1.0  0.42038  0.89708  0.50694  1.0000
  Fe  Fe65      1.0  0.26327  0.63526  0.48312  1.0000
  C   C439      1.0  0.43144  0.92283  0.42346  1.0000
  H   H759      1.0  0.49981  0.81944  0.50729  1.0000
  C   C440      1.0  0.44943  0.93071  0.42254  1.0000
  C   C441      1.0  0.33848  0.85799  0.47210  1.0000
  H   H760      1.0  0.31634  0.57162  0.47945  1.0000
  H   H761      1.0  0.17195  0.60475  0.35997  1.0000
  H   H762      1.0  0.45945  0.92384  0.41222  1.0000
  H   H763      1.0  0.46448  0.70054  0.32719  1.0000
  C   C442      1.0  0.18635  0.56705  0.38905  1.0000
  H   H764      1.0  0.40971  0.97722  0.43269  1.0000
  H   H765      1.0  0.17858  0.63472  0.47693  1.0000
  H   H766      1.0  0.42946  0.74689  0.29491  1.0000
  H   H767      1.0  0.17100  0.61153  0.39770  1.0000
  H   H768      1.0  0.05506  0.58371  0.36571  1.0000
  H   H769      1.0  0.19702  0.61046  0.37289  1.0000
  H   H770      1.0  0.11641  0.54143  0.49854  1.0000
  N   N36       1.0  0.46608  0.72889  0.31629  1.0000
  H   H771      1.0  0.48920  0.78461  0.46987  1.0000
  C   C443      1.0  0.46116  0.83304  0.40203  1.0000
  H   H772      1.0  0.32420  0.85573  0.47710  1.0000
  C   C444      1.0  0.04761  0.62787  0.46906  1.0000
  H   H773      1.0  0.47383  0.94715  0.33548  1.0000
  C   C445      1.0  0.26898  0.55646  0.44297  1.0000
  H   H774      1.0  0.04435  0.56359  0.37392  1.0000
  H   H775      1.0  0.16004  0.56609  0.36660  1.0000
  H   H776      1.0  0.00722  0.52973  0.46276  1.0000
  H   H777      1.0  0.49067  0.95423  0.43311  1.0000
  H   H778      1.0  0.48673  0.82667  0.38460  1.0000
  C   C446      1.0  0.41588  0.96265  0.43326  1.0000
  C   C447      1.0  0.18572  0.62241  0.48432  1.0000
  H   H779      1.0  0.04904  0.57266  0.44677  1.0000
  H   H780      1.0  0.13343  0.55170  0.48288  1.0000
  H   H781      1.0  0.44774  0.72451  0.35334  1.0000
  C   C448      1.0  0.20284  0.55872  0.39914  1.0000
  C   C449      1.0  0.17099  0.59141  0.36871  1.0000
  C   C450      1.0  0.12668  0.53918  0.48645  1.0000
  H   H782      1.0  0.46839  0.83761  0.41214  1.0000
  H   H783      1.0  0.32791  0.83686  0.50461  1.0000
  H   H784      1.0  0.38577  0.85931  0.50651  1.0000
  H   H785      1.0  0.02920  0.54154  0.35350  1.0000
  H   H786      1.0  0.44019  0.81218  0.38867  1.0000
  H   H787      1.0  0.43437  0.90768  0.42563  1.0000
  C   C451      1.0  0.47670  0.73987  0.30084  1.0000
  H   H788      1.0  0.48592  0.73167  0.33376  1.0000
  H   H789      1.0  0.28008  0.53771  0.46464  1.0000
  C   C452      1.0  0.11691  0.53589  0.47073  1.0000
  H   H790      1.0  0.24244  0.59627  0.48181  1.0000
  S   S123      1.0  0.09857  0.51958  0.33781  1.0000
  H   H791      1.0  0.24219  0.58801  0.46092  1.0000
  S   S124      1.0  0.50485  0.76564  0.32443  1.0000
  H   H792      1.0  0.08506  0.60109  0.50301  1.0000
  C   C453      1.0  0.40677  0.99826  0.48371  1.0000
  H   H793      1.0  0.04666  0.57610  0.46961  1.0000
  C   C454      1.0  0.40962  0.51740  0.27359  1.0000
  H   H794      1.0  0.48670  0.92713  0.32666  1.0000
  C   C455      1.0  0.44154  0.97814  0.39340  1.0000
  H   H795      1.0  0.48331  0.98253  0.30562  1.0000
  H   H796      1.0  0.02663  0.67198  0.46445  1.0000
  H   H797      1.0  0.16413  0.54940  0.42654  1.0000
  C   C456      1.0  0.49931  0.98059  0.36290  1.0000
  H   H798      1.0  0.49452  0.99042  0.45211  1.0000
  H   H799      1.0  0.49626  0.92232  0.29741  1.0000
  C   C457      1.0  0.34733  0.86556  0.48625  1.0000
  S   S125      1.0  0.06903  0.61393  0.47008  1.0000
  H   H800      1.0  0.40976  0.95552  0.44636  1.0000
  H   H801      1.0  0.45643  0.76369  0.29341  1.0000
  C   C458      1.0  0.02638  0.54690  0.48294  1.0000
  H   H802      1.0  0.45482  0.98334  0.39164  1.0000
  C   C459      1.0  0.03087  0.54372  0.45030  1.0000
  H   H803      1.0  0.42978  0.72267  0.29899  1.0000
  H   H804      1.0  0.13665  0.52736  0.49081  1.0000
  H   H805      1.0  0.25819  0.54898  0.47085  1.0000
  S   S126      1.0  0.14831  0.59288  0.50395  1.0000
  H   H806      1.0  0.21309  0.62556  0.46934  1.0000
  H   H807      1.0  0.03464  0.53314  0.48408  1.0000
  C   C460      1.0  0.27164  0.55142  0.46328  1.0000
  H   H808      1.0  0.20848  0.52603  0.35446  1.0000
  H   H809      1.0  0.10853  0.54913  0.46647  1.0000
  S   S127      1.0  0.40119  0.94027  0.49818  1.0000
  C   C461      1.0  0.42541  0.85818  0.41313  1.0000
  H   H810      1.0  0.36227  0.55471  0.25907  1.0000
  H   H811      1.0  0.50132  0.88804  0.46055  1.0000
  H   H812      1.0  0.44213  0.84312  0.43248  1.0000
  H   H813      1.0  0.48589  0.98911  0.28154  1.0000
  H   H814      1.0  0.49942  0.76144  0.47240  1.0000
  H   H815      1.0  0.28208  0.55398  0.43395  1.0000
  H   H816      1.0  0.07475  0.55830  0.46780  1.0000
  H   H817      1.0  0.33810  0.86820  0.45967  1.0000
  H   H818      1.0  0.38214  0.52448  0.26714  1.0000
  S   S128      1.0  0.24964  0.61942  0.50826  1.0000
  C   C462      1.0  0.01307  0.53620  0.44928  1.0000
  C   C463      1.0  0.01390  0.57219  0.46167  1.0000
  H   H819      1.0  0.44889  0.73232  0.28608  1.0000
  C   C464      1.0  0.49915  0.77436  0.46292  1.0000
  H   H820      1.0  0.01328  0.62571  0.39775  1.0000
  H   H821      1.0  0.01593  0.59320  0.40043  1.0000
  C   C465      1.0  0.50118  0.95108  0.32267  1.0000
  C   C466      1.0  0.50257  0.96345  0.28959  1.0000
  H   H822      1.0  0.46818  0.95838  0.50500  1.0000
  C   C467      1.0  0.07623  0.51345  0.50174  1.0000
  H   H823      1.0  0.01199  0.54407  0.48624  1.0000
  H   H824      1.0  0.18697  0.66767  0.50230  1.0000
  C   C468      1.0  0.50609  0.99599  0.45600  1.0000
  C   C469      1.0  0.01477  0.58419  0.44297  1.0000
  H   H825      1.0  0.28861  0.60718  0.50482  1.0000
  C   C470      1.0  0.48330  0.95655  0.50293  1.0000
  H   H826      1.0  0.16013  0.65633  0.49747  1.0000
  H   H827      1.0  0.09510  0.51561  0.43326  1.0000
  H   H828      1.0  0.47877  0.70670  0.28615  1.0000
  C   C471      1.0  0.15582  0.64338  0.50468  1.0000
  C   C472      1.0  0.10246  0.51514  0.44520  1.0000
  C   C473      1.0  0.00726  0.60055  0.39019  1.0000
  C   C474      1.0  0.13848  0.50997  0.46062  1.0000
  C   C475      1.0  0.07851  0.57411  0.50859  1.0000
  H   H829      1.0  0.46665  0.00075  0.50734  1.0000
  S   S129      1.0  0.39921  0.92057  0.54987  1.0000
  Fe  Fe66      1.0  0.46788  0.96649  0.58300  1.0000
  S   S130      1.0  0.48828  0.95341  0.60165  1.0000
  S   S131      1.0  0.43823  0.96536  0.59347  1.0000
  H   H830      1.0  0.43725  0.92078  0.55197  1.0000
  S   S132      1.0  0.40752  0.52635  0.68867  1.0000
  H   H831      1.0  0.44957  0.61512  0.64935  1.0000
  C   C476      1.0  0.31308  0.56357  0.68180  1.0000
  C   C477      1.0  0.42488  0.83011  0.51827  1.0000
  S   S133      1.0  0.48264  0.95418  0.55832  1.0000
  S   S134      1.0  0.47976  0.99291  0.57560  1.0000
  H   H832      1.0  0.17600  0.51936  0.54019  1.0000
  H   H833      1.0  0.18838  0.53548  0.68610  1.0000
  C   C478      1.0  0.05725  0.57710  0.55269  1.0000
  C   C479      1.0  0.46067  0.87568  0.63855  1.0000
  C   C480      1.0  0.31650  0.51480  0.66561  1.0000
  C   C481      1.0  0.44300  0.99303  0.52567  1.0000
  H   H834      1.0  0.32091  0.53318  0.62103  1.0000
  Fe  Fe67      1.0  0.10177  0.53566  0.57536  1.0000
  S   S135      1.0  0.09654  0.56617  0.57387  1.0000
  H   H835      1.0  0.30808  0.58982  0.66379  1.0000
  S   S136      1.0  0.50368  0.99287  0.52462  1.0000
  H   H836      1.0  0.43243  0.85799  0.53051  1.0000
  H   H837      1.0  0.45259  0.93781  0.56954  1.0000
  H   H838      1.0  0.23155  0.55745  0.66243  1.0000
  H   H839      1.0  0.48603  0.71432  0.69271  1.0000
  H   H840      1.0  0.45749  0.88674  0.64731  1.0000
  C   C482      1.0  0.02747  0.60894  0.52479  1.0000
  H   H841      1.0  0.44376  0.99143  0.56083  1.0000
  H   H842      1.0  0.02644  0.62374  0.51956  1.0000
  Fe  Fe68      1.0  0.28340  0.53730  0.57485  1.0000
  S   S137      1.0  0.29767  0.55806  0.55495  1.0000
  C   C483      1.0  0.48349  0.64233  0.66585  1.0000
  S   S138      1.0  0.26649  0.54271  0.60146  1.0000
  C   C484      1.0  0.50453  0.86096  0.58408  1.0000
  Fe  Fe69      1.0  0.40883  0.55096  0.70225  1.0000
  S   S139      1.0  0.12968  0.52324  0.56407  1.0000
  S   S140      1.0  0.43249  0.56691  0.69185  1.0000
  Fe  Fe70      1.0  0.37731  0.53565  0.68958  1.0000
  H   H843      1.0  0.37978  0.50957  0.63467  1.0000
  H   H844      1.0  0.25076  0.55112  0.64564  1.0000
  C   C485      1.0  0.30798  0.64885  0.51689  1.0000
  Fe  Fe71      1.0  0.48495  0.81481  0.58820  1.0000
  Fe  Fe72      1.0  0.48585  0.77618  0.61068  1.0000
  S   S141      1.0  0.47324  0.84509  0.58468  1.0000
  Fe  Fe73      1.0  0.48244  0.78162  0.56971  1.0000
  C   C486      1.0  0.48532  0.73883  0.65004  1.0000
  S   S142      1.0  0.47501  0.77370  0.54404  1.0000
  H   H845      1.0  0.30683  0.61953  0.52717  1.0000
  C   C487      1.0  0.12631  0.59794  0.53603  1.0000
  H   H846      1.0  0.48746  0.96493  0.51219  1.0000
  S   S143      1.0  0.46547  0.79377  0.59355  1.0000
  H   H847      1.0  0.29636  0.59010  0.70464  1.0000
  C   C488      1.0  0.49513  0.70280  0.66766  1.0000
  S   S144      1.0  0.47342  0.66831  0.72746  1.0000
  H   H848      1.0  0.31910  0.65750  0.51466  1.0000
  Fe  Fe74      1.0  0.40100  0.51265  0.71721  1.0000
  H   H849      1.0  0.47014  0.65806  0.68722  1.0000
  Fe  Fe75      1.0  0.47784  0.63758  0.73238  1.0000
  S   S145      1.0  0.45250  0.62348  0.73851  1.0000
  H   H850      1.0  0.37130  0.82979  0.52757  1.0000
  C   C489      1.0  0.33982  0.53414  0.64002  1.0000
  H   H851      1.0  0.49377  0.72718  0.62499  1.0000
  H   H852      1.0  0.43395  0.61758  0.66966  1.0000
  H   H853      1.0  0.32531  0.55907  0.67224  1.0000
  C   C490      1.0  0.32865  0.84041  0.53245  1.0000
  S   S146      1.0  0.50256  0.63474  0.71131  1.0000
  H   H854      1.0  0.39823  0.90144  0.61762  1.0000
  H   H855      1.0  0.35724  0.85643  0.53017  1.0000
  H   H856      1.0  0.41694  0.97165  0.51931  1.0000
  H   H857      1.0  0.34421  0.58244  0.71717  1.0000
  C   C491      1.0  0.41611  0.98367  0.54481  1.0000
  S   S147      1.0  0.08669  0.52159  0.55911  1.0000
  C   C492      1.0  0.21560  0.52606  0.67301  1.0000
  C   C493      1.0  0.41665  0.77764  0.53099  1.0000
  C   C494      1.0  0.48303  0.73489  0.66921  1.0000
  S   S148      1.0  0.39423  0.77918  0.52577  1.0000
  C   C495      1.0  0.45238  0.77516  0.53958  1.0000
  C   C496      1.0  0.43747  0.78016  0.55237  1.0000
  C   C497      1.0  0.41962  0.78143  0.54806  1.0000
  H   H858      1.0  0.45745  0.93389  0.62088  1.0000
  H   H859      1.0  0.43968  0.78282  0.56564  1.0000
  H   H860      1.0  0.40809  0.78513  0.55804  1.0000
  C   C498      1.0  0.43841  0.58168  0.70567  1.0000
  C   C499      1.0  0.45546  0.58796  0.70151  1.0000
  C   C500      1.0  0.46022  0.60043  0.71175  1.0000
  C   C501      1.0  0.44780  0.60687  0.72606  1.0000
  C   C502      1.0  0.43086  0.60039  0.73038  1.0000
  C   C503      1.0  0.42619  0.58777  0.72028  1.0000
  H   H861      1.0  0.46503  0.58311  0.69034  1.0000
  H   H862      1.0  0.47345  0.60504  0.70857  1.0000
  H   H863      1.0  0.27963  0.63233  0.54057  1.0000
  H   H864      1.0  0.41303  0.58298  0.72360  1.0000
  H   H865      1.0  0.23321  0.56902  0.63957  1.0000
  C   C504      1.0  0.49235  0.72453  0.63972  1.0000
  S   S149      1.0  0.47922  0.76175  0.63981  1.0000
  C   C505      1.0  0.34412  0.52938  0.65795  1.0000
  H   H866      1.0  0.45738  0.64484  0.64636  1.0000
  H   H867      1.0  0.27161  0.68165  0.52545  1.0000
  C   C506      1.0  0.27699  0.64457  0.53033  1.0000
  H   H868      1.0  0.42334  0.64934  0.71760  1.0000
  C   C507      1.0  0.12680  0.56927  0.52442  1.0000
  C   C508      1.0  0.26308  0.60200  0.52075  1.0000
  H   H869      1.0  0.27087  0.54802  0.51773  1.0000
  C   C509      1.0  0.29249  0.58542  0.52687  1.0000
  C   C510      1.0  0.28408  0.57460  0.54175  1.0000
  C   C511      1.0  0.26512  0.57737  0.54600  1.0000
  C   C512      1.0  0.25466  0.59116  0.53560  1.0000
  H   H870      1.0  0.27395  0.65790  0.56930  1.0000
  H   H871      1.0  0.41879  0.82839  0.53271  1.0000
  H   H872      1.0  0.25855  0.56905  0.55747  1.0000
  H   H873      1.0  0.24003  0.59341  0.53914  1.0000
  C   C513      1.0  0.10958  0.57449  0.55379  1.0000
  C   C514      1.0  0.11516  0.56340  0.53989  1.0000
  H   H874      1.0  0.20963  0.61630  0.53428  1.0000
  C   C515      1.0  0.44939  0.77147  0.52252  1.0000
  C   C516      1.0  0.28200  0.59897  0.51627  1.0000
  C   C517      1.0  0.11478  0.59196  0.55167  1.0000
  H   H875      1.0  0.11058  0.55024  0.54105  1.0000
  H   H876      1.0  0.30981  0.66381  0.54586  1.0000
  C   C518      1.0  0.18272  0.53025  0.59290  1.0000
  H   H877      1.0  0.11040  0.60059  0.56237  1.0000
  H   H878      1.0  0.04401  0.57436  0.54959  1.0000
  C   C519      1.0  0.03394  0.51277  0.59118  1.0000
  H   H879      1.0  0.36228  0.81189  0.51945  1.0000
  N   N37       1.0  0.42696  0.99946  0.53915  1.0000
  H   H880      1.0  0.05030  0.60610  0.55267  1.0000
  C   C520      1.0  0.06109  0.59670  0.54548  1.0000
  C   C521      1.0  0.40690  0.97806  0.52978  1.0000
  H   H881      1.0  0.23195  0.53948  0.62769  1.0000
  H   H882      1.0  0.34870  0.54180  0.63000  1.0000
  C   C522      1.0  0.21499  0.51176  0.64512  1.0000
  H   H883      1.0  0.21164  0.54919  0.63936  1.0000
  C   C523      1.0  0.32955  0.55220  0.70759  1.0000
  C   C524      1.0  0.48738  0.89634  0.57337  1.0000
  C   C525      1.0  0.47816  0.88106  0.57464  1.0000
  H   H884      1.0  0.46097  0.81246  0.54562  1.0000
  H   H885      1.0  0.48457  0.65296  0.65393  1.0000
  H   H886      1.0  0.30782  0.54126  0.72790  1.0000
  H   H887      1.0  0.34808  0.60113  0.70012  1.0000
  H   H888      1.0  0.41986  0.84387  0.51154  1.0000
  C   C526      1.0  0.41022  0.93152  0.56325  1.0000
  C   C527      1.0  0.39997  0.94227  0.57600  1.0000
  C   C528      1.0  0.40872  0.95214  0.58579  1.0000
  C   C529      1.0  0.42773  0.95110  0.58298  1.0000
  C   C530      1.0  0.43797  0.93947  0.57106  1.0000
  C   C531      1.0  0.42924  0.92982  0.56108  1.0000
  H   H889      1.0  0.38525  0.94348  0.57783  1.0000
  H   H890      1.0  0.40072  0.96103  0.59510  1.0000
  H   H891      1.0  0.42041  0.64824  0.68449  1.0000
  C   C532      1.0  0.04594  0.59847  0.51759  1.0000
  H   H892      1.0  0.45452  0.86270  0.55147  1.0000
  H   H893      1.0  0.42475  0.67072  0.70354  1.0000
  Fe  Fe76      1.0  0.24785  0.52469  0.59410  1.0000
  C   C533      1.0  0.31855  0.53674  0.71699  1.0000
  H   H894      1.0  0.15787  0.51496  0.52965  1.0000
  H   H895      1.0  0.46720  0.63484  0.69105  1.0000
  C   C534      1.0  0.17087  0.63092  0.51441  1.0000
  H   H896      1.0  0.32811  0.85153  0.54094  1.0000
  H   H897      1.0  0.45462  0.86353  0.64590  1.0000
  H   H898      1.0  0.30039  0.64369  0.55425  1.0000
  S   S150      1.0  0.36365  0.53704  0.66378  1.0000
  H   H899      1.0  0.48069  0.90990  0.56919  1.0000
  C   C535      1.0  0.20005  0.60705  0.53236  1.0000
  C   C536      1.0  0.48645  0.86338  0.58057  1.0000
  H   H900      1.0  0.46976  0.86997  0.53136  1.0000
  C   C537      1.0  0.50529  0.89399  0.57740  1.0000
  H   H901      1.0  0.08067  0.62651  0.54138  1.0000
  H   H902      1.0  0.05646  0.57517  0.56781  1.0000
  H   H903      1.0  0.30065  0.59192  0.73356  1.0000
  C   C538      1.0  0.47509  0.83664  0.51705  1.0000
  H   H904      1.0  0.39806  0.96753  0.53606  1.0000
  C   C539      1.0  0.33246  0.51945  0.67070  1.0000
  H   H905      1.0  0.20603  0.59298  0.53746  1.0000
  C   C540      1.0  0.44589  0.82655  0.51575  1.0000
  C   C541      1.0  0.08044  0.62865  0.52641  1.0000
  H   H906      1.0  0.18034  0.54501  0.59023  1.0000
  H   H907      1.0  0.40306  0.91266  0.63587  1.0000
  N   N38       1.0  0.31877  0.56902  0.69857  1.0000
  H   H908      1.0  0.34044  0.54619  0.69745  1.0000
  H   H909      1.0  0.03268  0.51041  0.55006  1.0000
  H   H910      1.0  0.34359  0.57766  0.68337  1.0000
  H   H911      1.0  0.44513  0.65683  0.71082  1.0000
  H   H912      1.0  0.31766  0.57236  0.73476  1.0000
  H   H913      1.0  0.13075  0.61124  0.53460  1.0000
  H   H914      1.0  0.44544  0.67978  0.68007  1.0000
  C   C542      1.0  0.20020  0.52140  0.59580  1.0000
  Fe  Fe77      1.0  0.49161  0.66659  0.74918  1.0000
  C   C543      1.0  0.43186  0.65658  0.70616  1.0000
  H   H915      1.0  0.27737  0.63911  0.51717  1.0000
  H   H916      1.0  0.33722  0.55543  0.71790  1.0000
  C   C544      1.0  0.31213  0.51970  0.64767  1.0000
  C   C545      1.0  0.43404  0.64640  0.68931  1.0000
  S   S151      1.0  0.49409  0.63633  0.75548  1.0000
  H   H917      1.0  0.19188  0.54565  0.66308  1.0000
  H   H918      1.0  0.49623  0.64115  0.67208  1.0000
  C   C546      1.0  0.45636  0.82734  0.54562  1.0000
  H   H919      1.0  0.47576  0.87231  0.63676  1.0000
  C   C547      1.0  0.06341  0.62236  0.52121  1.0000
  C   C548      1.0  0.45544  0.86827  0.53682  1.0000
  C   C549      1.0  0.25694  0.65284  0.53520  1.0000
  H   H920      1.0  0.28795  0.58324  0.67865  1.0000
  H   H921      1.0  0.44759  0.88222  0.53595  1.0000
  C   C550      1.0  0.43850  0.82882  0.55900  1.0000
  H   H922      1.0  0.05151  0.63027  0.52865  1.0000
  H   H923      1.0  0.33914  0.82898  0.53637  1.0000
  H   H924      1.0  0.27393  0.67937  0.55446  1.0000
  H   H925      1.0  0.39806  0.98965  0.52315  1.0000
  H   H926      1.0  0.13175  0.56034  0.51413  1.0000
  Fe  Fe78      1.0  0.28237  0.51675  0.61360  1.0000
  C   C551      1.0  0.46699  0.64690  0.68035  1.0000
  H   H927      1.0  0.25182  0.66189  0.52334  1.0000
  H   H928      1.0  0.39275  0.89219  0.64087  1.0000
  C   C552      1.0  0.49732  0.70671  0.64847  1.0000
  C   C553      1.0  0.33764  0.59236  0.70681  1.0000
  C   C554      1.0  0.13252  0.58643  0.52257  1.0000
  Fe  Fe79      1.0  0.49697  0.97897  0.55309  1.0000
  H   H929      1.0  0.48720  0.80864  0.52694  1.0000
  H   H930      1.0  0.18687  0.61000  0.54109  1.0000
  C   C555      1.0  0.30198  0.57619  0.71064  1.0000
  C   C556      1.0  0.30090  0.57822  0.67052  1.0000
  H   H931      1.0  0.43097  0.81717  0.55898  1.0000
  H   H932      1.0  0.42932  0.84175  0.55661  1.0000
  H   H933      1.0  0.44189  0.82847  0.57303  1.0000
  H   H934      1.0  0.20249  0.55296  0.68033  1.0000
  S   S152      1.0  0.50106  0.76238  0.58707  1.0000
  C   C557      1.0  0.29691  0.65775  0.54720  1.0000
  C   C558      1.0  0.28266  0.66761  0.56089  1.0000
  H   H935      1.0  0.45106  0.98034  0.53176  1.0000
  H   H936      1.0  0.48469  0.93203  0.52174  1.0000
  H   H937      1.0  0.45814  0.61490  0.67051  1.0000
  H   H938      1.0  0.06850  0.56682  0.54779  1.0000
  C   C559      1.0  0.44663  0.64223  0.65801  1.0000
  S   S153      1.0  0.37927  0.56157  0.70081  1.0000
  H   H939      1.0  0.15477  0.52726  0.59154  1.0000
  C   C560      1.0  0.09072  0.51360  0.51162  1.0000
  H   H940      1.0  0.20356  0.64176  0.51587  1.0000
  C   C561      1.0  0.23582  0.55550  0.64794  1.0000
  H   H941      1.0  0.47750  0.74577  0.67737  1.0000
  C   C562      1.0  0.33119  0.58342  0.69207  1.0000
  C   C563      1.0  0.48787  0.71703  0.67797  1.0000
  H   H942      1.0  0.09024  0.52428  0.52002  1.0000
  S   S154      1.0  0.35291  0.55563  0.75010  1.0000
  C   C564      1.0  0.45673  0.68084  0.65229  1.0000
  H   H943      1.0  0.32450  0.59504  0.68328  1.0000
  N   N39       1.0  0.43722  0.89504  0.61884  1.0000
  C   C565      1.0  0.43310  0.89903  0.59941  1.0000
  C   C566      1.0  0.43988  0.91278  0.62481  1.0000
  C   C567      1.0  0.42178  0.88731  0.63133  1.0000
  C   C568      1.0  0.45411  0.88118  0.61962  1.0000
  C   C569      1.0  0.42720  0.88327  0.59146  1.0000
  C   C570      1.0  0.07967  0.59235  0.51546  1.0000
  C   C571      1.0  0.40300  0.89925  0.63121  1.0000
  H   H944      1.0  0.49541  0.90340  0.53105  1.0000
  H   H945      1.0  0.42221  0.91089  0.59780  1.0000
  H   H946      1.0  0.44518  0.90327  0.59015  1.0000
  H   H947      1.0  0.43881  0.91180  0.63992  1.0000
  H   H948      1.0  0.42880  0.92389  0.62106  1.0000
  H   H949      1.0  0.42038  0.87349  0.62826  1.0000
  H   H950      1.0  0.42467  0.88508  0.64573  1.0000
  H   H951      1.0  0.45200  0.86819  0.61517  1.0000
  H   H952      1.0  0.46570  0.88560  0.60971  1.0000
  H   H953      1.0  0.42497  0.88804  0.57705  1.0000
  H   H954      1.0  0.43777  0.87112  0.59123  1.0000
  H   H955      1.0  0.41413  0.87923  0.59871  1.0000
  H   H956      1.0  0.42121  0.60525  0.74149  1.0000
  H   H957      1.0  0.02580  0.54874  0.51182  1.0000
  S   S155      1.0  0.26363  0.52156  0.56649  1.0000
  H   H958      1.0  0.01160  0.53470  0.59394  1.0000
  H   H959      1.0  0.47058  0.68069  0.65583  1.0000
  H   H960      1.0  0.31245  0.53053  0.70724  1.0000
  H   H961      1.0  0.07392  0.59814  0.55058  1.0000
  N   N40       1.0  0.06244  0.60208  0.52509  1.0000
  H   H962      1.0  0.28982  0.67351  0.57012  1.0000
  C   C572      1.0  0.28518  0.67568  0.51922  1.0000
  N   N41       1.0  0.44846  0.65187  0.67386  1.0000
  H   H963      1.0  0.46440  0.88300  0.57135  1.0000
  H   H964      1.0  0.29098  0.56759  0.71107  1.0000
  C   C573      1.0  0.01535  0.52022  0.59318  1.0000
  C   C574      1.0  0.16818  0.52020  0.59364  1.0000
  Fe  Fe80      1.0  0.49911  0.66583  0.70757  1.0000
  H   H965      1.0  0.32636  0.60150  0.71355  1.0000
  C   C575      1.0  0.45791  0.92013  0.61675  1.0000
  H   H966      1.0  0.14399  0.64702  0.51499  1.0000
  S   S156      1.0  0.21747  0.53490  0.59651  1.0000
  C   C576      1.0  0.19780  0.60772  0.51206  1.0000
  N   N42       1.0  0.29145  0.65698  0.52878  1.0000
  H   H967      1.0  0.09338  0.62190  0.51958  1.0000
  H   H968      1.0  0.30540  0.55169  0.68536  1.0000
  H   H969      1.0  0.43831  0.98928  0.51355  1.0000
  N   N43       1.0  0.22452  0.52394  0.65379  1.0000
  H   H970      1.0  0.22233  0.50952  0.63133  1.0000
  H   H971      1.0  0.30716  0.58324  0.52353  1.0000
  H   H972      1.0  0.24839  0.64160  0.53847  1.0000
  Fe  Fe81      1.0  0.41358  0.92214  0.52122  1.0000
  H   H973      1.0  0.32360  0.62952  0.53611  1.0000
  C   C577      1.0  0.44434  0.67226  0.66859  1.0000
  H   H974      1.0  0.45732  0.67451  0.63970  1.0000
  H   H975      1.0  0.04434  0.52153  0.59026  1.0000
  C   C578      1.0  0.30402  0.57750  0.73074  1.0000
  H   H976      1.0  0.42508  0.97135  0.55007  1.0000
  C   C579      1.0  0.32401  0.52930  0.63487  1.0000
  H   H977      1.0  0.45127  0.69550  0.64910  1.0000
  S   S157      1.0  0.40439  0.53649  0.73083  1.0000
  C   C580      1.0  0.24400  0.51505  0.65453  1.0000
  Fe  Fe82      1.0  0.37474  0.54512  0.72849  1.0000
  S   S158      1.0  0.37072  0.51997  0.71722  1.0000
  H   H978      1.0  0.44972  0.81151  0.51899  1.0000
  H   H979      1.0  0.46985  0.91142  0.62208  1.0000
  C   C581      1.0  0.44723  0.85651  0.52568  1.0000
  H   H980      1.0  0.43355  0.64770  0.65252  1.0000
  S   S159      1.0  0.50063  0.80352  0.56349  1.0000
  H   H981      1.0  0.43002  0.67600  0.66551  1.0000
  H   H982      1.0  0.17298  0.63772  0.52606  1.0000
  H   H983      1.0  0.16455  0.61850  0.52066  1.0000
  H   H984      1.0  0.32796  0.52563  0.72366  1.0000
  S   S160      1.0  0.50166  0.67994  0.67784  1.0000
  H   H985      1.0  0.43693  0.63162  0.69451  1.0000
  H   H986      1.0  0.25166  0.51517  0.64058  1.0000
  H   H987      1.0  0.02471  0.60699  0.53989  1.0000
  H   H988      1.0  0.32739  0.62439  0.51320  1.0000
  C   C582      1.0  0.44716  0.62128  0.66228  1.0000
  S   S161      1.0  0.29143  0.51413  0.64213  1.0000
  N   N44       1.0  0.45570  0.83675  0.52638  1.0000
  H   H989      1.0  0.48343  0.62898  0.66110  1.0000
  S   S162      1.0  0.30054  0.51251  0.58736  1.0000
  H   H990      1.0  0.08007  0.64356  0.52195  1.0000
  H   H991      1.0  0.19258  0.53160  0.63444  1.0000
  C   C583      1.0  0.19879  0.54094  0.67531  1.0000
  H   H992      1.0  0.50276  0.69581  0.64031  1.0000
  H   H993      1.0  0.07223  0.56413  0.51913  1.0000
  S   S163      1.0  0.09947  0.51514  0.60066  1.0000
  Fe  Fe83      1.0  0.50151  0.97894  0.59231  1.0000
  H   H994      1.0  0.44822  0.86320  0.51127  1.0000
  H   H995      1.0  0.25463  0.66028  0.54720  1.0000
  H   H996      1.0  0.22561  0.52943  0.68117  1.0000
  H   H997      1.0  0.29419  0.56969  0.74017  1.0000
  H   H998      1.0  0.48337  0.84286  0.52500  1.0000
  H   H999      1.0  0.40528  0.98603  0.55633  1.0000
  Fe  Fe84      1.0  0.50367  0.94214  0.57663  1.0000
  H   H1000     1.0  0.09075  0.58989  0.52417  1.0000
  H   H1001     1.0  0.46701  0.83189  0.55209  1.0000
  C   C584      1.0  0.22530  0.54192  0.64163  1.0000
  C   C585      1.0  0.31672  0.62947  0.52400  1.0000
  H   H1002     1.0  0.46003  0.92172  0.60164  1.0000
  H   H1003     1.0  0.29716  0.57187  0.65931  1.0000
  H   H1004     1.0  0.31530  0.83517  0.53592  1.0000
  C   C586      1.0  0.45651  0.00679  0.51802  1.0000
  H   H1005     1.0  0.25144  0.52291  0.66179  1.0000
  H   H1006     1.0  0.04438  0.58376  0.52006  1.0000
  H   H1007     1.0  0.41176  0.99934  0.57761  1.0000
  C   C587      1.0  0.43160  0.77269  0.51824  1.0000
  H   H1008     1.0  0.18614  0.51833  0.65642  1.0000
  H   H1009     1.0  0.41973  0.82001  0.51151  1.0000
  H   H1010     1.0  0.33565  0.51547  0.68447  1.0000
  H   H1011     1.0  0.01639  0.60373  0.51961  1.0000
  S   S164      1.0  0.50385  0.79847  0.60721  1.0000
  H   H1012     1.0  0.29192  0.70321  0.51069  1.0000
  C   C588      1.0  0.19477  0.51821  0.64302  1.0000
  H   H1013     1.0  0.29862  0.69360  0.53241  1.0000
  H   H1014     1.0  0.21145  0.51283  0.68003  1.0000
  H   H1015     1.0  0.00836  0.52242  0.52044  1.0000
  C   C589      1.0  0.29772  0.69038  0.51861  1.0000
  H   H1016     1.0  0.46087  0.76745  0.51262  1.0000
  H   H1017     1.0  0.32035  0.85944  0.51004  1.0000
  C   C590      1.0  0.43460  0.00359  0.55539  1.0000
  C   C591      1.0  0.33130  0.84760  0.51192  1.0000
  C   C592      1.0  0.37492  0.87069  0.50974  1.0000
  S   S165      1.0  0.44115  0.93139  0.51360  1.0000
  C   C593      1.0  0.48579  0.81768  0.51394  1.0000
  H   H1018     1.0  0.37903  0.87704  0.52074  1.0000
  C   C594      1.0  0.37043  0.82341  0.51541  1.0000
  H   H1019     1.0  0.38468  0.81753  0.51091  1.0000
  H   H1020     1.0  0.34612  0.87636  0.51882  1.0000
  H   H1021     1.0  0.18993  0.59641  0.51120  1.0000
  H   H1022     1.0  0.31158  0.68667  0.51155  1.0000
  C   C595      1.0  0.35625  0.86405  0.51640  1.0000
  H   H1023     1.0  0.43963  0.65666  0.82791  1.0000
  Fe  Fe85      1.0  0.41367  0.57071  0.85268  1.0000
  S   S166      1.0  0.38741  0.56455  0.86949  1.0000
  S   S167      1.0  0.42359  0.59795  0.84797  1.0000
  Fe  Fe86      1.0  0.40419  0.53952  0.88221  1.0000
  S   S168      1.0  0.40905  0.52878  0.91147  1.0000
  Fe  Fe87      1.0  0.38611  0.54780  0.84697  1.0000
  H   H1024     1.0  0.49341  0.64869  0.79367  1.0000
  S   S169      1.0  0.43057  0.54715  0.86689  1.0000
  S   S170      1.0  0.41107  0.55619  0.82939  1.0000
  H   H1025     1.0  0.38790  0.55261  0.80190  1.0000
  S   S171      1.0  0.48819  0.61488  0.88807  1.0000
  H   H1026     1.0  0.43810  0.55162  0.93132  1.0000
  H   H1027     1.0  0.39644  0.52040  0.77251  1.0000
  H   H1028     1.0  0.42499  0.61809  0.88058  1.0000
  H   H1029     1.0  0.46862  0.69519  0.83520  1.0000
  H   H1030     1.0  0.40261  0.61756  0.78953  1.0000
  H   H1031     1.0  0.45465  0.65134  0.97700  1.0000
  H   H1032     1.0  0.42958  0.62159  0.96881  1.0000
  C   C596      1.0  0.40513  0.60905  0.92686  1.0000
  H   H1033     1.0  0.43614  0.53663  0.78582  1.0000
  C   C597      1.0  0.37615  0.55719  0.94958  1.0000
  C   C598      1.0  0.47554  0.68985  0.80732  1.0000
  C   C599      1.0  0.48800  0.65878  0.80275  1.0000
  H   H1034     1.0  0.47764  0.55215  0.89890  1.0000
  H   H1035     1.0  0.47126  0.70385  0.80184  1.0000
  H   H1036     1.0  0.42495  0.63380  0.76870  1.0000
  S   S172      1.0  0.42008  0.55848  0.00516  1.0000
  C   C600      1.0  0.43415  0.65914  0.76956  1.0000
  H   H1037     1.0  0.47031  0.64347  0.00547  1.0000
  H   H1038     1.0  0.44203  0.60588  0.91627  1.0000
  C   C601      1.0  0.48662  0.65383  0.82190  1.0000
  S   S173      1.0  0.40042  0.52207  0.86119  1.0000
  S   S174      1.0  0.37579  0.56054  0.98588  1.0000
  C   C602      1.0  0.45875  0.63668  0.97503  1.0000
  H   H1039     1.0  0.46647  0.56083  0.87942  1.0000
  H   H1040     1.0  0.42629  0.66791  0.81024  1.0000
  H   H1041     1.0  0.32792  0.55089  0.78236  1.0000
  H   H1042     1.0  0.40012  0.62170  0.91833  1.0000
  C   C603      1.0  0.42292  0.57896  0.92900  1.0000
  H   H1043     1.0  0.43653  0.66851  0.77879  1.0000
  H   H1044     1.0  0.42234  0.63214  0.89905  1.0000
  C   C604      1.0  0.39917  0.53771  0.93194  1.0000
  H   H1045     1.0  0.39537  0.61784  0.89168  1.0000
  C   C605      1.0  0.40772  0.53187  0.94769  1.0000
  H   H1046     1.0  0.44519  0.64223  0.95016  1.0000
  C   C606      1.0  0.48259  0.67691  0.79544  1.0000
  C   C607      1.0  0.44739  0.59370  0.84576  1.0000
  C   C608      1.0  0.45666  0.57692  0.84108  1.0000
  C   C609      1.0  0.47534  0.57239  0.84243  1.0000
  C   C610      1.0  0.48468  0.58483  0.84822  1.0000
  C   C611      1.0  0.47588  0.60243  0.85045  1.0000
  C   C612      1.0  0.45717  0.60677  0.84963  1.0000
  H   H1047     1.0  0.44936  0.56718  0.83695  1.0000
  H   H1048     1.0  0.48218  0.55897  0.83996  1.0000
  H   H1049     1.0  0.48332  0.61265  0.85330  1.0000
  H   H1050     1.0  0.45026  0.62008  0.85250  1.0000
  C   C613      1.0  0.35963  0.54983  0.81082  1.0000
  C   C614      1.0  0.37489  0.55204  0.79764  1.0000
  C   C615      1.0  0.37322  0.55352  0.77885  1.0000
  C   C616      1.0  0.35626  0.55299  0.77329  1.0000
  C   C617      1.0  0.34110  0.55109  0.78649  1.0000
  H   H1051     1.0  0.41662  0.58290  0.89121  1.0000
  C   C618      1.0  0.34281  0.54937  0.80508  1.0000
  H   H1052     1.0  0.36375  0.56680  0.95035  1.0000
  C   C619      1.0  0.47099  0.54808  0.88818  1.0000
  H   H1053     1.0  0.47087  0.60527  0.99452  1.0000
  H   H1054     1.0  0.41112  0.57213  0.93596  1.0000
  H   H1055     1.0  0.41336  0.61373  0.93606  1.0000
  Fe  Fe88      1.0  0.49791  0.63976  0.87098  1.0000
  H   H1056     1.0  0.44997  0.65892  0.80521  1.0000
  H   H1057     1.0  0.46217  0.62200  0.95073  1.0000
  H   H1058     1.0  0.43590  0.62794  0.82358  1.0000
  C   C620      1.0  0.42867  0.62573  0.98256  1.0000
  H   H1059     1.0  0.49086  0.63989  0.82751  1.0000
  S   S175      1.0  0.36054  0.54751  0.83458  1.0000
  H   H1060     1.0  0.45044  0.56813  0.91714  1.0000
  H   H1061     1.0  0.41598  0.63975  0.81597  1.0000
  H   H1062     1.0  0.37641  0.55477  0.92101  1.0000
  H   H1063     1.0  0.37876  0.60214  0.89932  1.0000
  S   S176      1.0  0.47855  0.66226  0.85775  1.0000
  C   C621      1.0  0.45851  0.63594  0.95456  1.0000
  H   H1064     1.0  0.39319  0.60079  0.87849  1.0000
  C   C622      1.0  0.47984  0.66705  0.83370  1.0000
  C   C623      1.0  0.50106  0.52031  0.90197  1.0000
  H   H1065     1.0  0.46700  0.62430  0.81469  1.0000
  H   H1066     1.0  0.44420  0.62518  0.88732  1.0000
  C   C624      1.0  0.38331  0.55041  0.93294  1.0000
  C   C625      1.0  0.43369  0.60307  0.90610  1.0000
  H   H1067     1.0  0.41178  0.64674  0.78539  1.0000
  S   S177      1.0  0.50455  0.60706  0.93648  1.0000
  H   H1068     1.0  0.40409  0.61497  0.81386  1.0000
  C   C626      1.0  0.48389  0.53497  0.87638  1.0000
  H   H1069     1.0  0.41059  0.61959  0.00827  1.0000
  H   H1070     1.0  0.40821  0.59559  0.80189  1.0000
  H   H1071     1.0  0.45853  0.54208  0.89437  1.0000
  H   H1072     1.0  0.42191  0.64018  0.98120  1.0000
  C   C627      1.0  0.40680  0.58902  0.90215  1.0000
  H   H1073     1.0  0.44259  0.59308  0.89784  1.0000
  H   H1074     1.0  0.48317  0.61741  0.79613  1.0000
  H   H1075     1.0  0.40748  0.53420  0.97622  1.0000
  Fe  Fe89      1.0  0.42555  0.53189  0.84511  1.0000
  C   C628      1.0  0.39288  0.60353  0.89273  1.0000
  H   H1076     1.0  0.46626  0.60323  0.80559  1.0000
  H   H1077     1.0  0.43212  0.55946  0.90899  1.0000
  C   C629      1.0  0.38826  0.60227  0.93892  1.0000
  N   N45       1.0  0.41683  0.59527  0.91568  1.0000
  C   C630      1.0  0.40072  0.53882  0.96422  1.0000
  C   C631      1.0  0.42673  0.52920  0.78051  1.0000
  H   H1078     1.0  0.41419  0.53900  0.77886  1.0000
  S   S178      1.0  0.44824  0.51422  0.83038  1.0000
  C   C632      1.0  0.43672  0.56382  0.92087  1.0000
  H   H1079     1.0  0.38489  0.55549  0.76868  1.0000
  H   H1080     1.0  0.33094  0.54778  0.81512  1.0000
  H   H1081     1.0  0.39896  0.57783  0.90899  1.0000
  C   C633      1.0  0.43073  0.62065  0.89264  1.0000
  H   H1082     1.0  0.37892  0.61412  0.94385  1.0000
  H   H1083     1.0  0.39210  0.59307  0.95126  1.0000
  H   H1084     1.0  0.41543  0.51760  0.80707  1.0000
  H   H1085     1.0  0.42903  0.58327  0.94011  1.0000
  H   H1086     1.0  0.47321  0.63356  0.97743  1.0000
  H   H1087     1.0  0.38047  0.59510  0.93143  1.0000
  H   H1088     1.0  0.46885  0.64416  0.94653  1.0000
  C   C634      1.0  0.38485  0.55147  0.96528  1.0000
  N   N46       1.0  0.43624  0.63044  0.79425  1.0000
  C   C635      1.0  0.43085  0.61145  0.79659  1.0000
  C   C636      1.0  0.45652  0.62858  0.78821  1.0000
  C   C637      1.0  0.42606  0.64204  0.77965  1.0000
  C   C638      1.0  0.43103  0.63792  0.81224  1.0000
  C   C639      1.0  0.41021  0.61018  0.80066  1.0000
  C   C640      1.0  0.46866  0.61767  0.80214  1.0000
  H   H1089     1.0  0.38691  0.51552  0.79576  1.0000
  C   C641      1.0  0.43704  0.65642  0.81370  1.0000
  H   H1090     1.0  0.43608  0.60468  0.78412  1.0000
  H   H1091     1.0  0.43701  0.60254  0.80797  1.0000
  H   H1092     1.0  0.46150  0.64202  0.78452  1.0000
  H   H1093     1.0  0.45988  0.62198  0.77549  1.0000
  H   H1094     1.0  0.47585  0.53251  0.86584  1.0000
  S   S179      1.0  0.48480  0.68456  0.77175  1.0000
  H   H1095     1.0  0.50586  0.59706  0.97472  1.0000
  H   H1096     1.0  0.49502  0.54240  0.86872  1.0000
  H   H1097     1.0  0.43341  0.52554  0.76704  1.0000
  N   N47       1.0  0.49153  0.51716  0.88655  1.0000
  H   H1098     1.0  0.49108  0.52524  0.91340  1.0000
  C   C642      1.0  0.47401  0.68493  0.82626  1.0000
  H   H1099     1.0  0.47203  0.59465  0.96693  1.0000
  C   C643      1.0  0.41529  0.61414  0.99510  1.0000
  C   C644      1.0  0.42292  0.51233  0.79443  1.0000
  H   H1100     1.0  0.41988  0.52192  0.94712  1.0000
  N   N48       1.0  0.44720  0.62467  0.98855  1.0000
  H   H1101     1.0  0.44762  0.59669  0.96735  1.0000
  C   C645      1.0  0.45882  0.59359  0.97580  1.0000
  H   H1102     1.0  0.46706  0.51324  0.90551  1.0000
  H   H1103     1.0  0.45861  0.57904  0.98171  1.0000
  C   C646      1.0  0.44432  0.63227  0.00656  1.0000
  H   H1104     1.0  0.40292  0.61459  0.98844  1.0000
  C   C647      1.0  0.45677  0.60534  0.99149  1.0000
  H   H1105     1.0  0.43605  0.64607  0.00548  1.0000
  H   H1106     1.0  0.45027  0.59756  0.00399  1.0000
  H   H1107     1.0  0.49254  0.51309  0.84801  1.0000
  H   H1108     1.0  0.42115  0.59957  0.99764  1.0000
  H   H1109     1.0  0.42446  0.66697  0.76044  1.0000
  H   H1110     1.0  0.44699  0.65531  0.76061  1.0000
  S   S180      1.0  0.50638  0.57789  0.85496  1.0000
  Fe  Fe90      1.0  0.53391  0.43086  0.02762  1.0000
  H   H1111     1.0  0.54466  0.35217  0.22669  1.0000
  H   H1112     1.0  0.55791  0.29687  0.21403  1.0000
  Fe  Fe91      1.0  0.53434  0.41575  0.06876  1.0000
  H   H1113     1.0  0.56812  0.44552  0.09441  1.0000
  S   S181      1.0  0.54755  0.39368  0.08891  1.0000
  Fe  Fe92      1.0  0.53244  0.45641  0.05659  1.0000
  S   S182      1.0  0.53940  0.48349  0.06120  1.0000
  S   S183      1.0  0.55239  0.43256  0.04829  1.0000
  S   S184      1.0  0.61836  0.46822  0.08364  1.0000
  H   H1114     1.0  0.60957  0.42836  0.24827  1.0000
  H   H1115     1.0  0.55063  0.33698  0.17216  1.0000
  Fe  Fe93      1.0  0.53493  0.39324  0.20009  1.0000
  H   H1116     1.0  0.68988  0.50435  0.15337  1.0000
  S   S185      1.0  0.54685  0.37880  0.17536  1.0000
  Fe  Fe94      1.0  0.54003  0.42248  0.22296  1.0000
  S   S186      1.0  0.55288  0.44865  0.22040  1.0000
  S   S187      1.0  0.65562  0.50072  0.07373  1.0000
  S   S188      1.0  0.55351  0.39368  0.22104  1.0000
  S   S189      1.0  0.52308  0.42256  0.20046  1.0000
  C   C648      1.0  0.60635  0.45727  0.23888  1.0000
  S   S190      1.0  0.51301  0.38235  0.22098  1.0000
  C   C649      1.0  0.58484  0.43669  0.23587  1.0000
  C   C650      1.0  0.57382  0.45125  0.22722  1.0000
  C   C651      1.0  0.57927  0.46873  0.22418  1.0000
  C   C652      1.0  0.59533  0.47178  0.23014  1.0000
  C   C653      1.0  0.57104  0.30030  0.23686  1.0000
  Fe  Fe95      1.0  0.63541  0.48831  0.24673  1.0000
  H   H1117     1.0  0.58927  0.41105  0.13901  1.0000
  C   C654      1.0  0.56185  0.48065  0.06600  1.0000
  C   C655      1.0  0.56657  0.49088  0.07833  1.0000
  C   C656      1.0  0.58418  0.48749  0.08334  1.0000
  C   C657      1.0  0.59696  0.47373  0.07617  1.0000
  C   C658      1.0  0.59231  0.46380  0.06357  1.0000
  C   C659      1.0  0.57487  0.46752  0.05825  1.0000
  H   H1118     1.0  0.55170  0.46978  0.01741  1.0000
  H   H1119     1.0  0.54979  0.42643  0.15065  1.0000
  H   H1120     1.0  0.60223  0.45326  0.05791  1.0000
  H   H1121     1.0  0.57157  0.46026  0.04810  1.0000
  C   C660      1.0  0.54509  0.38380  0.15162  1.0000
  C   C661      1.0  0.53320  0.39834  0.14378  1.0000
  C   C662      1.0  0.53341  0.40170  0.12451  1.0000
  C   C663      1.0  0.54537  0.39038  0.11317  1.0000
  C   C664      1.0  0.55681  0.37577  0.12123  1.0000
  C   C665      1.0  0.55669  0.37254  0.14017  1.0000
  H   H1122     1.0  0.53627  0.31566  0.24720  1.0000
  H   H1123     1.0  0.57526  0.31090  0.20864  1.0000
  H   H1124     1.0  0.56602  0.36690  0.11270  1.0000
  H   H1125     1.0  0.56586  0.36126  0.14597  1.0000
  H   H1126     1.0  0.61498  0.50779  0.17374  1.0000
  N   N49       1.0  0.58042  0.43359  0.11872  1.0000
  H   H1127     1.0  0.60020  0.43575  0.09435  1.0000
  H   H1128     1.0  0.61303  0.46086  0.19820  1.0000
  N   N50       1.0  0.63613  0.47201  0.18184  1.0000
  C   C666      1.0  0.63051  0.48793  0.19274  1.0000
  C   C667      1.0  0.65194  0.46025  0.18998  1.0000
  C   C668      1.0  0.62008  0.46153  0.18395  1.0000
  C   C669      1.0  0.64108  0.47961  0.16216  1.0000
  H   H1129     1.0  0.64150  0.49665  0.19109  1.0000
  C   C670      1.0  0.66954  0.46910  0.18807  1.0000
  S   S191      1.0  0.62684  0.46045  0.24636  1.0000
  C   C671      1.0  0.65031  0.46606  0.14876  1.0000
  H   H1130     1.0  0.62827  0.48301  0.20762  1.0000
  H   H1131     1.0  0.53235  0.32242  0.19895  1.0000
  H   H1132     1.0  0.65596  0.44729  0.18401  1.0000
  H   H1133     1.0  0.64792  0.45592  0.20481  1.0000
  H   H1134     1.0  0.50976  0.33602  0.22065  1.0000
  H   H1135     1.0  0.60972  0.46871  0.17517  1.0000
  H   H1136     1.0  0.62880  0.48692  0.15622  1.0000
  H   H1137     1.0  0.64985  0.49049  0.16103  1.0000
  S   S192      1.0  0.62760  0.50535  0.11244  1.0000
  S   S193      1.0  0.51833  0.41393  0.24566  1.0000
  H   H1138     1.0  0.56853  0.33772  0.18501  1.0000
  C   C672      1.0  0.60111  0.43969  0.24156  1.0000
  H   H1139     1.0  0.63201  0.43992  0.16651  1.0000
  Fe  Fe96      1.0  0.53054  0.38470  0.24225  1.0000
  C   C673      1.0  0.51529  0.33258  0.23386  1.0000
  H   H1140     1.0  0.58207  0.28884  0.23424  1.0000
  H   H1141     1.0  0.52439  0.41295  0.11847  1.0000
  H   H1142     1.0  0.51738  0.34521  0.23884  1.0000
  H   H1143     1.0  0.65898  0.45412  0.15491  1.0000
  H   H1144     1.0  0.65973  0.47314  0.13804  1.0000
  H   H1145     1.0  0.60765  0.41910  0.11216  1.0000
  Fe  Fe97      1.0  0.62781  0.49450  0.08616  1.0000
  C   C674      1.0  0.57278  0.34711  0.21670  1.0000
  H   H1146     1.0  0.63098  0.43262  0.19086  1.0000
  H   H1147     1.0  0.58768  0.49504  0.09330  1.0000
  H   H1148     1.0  0.56657  0.48575  0.01692  1.0000
  H   H1149     1.0  0.58647  0.39815  0.10582  1.0000
  H   H1150     1.0  0.59915  0.48536  0.22797  1.0000
  H   H1151     1.0  0.67465  0.47352  0.17362  1.0000
  H   H1152     1.0  0.55470  0.46831  0.11394  1.0000
  H   H1153     1.0  0.60661  0.45802  0.13894  1.0000
  C   C675      1.0  0.56447  0.42531  0.15189  1.0000
  C   C676      1.0  0.56391  0.43988  0.10884  1.0000
  C   C677      1.0  0.61327  0.50099  0.18800  1.0000
  H   H1154     1.0  0.55647  0.50095  0.08445  1.0000
  H   H1155     1.0  0.57985  0.41494  0.08701  1.0000
  H   H1156     1.0  0.57915  0.35337  0.22630  1.0000
  C   C678      1.0  0.60436  0.44548  0.13375  1.0000
  H   H1157     1.0  0.56731  0.41489  0.16376  1.0000
  C   C679      1.0  0.57651  0.41914  0.13464  1.0000
  H   H1158     1.0  0.68039  0.45885  0.19365  1.0000
  H   H1159     1.0  0.64005  0.46140  0.14190  1.0000
  H   H1160     1.0  0.60286  0.40445  0.08695  1.0000
  H   H1161     1.0  0.57087  0.48001  0.21735  1.0000
  N   N51       1.0  0.54891  0.32460  0.21978  1.0000
  H   H1162     1.0  0.53537  0.34520  0.20071  1.0000
  H   H1163     1.0  0.57640  0.45729  0.13351  1.0000
  H   H1164     1.0  0.52913  0.30580  0.22965  1.0000
  H   H1165     1.0  0.56960  0.35772  0.20511  1.0000
  H   H1166     1.0  0.54489  0.45163  0.13121  1.0000
  H   H1167     1.0  0.56233  0.31599  0.18186  1.0000
  H   H1168     1.0  0.58078  0.42316  0.23829  1.0000
  C   C680      1.0  0.59061  0.40984  0.09593  1.0000
  H   H1169     1.0  0.60324  0.43461  0.14553  1.0000
  H   H1170     1.0  0.58342  0.33632  0.21181  1.0000
  C   C681      1.0  0.54255  0.33090  0.20132  1.0000
  H   H1171     1.0  0.66782  0.48075  0.19604  1.0000
  H   H1172     1.0  0.64483  0.50367  0.02778  1.0000
  C   C682      1.0  0.55530  0.34001  0.22691  1.0000
  H   H1173     1.0  0.53740  0.45650  0.10921  1.0000
  H   H1174     1.0  0.61085  0.43638  0.18016  1.0000
  H   H1175     1.0  0.56964  0.40864  0.13041  1.0000
  H   H1176     1.0  0.56101  0.49557  0.24530  1.0000
  H   H1177     1.0  0.58965  0.46001  0.11226  1.0000
  C   C683      1.0  0.54952  0.45489  0.11652  1.0000
  H   H1178     1.0  0.52400  0.40701  0.15249  1.0000
  H   H1179     1.0  0.55670  0.42815  0.10796  1.0000
  S   S194      1.0  0.66216  0.49635  0.23234  1.0000
  H   H1180     1.0  0.56744  0.43810  0.15581  1.0000
  H   H1181     1.0  0.56062  0.29458  0.24740  1.0000
  H   H1182     1.0  0.57717  0.31059  0.24233  1.0000
  C   C684      1.0  0.59545  0.42514  0.10540  1.0000
  H   H1183     1.0  0.61659  0.44175  0.12394  1.0000
  H   H1184     1.0  0.60092  0.49404  0.19066  1.0000
  C   C685      1.0  0.58697  0.44976  0.12433  1.0000
  C   C686      1.0  0.55708  0.33027  0.18435  1.0000
  C   C687      1.0  0.56334  0.30812  0.21885  1.0000
  C   C688      1.0  0.62402  0.44153  0.17998  1.0000
  H   H1185     1.0  0.55694  0.33667  0.24164  1.0000
  C   C689      1.0  0.53287  0.31870  0.23296  1.0000
  H   H1186     1.0  0.55212  0.46903  0.25745  1.0000
  S   S195      1.0  0.51573  0.43984  0.07834  1.0000
  C   C690      1.0  0.55649  0.50655  0.25414  1.0000
  H   H1187     1.0  0.61274  0.46750  0.02383  1.0000
  C   C691      1.0  0.60604  0.46302  0.01328  1.0000
  H   H1188     1.0  0.59404  0.45676  0.02045  1.0000
  S   S196      1.0  0.51768  0.41136  0.04722  1.0000
  S   S197      1.0  0.51510  0.45579  0.03515  1.0000
  S   S198      1.0  0.67559  0.50915  0.11883  1.0000
  H   H1189     1.0  0.58658  0.31647  0.41978  1.0000
  Fe  Fe98      1.0  0.90665  0.42457  0.45377  1.0000
  S   S199      1.0  0.90287  0.40351  0.47826  1.0000
  S   S200      1.0  0.91524  0.41598  0.42595  1.0000
  Fe  Fe99      1.0  0.90054  0.45566  0.47627  1.0000
  H   H1190     1.0  0.54003  0.01782  0.44228  1.0000
  Fe  Fe100     1.0  0.92058  0.41905  0.49034  1.0000
  H   H1191     1.0  0.65438  0.02241  0.40950  1.0000
  Fe  Fe101     1.0  0.87912  0.42383  0.48780  1.0000
  H   H1192     1.0  0.76317  0.29608  0.47155  1.0000
  S   S201      1.0  0.92583  0.43857  0.46517  1.0000
  S   S202      1.0  0.88162  0.44379  0.46222  1.0000
  H   H1193     1.0  0.68241  0.48975  0.35522  1.0000
  H   H1194     1.0  0.60520  0.05082  0.39251  1.0000
  S   S203      1.0  0.96766  0.46698  0.37676  1.0000
  Fe  Fe102     1.0  0.61781  0.10335  0.44574  1.0000
  S   S204      1.0  0.59776  0.09684  0.47029  1.0000
  S   S205      1.0  0.63435  0.08231  0.42891  1.0000
  Fe  Fe103     1.0  0.60992  0.14464  0.44749  1.0000
  S   S206      1.0  0.58902  0.14132  0.47209  1.0000
  S   S207      1.0  0.61200  0.17338  0.43365  1.0000
  C   C692      1.0  0.87894  0.47060  0.38702  1.0000
  Fe  Fe104     1.0  0.57967  0.12084  0.45799  1.0000
  S   S208      1.0  0.55015  0.12146  0.45557  1.0000
  H   H1195     1.0  0.87366  0.44360  0.36909  1.0000
  S   S209      1.0  0.59884  0.12589  0.43243  1.0000
  Fe  Fe105     1.0  0.52428  0.09798  0.35848  1.0000
  H   H1196     1.0  0.73077  0.49367  0.34043  1.0000
  S   S210      1.0  0.53523  0.12472  0.34581  1.0000
  Fe  Fe106     1.0  0.51977  0.05746  0.35644  1.0000
  C   C693      1.0  0.60624  0.33785  0.43672  1.0000
  S   S211      1.0  0.52779  0.03166  0.34248  1.0000
  Fe  Fe107     1.0  0.52884  0.06823  0.39112  1.0000
  S   S212      1.0  0.54400  0.05583  0.41460  1.0000
  S   S213      1.0  0.54271  0.07096  0.36239  1.0000
  Fe  Fe108     1.0  0.63950  0.29351  0.47112  1.0000
  S   S214      1.0  0.60952  0.29775  0.48191  1.0000
  S   S215      1.0  0.65347  0.31928  0.46181  1.0000
  Fe  Fe109     1.0  0.63898  0.25238  0.47140  1.0000
  S   S216      1.0  0.60930  0.25391  0.48189  1.0000
  S   S217      1.0  0.65400  0.22418  0.46838  1.0000
  Fe  Fe110     1.0  0.60602  0.27924  0.46195  1.0000
  S   S218      1.0  0.58102  0.28654  0.44733  1.0000
  C   C694      1.0  0.61638  0.05133  0.43841  1.0000
  S   S219      1.0  0.63544  0.27649  0.44973  1.0000
  C   C695      1.0  0.64502  0.04865  0.41856  1.0000
  C   C696      1.0  0.59438  0.32216  0.40685  1.0000
  H   H1197     1.0  0.57924  0.11379  0.33624  1.0000
  H   H1198     1.0  0.60314  0.48207  0.28794  1.0000
  H   H1199     1.0  0.71103  0.44666  0.35029  1.0000
  H   H1200     1.0  0.67823  0.48809  0.32665  1.0000
  Fe  Fe111     1.0  0.54390  0.25487  0.36874  1.0000
  S   S220      1.0  0.52659  0.28215  0.36436  1.0000
  S   S221      1.0  0.57177  0.25016  0.37827  1.0000
  H   H1201     1.0  0.56762  0.02038  0.42254  1.0000
  C   C697      1.0  0.99514  0.42255  0.42317  1.0000
  H   H1202     1.0  0.53261  0.10170  0.48735  1.0000
  S   S222      1.0  0.52211  0.24141  0.38712  1.0000
  S   S223      1.0  0.53793  0.24503  0.34333  1.0000
  H   H1203     1.0  0.63566  0.19595  0.49877  1.0000
  Fe  Fe112     1.0  0.73715  0.40597  0.50890  1.0000
  S   S224      1.0  0.76771  0.46449  0.37992  1.0000
  Fe  Fe113     1.0  0.76395  0.39341  0.47688  1.0000
  S   S225      1.0  0.75162  0.42097  0.48420  1.0000
  S   S226      1.0  0.79352  0.38914  0.46447  1.0000
  Fe  Fe114     1.0  0.72771  0.37730  0.48735  1.0000
  S   S227      1.0  0.93972  0.50804  0.34955  1.0000
  H   H1204     1.0  0.79261  0.31698  0.48715  1.0000
  Fe  Fe115     1.0  0.72854  0.41687  0.47010  1.0000
  S   S228      1.0  0.71618  0.44100  0.45208  1.0000
  H   H1205     1.0  0.51555  0.26334  0.49598  1.0000
  S   S229      1.0  0.74177  0.39014  0.46081  1.0000
  Fe  Fe116     1.0  0.51875  0.27181  0.34024  1.0000
  C   C698      1.0  0.51145  0.14995  0.36519  1.0000
  C   C699      1.0  0.75307  0.45815  0.39979  1.0000
  C   C700      1.0  0.73965  0.47092  0.40765  1.0000
  C   C701      1.0  0.72798  0.46541  0.42336  1.0000
  C   C702      1.0  0.73020  0.44728  0.43177  1.0000
  C   C703      1.0  0.74374  0.43454  0.42402  1.0000
  C   C704      1.0  0.75491  0.43990  0.40788  1.0000
  H   H1206     1.0  0.73810  0.48499  0.40162  1.0000
  H   H1207     1.0  0.71751  0.47532  0.42930  1.0000
  H   H1208     1.0  0.74548  0.42051  0.43034  1.0000
  H   H1209     1.0  0.76522  0.42993  0.40180  1.0000
  C   C705      1.0  0.53056  0.34309  0.27964  1.0000
  H   H1210     1.0  0.53148  0.14472  0.50819  1.0000
  H   H1211     1.0  0.86629  0.46402  0.39014  1.0000
  C   C706      1.0  0.51341  0.33823  0.27889  1.0000
  C   C707      1.0  0.53596  0.31630  0.30274  1.0000
  C   C708      1.0  0.54170  0.33205  0.29176  1.0000
  C   C709      1.0  0.76471  0.32992  0.48245  1.0000
  Fe  Fe117     1.0  0.61544  0.27192  0.50088  1.0000
  H   H1212     1.0  0.54480  0.30796  0.31183  1.0000
  H   H1213     1.0  0.55494  0.33566  0.29262  1.0000
  C   C710      1.0  0.69836  0.34204  0.48463  1.0000
  C   C711      1.0  0.68941  0.35214  0.47049  1.0000
  C   C712      1.0  0.67568  0.34500  0.46380  1.0000
  C   C713      1.0  0.67058  0.32776  0.47121  1.0000
  C   C714      1.0  0.67940  0.31777  0.48552  1.0000
  H   H1214     1.0  0.61714  0.21323  0.49451  1.0000
  H   H1215     1.0  0.69318  0.36535  0.46452  1.0000
  H   H1216     1.0  0.66900  0.35288  0.45273  1.0000
  H   H1217     1.0  0.67572  0.30449  0.49135  1.0000
  C   C715      1.0  0.97677  0.45866  0.43605  1.0000
  C   C716      1.0  0.57839  0.27521  0.42897  1.0000
  C   C717      1.0  0.56187  0.27909  0.42157  1.0000
  C   C718      1.0  0.55961  0.27122  0.40625  1.0000
  C   C719      1.0  0.57397  0.25959  0.39804  1.0000
  C   C720      1.0  0.59044  0.25554  0.40556  1.0000
  C   C721      1.0  0.59261  0.26320  0.42109  1.0000
  H   H1218     1.0  0.55079  0.28836  0.42759  1.0000
  H   H1219     1.0  0.54683  0.27438  0.40062  1.0000
  H   H1220     1.0  0.60159  0.24647  0.39935  1.0000
  H   H1221     1.0  0.60537  0.26002  0.42673  1.0000
  H   H1222     1.0  0.61816  0.29064  0.41305  1.0000
  C   C722      1.0  0.75063  0.33667  0.45410  1.0000
  C   C723      1.0  0.52704  0.14683  0.35254  1.0000
  C   C724      1.0  0.53630  0.16176  0.34476  1.0000
  C   C725      1.0  0.52987  0.17959  0.34925  1.0000
  S   S230      1.0  0.75126  0.37832  0.50268  1.0000
  C   C726      1.0  0.69680  0.49155  0.35553  1.0000
  H   H1223     1.0  0.58862  0.50619  0.26716  1.0000
  H   H1224     1.0  0.54832  0.15958  0.33490  1.0000
  H   H1225     1.0  0.56043  0.28390  0.48334  1.0000
  C   C727      1.0  0.54745  0.10216  0.44610  1.0000
  C   C728      1.0  0.53141  0.10161  0.43891  1.0000
  C   C729      1.0  0.52981  0.08673  0.43014  1.0000
  C   C730      1.0  0.54422  0.07246  0.42859  1.0000
  C   C731      1.0  0.55971  0.07240  0.43688  1.0000
  C   C732      1.0  0.56145  0.08742  0.44531  1.0000
  H   H1226     1.0  0.52044  0.11288  0.43963  1.0000
  C   C733      1.0  0.56392  0.01564  0.37632  1.0000
  H   H1227     1.0  0.57084  0.06131  0.43582  1.0000
  H   H1228     1.0  0.57383  0.08770  0.45076  1.0000
  C   C734      1.0  0.64251  0.21015  0.45842  1.0000
  C   C735      1.0  0.62906  0.21778  0.44737  1.0000
  C   C736      1.0  0.62006  0.20637  0.43953  1.0000
  C   C737      1.0  0.62395  0.18728  0.44324  1.0000
  C   C738      1.0  0.63721  0.17965  0.45451  1.0000
  C   C739      1.0  0.64670  0.19107  0.46180  1.0000
  H   H1229     1.0  0.51571  0.28332  0.48059  1.0000
  H   H1230     1.0  0.60996  0.21239  0.43070  1.0000
  H   H1231     1.0  0.64042  0.16495  0.45729  1.0000
  H   H1232     1.0  0.61231  0.35036  0.43067  1.0000
  C   C740      1.0  0.93084  0.42971  0.41334  1.0000
  C   C741      1.0  0.93069  0.44752  0.41710  1.0000
  C   C742      1.0  0.94244  0.45883  0.40623  1.0000
  C   C743      1.0  0.95435  0.45236  0.39160  1.0000
  C   C744      1.0  0.95501  0.43433  0.38826  1.0000
  C   C745      1.0  0.94314  0.42304  0.39905  1.0000
  H   H1233     1.0  0.92108  0.45284  0.42798  1.0000
  H   H1234     1.0  0.94226  0.47255  0.40920  1.0000
  H   H1235     1.0  0.96424  0.42927  0.37697  1.0000
  H   H1236     1.0  0.94331  0.40924  0.39617  1.0000
  C   C746      1.0  0.83546  0.41067  0.49169  1.0000
  C   C747      1.0  0.83974  0.40645  0.47379  1.0000
  C   C748      1.0  0.82681  0.39980  0.46557  1.0000
  C   C749      1.0  0.80943  0.39765  0.47505  1.0000
  C   C750      1.0  0.80504  0.40223  0.49279  1.0000
  C   C751      1.0  0.63958  0.03641  0.47934  1.0000
  C   C752      1.0  0.93325  0.47676  0.48849  1.0000
  H   H1237     1.0  0.83032  0.39625  0.45184  1.0000
  H   H1238     1.0  0.89398  0.45399  0.40872  1.0000
  C   C753      1.0  0.51901  0.31118  0.30161  1.0000
  C   C754      1.0  0.63150  0.05924  0.42895  1.0000
  H   H1239     1.0  0.60560  0.05963  0.44601  1.0000
  H   H1240     1.0  0.79174  0.40056  0.50026  1.0000
  C   C755      1.0  0.52499  0.27260  0.48800  1.0000
  H   H1241     1.0  0.74465  0.46897  0.32319  1.0000
  C   C756      1.0  0.98615  0.43421  0.50009  1.0000
  H   H1242     1.0  0.58431  0.06239  0.40272  1.0000
  H   H1243     1.0  0.71535  0.46410  0.32270  1.0000
  H   H1244     1.0  0.63726  0.03120  0.46681  1.0000
  H   H1245     1.0  0.88883  0.43123  0.39651  1.0000
  H   H1246     1.0  0.54363  0.01978  0.40802  1.0000
  S   S231      1.0  0.51264  0.09601  0.38784  1.0000
  C   C757      1.0  0.62391  0.33685  0.37644  1.0000
  H   H1247     1.0  0.62205  0.29969  0.38980  1.0000
  H   H1248     1.0  0.63734  0.33544  0.40026  1.0000
  H   H1249     1.0  0.65007  0.28425  0.40071  1.0000
  H   H1250     1.0  0.65206  0.30768  0.39283  1.0000
  H   H1251     1.0  0.63105  0.32418  0.37116  1.0000
  H   H1252     1.0  0.63160  0.34814  0.36969  1.0000
  H   H1253     1.0  0.61009  0.34011  0.37226  1.0000
  N   N52       1.0  0.56109  0.19263  0.39955  1.0000
  C   C758      1.0  0.57333  0.19865  0.38240  1.0000
  C   C759      1.0  0.55780  0.20807  0.41111  1.0000
  C   C760      1.0  0.54342  0.18950  0.39386  1.0000
  C   C761      1.0  0.57059  0.17521  0.40885  1.0000
  C   C762      1.0  0.57709  0.18570  0.36755  1.0000
  C   C763      1.0  0.57447  0.21171  0.41912  1.0000
  C   C764      1.0  0.52652  0.18956  0.40849  1.0000
  C   C765      1.0  0.56206  0.16805  0.42820  1.0000
  H   H1254     1.0  0.56751  0.21227  0.37580  1.0000
  H   H1255     1.0  0.58693  0.20047  0.38553  1.0000
  H   H1256     1.0  0.54710  0.20604  0.42287  1.0000
  H   H1257     1.0  0.55252  0.22106  0.40308  1.0000
  H   H1258     1.0  0.53939  0.20019  0.38255  1.0000
  H   H1259     1.0  0.54510  0.17624  0.38825  1.0000
  H   H1260     1.0  0.57147  0.16382  0.40060  1.0000
  H   H1261     1.0  0.58513  0.17634  0.40943  1.0000
  H   H1262     1.0  0.58436  0.17216  0.37236  1.0000
  H   H1263     1.0  0.56448  0.18406  0.36226  1.0000
  H   H1264     1.0  0.58609  0.19180  0.35577  1.0000
  H   H1265     1.0  0.58562  0.21562  0.40844  1.0000
  H   H1266     1.0  0.57035  0.22343  0.42712  1.0000
  H   H1267     1.0  0.57967  0.19985  0.42860  1.0000
  H   H1268     1.0  0.51538  0.18492  0.40287  1.0000
  H   H1269     1.0  0.00286  0.39703  0.44954  1.0000
  H   H1270     1.0  0.52887  0.18020  0.42104  1.0000
  H   H1271     1.0  0.55310  0.15766  0.42765  1.0000
  H   H1272     1.0  0.55442  0.17877  0.43613  1.0000
  H   H1273     1.0  0.57311  0.16146  0.43632  1.0000
  C   C766      1.0  0.64374  0.03033  0.41769  1.0000
  H   H1274     1.0  0.69218  0.48328  0.38516  1.0000
  H   H1275     1.0  0.91157  0.48058  0.37219  1.0000
  H   H1276     1.0  0.54791  0.45594  0.27910  1.0000
  H   H1277     1.0  0.62602  0.10835  0.37226  1.0000
  H   H1278     1.0  0.79115  0.36614  0.43351  1.0000
  H   H1279     1.0  0.95995  0.42930  0.43716  1.0000
  C   C767      1.0  0.57910  0.01707  0.41187  1.0000
  C   C768      1.0  0.51638  0.08063  0.48802  1.0000
  H   H1280     1.0  0.87418  0.48553  0.38466  1.0000
  H   H1281     1.0  0.96254  0.42187  0.46056  1.0000
  H   H1282     1.0  0.62817  0.10927  0.39546  1.0000
  H   H1283     1.0  0.57724  0.03899  0.49448  1.0000
  H   H1284     1.0  0.75291  0.33945  0.43896  1.0000
  H   H1285     1.0  0.73272  0.47996  0.36142  1.0000
  S   S232      1.0  0.69118  0.50471  0.26894  1.0000
  C   C769      1.0  0.86419  0.47767  0.35150  1.0000
  H   H1286     1.0  0.89799  0.47756  0.40383  1.0000
  H   H1287     1.0  0.55347  0.31456  0.46898  1.0000
  H   H1288     1.0  0.60591  0.06896  0.40521  1.0000
  H   H1289     1.0  0.55470  0.29861  0.50009  1.0000
  H   H1290     1.0  0.78557  0.48194  0.46730  1.0000
  Fe  Fe118     1.0  0.95321  0.49582  0.37422  1.0000
  C   C770      1.0  0.78146  0.35591  0.43584  1.0000
  H   H1291     1.0  0.71087  0.48823  0.32002  1.0000
  H   H1292     1.0  0.74181  0.47702  0.45250  1.0000
  H   H1293     1.0  0.56109  0.02943  0.38093  1.0000
  Fe  Fe119     1.0  0.60911  0.11786  0.48205  1.0000
  C   C771      1.0  0.78592  0.49408  0.43033  1.0000
  H   H1294     1.0  0.59839  0.09897  0.40648  1.0000
  H   H1295     1.0  0.74219  0.45178  0.34297  1.0000
  C   C772      1.0  0.99408  0.49447  0.32728  1.0000
  H   H1296     1.0  0.52134  0.20359  0.41182  1.0000
  C   C773      1.0  0.89594  0.42980  0.38261  1.0000
  H   H1297     1.0  0.62745  0.05588  0.50758  1.0000
  H   H1298     1.0  0.62780  0.08766  0.38836  1.0000
  Fe  Fe120     1.0  0.76674  0.49459  0.36976  1.0000
  S   S233      1.0  0.77197  0.50504  0.33989  1.0000
  H   H1299     1.0  0.85493  0.48173  0.36367  1.0000
  C   C774      1.0  0.64499  0.29845  0.40366  1.0000
  H   H1300     1.0  0.65319  0.02932  0.48254  1.0000
  H   H1301     1.0  0.52798  0.04386  0.46203  1.0000
  H   H1302     1.0  0.58717  0.09018  0.34257  1.0000
  C   C775      1.0  0.88835  0.44493  0.36834  1.0000
  H   H1303     1.0  0.79277  0.50178  0.41801  1.0000
  H   H1304     1.0  0.89360  0.41635  0.37946  1.0000
  C   C776      1.0  0.96926  0.42885  0.49821  1.0000
  H   H1305     1.0  0.51774  0.08376  0.47294  1.0000
  C   C777      1.0  0.92394  0.46108  0.35386  1.0000
  H   H1306     1.0  0.65664  0.05464  0.41107  1.0000
  S   S234      1.0  0.51129  0.29089  0.31435  1.0000
  C   C778      1.0  0.54179  0.30746  0.47577  1.0000
  C   C779      1.0  0.51399  0.18275  0.36154  1.0000
  N   N53       1.0  0.89073  0.46422  0.37019  1.0000
  H   H1307     1.0  0.88754  0.49061  0.35362  1.0000
  H   H1308     1.0  0.80757  0.46986  0.46348  1.0000
  C   C780      1.0  0.91039  0.46620  0.37061  1.0000
  C   C781      1.0  0.55580  0.46675  0.27150  1.0000
  H   H1309     1.0  0.58658  0.12331  0.36287  1.0000
  H   H1310     1.0  0.89218  0.47188  0.34081  1.0000
  H   H1311     1.0  0.95908  0.43843  0.49172  1.0000
  C   C782      1.0  0.54864  0.29215  0.49039  1.0000
  H   H1312     1.0  0.61127  0.30872  0.43702  1.0000
  H   H1313     1.0  0.68856  0.50729  0.37822  1.0000
  C   C783      1.0  0.58810  0.48575  0.29049  1.0000
  C   C784      1.0  0.69323  0.32484  0.49211  1.0000
  H   H1314     1.0  0.75902  0.48828  0.45791  1.0000
  H   H1315     1.0  0.61847  0.17358  0.49198  1.0000
  H   H1316     1.0  0.69135  0.45759  0.36295  1.0000
  H   H1317     1.0  0.60532  0.10781  0.35494  1.0000
  H   H1318     1.0  0.57034  0.09183  0.40404  1.0000
  H   H1319     1.0  0.70683  0.44349  0.38657  1.0000
  C   C785      1.0  0.88767  0.46814  0.40483  1.0000
  C   C786      1.0  0.71564  0.45181  0.37641  1.0000
  C   C787      1.0  0.94670  0.47801  0.49919  1.0000
  H   H1320     1.0  0.77105  0.36068  0.46341  1.0000
  C   C788      1.0  0.78028  0.31626  0.45430  1.0000
  S   S235      1.0  0.89911  0.48546  0.47816  1.0000
  H   H1321     1.0  0.65722  0.18512  0.47020  1.0000
  H   H1322     1.0  0.53570  0.48826  0.28060  1.0000
  H   H1323     1.0  0.59142  0.33996  0.43578  1.0000
  N   N54       1.0  0.78831  0.46158  0.44856  1.0000
  C   C789      1.0  0.79904  0.44278  0.44734  1.0000
  H   H1324     1.0  0.77875  0.28749  0.45350  1.0000
  H   H1325     1.0  0.77136  0.49542  0.42832  1.0000
  C   C790      1.0  0.76828  0.46027  0.44933  1.0000
  C   C791      1.0  0.79762  0.43378  0.43043  1.0000
  C   C792      1.0  0.91325  0.50061  0.50299  1.0000
  H   H1326     1.0  0.60654  0.03975  0.47446  1.0000
  C   C793      1.0  0.75455  0.47473  0.45890  1.0000
  S   S236      1.0  0.63803  0.49917  0.27261  1.0000
  H   H1327     1.0  0.57040  0.46108  0.27131  1.0000
  C   C794      1.0  0.96581  0.40044  0.44365  1.0000
  H   H1328     1.0  0.59275  0.18368  0.47451  1.0000
  C   C795      1.0  0.78902  0.45569  0.48341  1.0000
  H   H1329     1.0  0.79211  0.46909  0.41916  1.0000
  H   H1330     1.0  0.58849  0.33684  0.40465  1.0000
  H   H1331     1.0  0.80437  0.41939  0.43223  1.0000
  H   H1332     1.0  0.78329  0.43328  0.42880  1.0000
  C   C796      1.0  0.64149  0.05682  0.47358  1.0000
  H   H1333     1.0  0.75709  0.31830  0.48786  1.0000
  H   H1334     1.0  0.75034  0.46943  0.47337  1.0000
  C   C797      1.0  0.50781  0.32229  0.28959  1.0000
  H   H1335     1.0  0.72738  0.50193  0.27853  1.0000
  H   H1336     1.0  0.00320  0.48777  0.48991  1.0000
  C   C798      1.0  0.98755  0.44307  0.44771  1.0000
  C   C799      1.0  0.62317  0.33581  0.39723  1.0000
  C   C800      1.0  0.61519  0.03267  0.43772  1.0000
  C   C801      1.0  0.62186  0.10227  0.38641  1.0000
  S   S237      1.0  0.71271  0.40402  0.49550  1.0000
  H   H1337     1.0  0.76519  0.44682  0.45664  1.0000
  H   H1338     1.0  0.57382  0.31662  0.39143  1.0000
  H   H1339     1.0  0.92379  0.44689  0.35129  1.0000
  H   H1340     1.0  0.58245  0.47294  0.29619  1.0000
  C   C802      1.0  0.53699  0.26134  0.47380  1.0000
  H   H1341     1.0  0.92168  0.47085  0.34145  1.0000
  H   H1342     1.0  0.77560  0.45078  0.48504  1.0000
  H   H1343     1.0  0.61577  0.34917  0.40081  1.0000
  H   H1344     1.0  0.59584  0.31616  0.37825  1.0000
  H   H1345     1.0  0.59075  0.29753  0.39558  1.0000
  H   H1346     1.0  0.95108  0.39912  0.44724  1.0000
  C   C803      1.0  0.62411  0.30188  0.40365  1.0000
  H   H1347     1.0  0.64920  0.29953  0.41697  1.0000
  N   N55       1.0  0.61453  0.32020  0.40855  1.0000
  H   H1348     1.0  0.71130  0.49615  0.37781  1.0000
  C   C804      1.0  0.72912  0.47972  0.34765  1.0000
  H   H1349     1.0  0.99412  0.50415  0.50492  1.0000
  C   C805      1.0  0.77688  0.29701  0.46394  1.0000
  C   C806      1.0  0.70626  0.45782  0.35898  1.0000
  H   H1350     1.0  0.62583  0.23247  0.44461  1.0000
  C   C807      1.0  0.58865  0.31261  0.39206  1.0000
  C   C808      1.0  0.62292  0.20339  0.50547  1.0000
  H   H1351     1.0  0.78913  0.46337  0.49501  1.0000
  C   C809      1.0  0.59813  0.06440  0.39574  1.0000
  H   H1352     1.0  0.52996  0.26263  0.46151  1.0000
  H   H1353     1.0  0.91575  0.45772  0.38260  1.0000
  C   C810      1.0  0.55057  0.48416  0.28104  1.0000
  H   H1354     1.0  0.98523  0.42992  0.41395  1.0000
  H   H1355     1.0  0.89471  0.44131  0.35467  1.0000
  H   H1356     1.0  0.86096  0.46467  0.34815  1.0000
  H   H1357     1.0  0.63083  0.32010  0.43040  1.0000
  H   H1358     1.0  0.86104  0.48830  0.33991  1.0000
  H   H1359     1.0  0.59608  0.08286  0.50772  1.0000
  H   H1360     1.0  0.78732  0.29140  0.47313  1.0000
  C   C811      1.0  0.61635  0.32079  0.42830  1.0000
  H   H1361     1.0  0.76474  0.46067  0.43535  1.0000
  H   H1362     1.0  0.51749  0.08639  0.42444  1.0000
  H   H1363     1.0  0.72862  0.44263  0.37351  1.0000
  Fe  Fe121     1.0  0.51477  0.23306  0.36183  1.0000
  H   H1364     1.0  0.80982  0.47380  0.43048  1.0000
  H   H1365     1.0  0.79446  0.43294  0.45922  1.0000
  C   C812      1.0  0.60646  0.04003  0.48925  1.0000
  N   N56       1.0  0.76849  0.33244  0.46189  1.0000
  H   H1366     1.0  0.93795  0.46190  0.35651  1.0000
  H   H1367     1.0  0.70006  0.31683  0.50301  1.0000
  H   H1368     1.0  0.74384  0.30972  0.45109  1.0000
  H   H1369     1.0  0.71815  0.46305  0.38328  1.0000
  C   C813      1.0  0.52840  0.13492  0.49964  1.0000
  S   S238      1.0  0.94393  0.40398  0.50514  1.0000
  H   H1370     1.0  0.56304  0.25002  0.49479  1.0000
  C   C814      1.0  0.58990  0.03056  0.49860  1.0000
  H   H1371     1.0  0.00120  0.48355  0.36277  1.0000
  H   H1372     1.0  0.96950  0.39791  0.42923  1.0000
  S   S239      1.0  0.63101  0.12264  0.45850  1.0000
  H   H1373     1.0  0.80476  0.44056  0.41775  1.0000
  C   C815      1.0  0.88456  0.47645  0.35365  1.0000
  H   H1374     1.0  0.59678  0.11990  0.39185  1.0000
  H   H1375     1.0  0.55718  0.12423  0.37641  1.0000
  S   S240      1.0  0.93092  0.50818  0.39392  1.0000
  H   H1376     1.0  0.60776  0.33589  0.45148  1.0000
  H   H1377     1.0  0.61105  0.07661  0.36989  1.0000
  H   H1378     1.0  0.91083  0.42912  0.38234  1.0000
  H   H1379     1.0  0.87699  0.47175  0.41622  1.0000
  C   C816      1.0  0.60100  0.10493  0.39191  1.0000
  C   C817      1.0  0.55967  0.11742  0.39020  1.0000
  H   H1380     1.0  0.58856  0.07204  0.36993  1.0000
  H   H1381     1.0  0.54605  0.11612  0.39817  1.0000
  H   H1382     1.0  0.93604  0.46735  0.47852  1.0000
  C   C818      1.0  0.59724  0.07770  0.37794  1.0000
  H   H1383     1.0  0.79492  0.31703  0.45487  1.0000
  C   C819      1.0  0.59102  0.10855  0.36173  1.0000
  C   C820      1.0  0.58022  0.10285  0.34803  1.0000
  H   H1384     1.0  0.55337  0.01553  0.36739  1.0000
  H   H1385     1.0  0.56629  0.12622  0.39713  1.0000
  H   H1386     1.0  0.56617  0.10088  0.35400  1.0000
  S   S241      1.0  0.64564  0.26886  0.49178  1.0000
  H   H1387     1.0  0.52507  0.02652  0.48102  1.0000
  H   H1388     1.0  0.98146  0.45886  0.42124  1.0000
  N   N57       1.0  0.58997  0.09731  0.38027  1.0000
  C   C821      1.0  0.57059  0.09816  0.38962  1.0000
  H   H1389     1.0  0.51252  0.12469  0.47232  1.0000
  C   C822      1.0  0.58118  0.49429  0.27231  1.0000
  H   H1390     1.0  0.56257  0.08990  0.38350  1.0000
  H   H1391     1.0  0.59375  0.01564  0.37107  1.0000
  H   H1392     1.0  0.78745  0.50095  0.44204  1.0000
  H   H1393     1.0  0.68725  0.47206  0.31122  1.0000
  H   H1394     1.0  0.75756  0.46814  0.34151  1.0000
  C   C823      1.0  0.91635  0.48775  0.49069  1.0000
  H   H1395     1.0  0.60269  0.20320  0.47642  1.0000
  C   C824      1.0  0.59506  0.19250  0.48443  1.0000
  C   C825      1.0  0.52407  0.02987  0.46620  1.0000
  H   H1396     1.0  0.51512  0.33060  0.33527  1.0000
  S   S242      1.0  0.53896  0.36251  0.26571  1.0000
  C   C826      1.0  0.70671  0.47583  0.32869  1.0000
  S   S243      1.0  0.85132  0.41866  0.50281  1.0000
  N   N58       1.0  0.53460  0.28060  0.50061  1.0000
  H   H1397     1.0  0.81380  0.44300  0.44788  1.0000
  H   H1398     1.0  0.98564  0.50048  0.33899  1.0000
  H   H1399     1.0  0.60354  0.02656  0.44490  1.0000
  H   H1400     1.0  0.53654  0.30191  0.46494  1.0000
  H   H1401     1.0  0.64777  0.06252  0.48362  1.0000
  N   N59       1.0  0.70980  0.47598  0.34818  1.0000
  H   H1402     1.0  0.53691  0.19094  0.34283  1.0000
  C   C827      1.0  0.96861  0.41987  0.44632  1.0000
  H   H1403     1.0  0.97322  0.38967  0.45274  1.0000
  C   C828      1.0  0.68705  0.47479  0.32548  1.0000
  H   H1404     1.0  0.99634  0.40814  0.42045  1.0000
  H   H1405     1.0  0.58531  0.49556  0.30066  1.0000
  H   H1406     1.0  0.55192  0.48006  0.29575  1.0000
  H   H1407     1.0  0.53139  0.31795  0.48172  1.0000
  C   C829      1.0  0.79285  0.46818  0.46524  1.0000
  N   N60       1.0  0.62489  0.03216  0.49498  1.0000
  H   H1408     1.0  0.62829  0.06516  0.47117  1.0000
  H   H1409     1.0  0.00140  0.44686  0.44689  1.0000
  H   H1410     1.0  0.79984  0.44375  0.48462  1.0000
  H   H1411     1.0  0.78747  0.34482  0.42753  1.0000
  H   H1412     1.0  0.77906  0.31668  0.43958  1.0000
  C   C830      1.0  0.79478  0.47396  0.43175  1.0000
  C   C831      1.0  0.81811  0.40846  0.50113  1.0000
  H   H1413     1.0  0.65083  0.05825  0.46056  1.0000
  C   C832      1.0  0.62902  0.02212  0.42734  1.0000
  H   H1414     1.0  0.72495  0.32730  0.45281  1.0000
  H   H1415     1.0  0.74262  0.34935  0.45887  1.0000
  S   S244      1.0  0.71646  0.34982  0.49307  1.0000
  H   H1416     1.0  0.85311  0.40801  0.46641  1.0000
  H   H1417     1.0  0.75556  0.34199  0.48724  1.0000
  H   H1418     1.0  0.79215  0.34634  0.46094  1.0000
  H   H1419     1.0  0.52522  0.14289  0.48651  1.0000
  N   N61       1.0  0.98799  0.42405  0.44294  1.0000
  C   C833      1.0  0.74405  0.46622  0.33826  1.0000
  H   H1420     1.0  0.59161  0.01478  0.41860  1.0000
  H   H1421     1.0  0.51472  0.02976  0.43325  1.0000
  H   H1422     1.0  0.96188  0.45813  0.43883  1.0000
  H   H1423     1.0  0.99045  0.40669  0.46880  1.0000
  H   H1424     1.0  0.73438  0.31756  0.47298  1.0000
  C   C834      1.0  0.77837  0.34899  0.45643  1.0000
  H   H1425     1.0  0.76867  0.36315  0.43091  1.0000
  H   H1426     1.0  0.99202  0.48002  0.32789  1.0000
  C   C835      1.0  0.78164  0.32731  0.49252  1.0000
  H   H1427     1.0  0.51123  0.32638  0.35954  1.0000
  H   H1428     1.0  0.58145  0.19879  0.49029  1.0000
  H   H1429     1.0  0.52598  0.01630  0.38381  1.0000
  C   C836      1.0  0.96533  0.41124  0.50538  1.0000
  C   C837      1.0  0.73801  0.32174  0.45820  1.0000
  C   C838      1.0  0.56233  0.25593  0.50760  1.0000
  H   H1430     1.0  0.95958  0.46922  0.49780  1.0000
  C   C839      1.0  0.51676  0.01211  0.35074  1.0000
  H   H1431     1.0  0.55022  0.26619  0.46856  1.0000
  C   C840      1.0  0.53932  0.01643  0.45725  1.0000
  N   N62       1.0  0.56090  0.49997  0.27321  1.0000
  H   H1432     1.0  0.53936  0.24666  0.47937  1.0000
  C   C841      1.0  0.60568  0.18053  0.49913  1.0000
  H   H1433     1.0  0.58035  0.02895  0.40121  1.0000
  H   H1434     1.0  0.51248  0.30322  0.50228  1.0000
  H   H1435     1.0  0.98867  0.50208  0.31485  1.0000
  H   H1436     1.0  0.60322  0.05477  0.49108  1.0000
  H   H1437     1.0  0.97886  0.47197  0.43977  1.0000
  H   H1438     1.0  0.58615  0.48454  0.26227  1.0000
  H   H1439     1.0  0.54104  0.12515  0.49737  1.0000
  C   C842      1.0  0.00652  0.49466  0.50093  1.0000
  C   C843      1.0  0.99887  0.41014  0.45543  1.0000
  H   H1440     1.0  0.69894  0.50468  0.34674  1.0000
  C   C844      1.0  0.69754  0.49445  0.37533  1.0000
  C   C845      1.0  0.58219  0.01467  0.36377  1.0000
  C   C846      1.0  0.52105  0.09652  0.49673  1.0000
  H   H1441     1.0  0.59030  0.01698  0.49411  1.0000
  H   H1442     1.0  0.52574  0.06803  0.49182  1.0000
  C   C847      1.0  0.62694  0.01166  0.49987  1.0000
  H   H1443     1.0  0.55264  0.01938  0.46006  1.0000
  H   H1444     1.0  0.78705  0.34045  0.49187  1.0000
  H   H1445     1.0  0.68094  0.46368  0.33471  1.0000
  S   S245      1.0  0.89645  0.43720  0.50255  1.0000
  H   H1446     1.0  0.59721  0.16951  0.50478  1.0000
  H   H1447     1.0  0.98162  0.44374  0.46219  1.0000
  H   H1448     1.0  0.90024  0.50921  0.50470  1.0000
  H   H1449     1.0  0.58148  0.02649  0.35282  1.0000
  H   H1450     1.0  0.98882  0.44804  0.49526  1.0000
  H   H1451     1.0  0.57285  0.26519  0.50608  1.0000
  H   H1452     1.0  0.55553  0.50894  0.30004  1.0000
  H   H1453     1.0  0.77766  0.32263  0.50720  1.0000
  S   S246      1.0  0.50714  0.05350  0.38551  1.0000
  H   H1454     1.0  0.54771  0.35639  0.54748  1.0000
  S   S247      1.0  0.89869  0.47765  0.60401  1.0000
  H   H1455     1.0  0.54347  0.46161  0.71920  1.0000
  S   S248      1.0  0.62267  0.50634  0.71749  1.0000
  S   S249      1.0  0.94872  0.48555  0.58101  1.0000
  H   H1456     1.0  0.00485  0.49930  0.55660  1.0000
  C   C848      1.0  0.00159  0.50904  0.59469  1.0000
  C   C849      1.0  0.68411  0.40468  0.55868  1.0000
  C   C850      1.0  0.68647  0.36669  0.52814  1.0000
  H   H1457     1.0  0.69292  0.37440  0.51556  1.0000
  H   H1458     1.0  0.90683  0.40709  0.56119  1.0000
  S   S250      1.0  0.53338  0.10678  0.58971  1.0000
  H   H1459     1.0  0.60729  0.15046  0.52780  1.0000
  H   H1460     1.0  0.64261  0.03590  0.51404  1.0000
  H   H1461     1.0  0.63546  0.20737  0.52941  1.0000
  H   H1462     1.0  0.56170  0.35583  0.56503  1.0000
  C   C851      1.0  0.68335  0.34276  0.56330  1.0000
  C   C852      1.0  0.81362  0.45932  0.58115  1.0000
  H   H1463     1.0  0.65815  0.45991  0.74349  1.0000
  H   H1464     1.0  0.51689  0.11841  0.52298  1.0000
  C   C853      1.0  0.68212  0.36378  0.56246  1.0000
  C   C854      1.0  0.56977  0.08540  0.52398  1.0000
  S   S251      1.0  0.52752  0.30568  0.55840  1.0000
  S   S252      1.0  0.51947  0.28470  0.61116  1.0000
  Fe  Fe122     1.0  0.54658  0.41613  0.70881  1.0000
  S   S253      1.0  0.57251  0.42888  0.69997  1.0000
  S   S254      1.0  0.54248  0.38776  0.72211  1.0000
  C   C855      1.0  0.54611  0.35614  0.60103  1.0000
  H   H1465     1.0  0.57111  0.04549  0.54817  1.0000
  H   H1466     1.0  0.50725  0.18661  0.56517  1.0000
  S   S255      1.0  0.76304  0.48619  0.54906  1.0000
  S   S256      1.0  0.91493  0.50832  0.55977  1.0000
  H   H1467     1.0  0.99867  0.47329  0.52113  1.0000
  C   C856      1.0  0.83580  0.48279  0.61192  1.0000
  H   H1468     1.0  0.71990  0.34685  0.55774  1.0000
  S   S257      1.0  0.76319  0.48287  0.60443  1.0000
  H   H1469     1.0  0.52499  0.50815  0.72854  1.0000
  H   H1470     1.0  0.81800  0.47294  0.57647  1.0000
  H   H1471     1.0  0.59501  0.05520  0.56195  1.0000
  Fe  Fe123     1.0  0.61773  0.49157  0.74584  1.0000
  Fe  Fe124     1.0  0.52451  0.38740  0.70039  1.0000
  H   H1472     1.0  0.56900  0.01470  0.55694  1.0000
  C   C857      1.0  0.72236  0.35548  0.54445  1.0000
  H   H1473     1.0  0.56103  0.35391  0.59636  1.0000
  C   C858      1.0  0.56809  0.04770  0.56276  1.0000
  H   H1474     1.0  0.84688  0.45346  0.56143  1.0000
  C   C859      1.0  0.58840  0.44016  0.74621  1.0000
  C   C860      1.0  0.52734  0.21337  0.59676  1.0000
  H   H1475     1.0  0.82516  0.44916  0.58533  1.0000
  C   C861      1.0  0.96243  0.43602  0.54720  1.0000
  H   H1476     1.0  0.56177  0.32463  0.58689  1.0000
  C   C862      1.0  0.53392  0.34876  0.57469  1.0000
  H   H1477     1.0  0.67513  0.41802  0.55757  1.0000
  C   C863      1.0  0.54325  0.26576  0.51398  1.0000
  H   H1478     1.0  0.56558  0.07388  0.51932  1.0000
  H   H1479     1.0  0.98916  0.49387  0.54372  1.0000
  C   C864      1.0  0.84854  0.44127  0.55429  1.0000
  C   C865      1.0  0.75390  0.46640  0.54655  1.0000
  C   C866      1.0  0.74784  0.45420  0.56150  1.0000
  C   C867      1.0  0.74177  0.43802  0.55865  1.0000
  H   H1480     1.0  0.97247  0.44398  0.53828  1.0000
  H   H1481     1.0  0.74798  0.45714  0.57521  1.0000
  H   H1482     1.0  0.73720  0.42857  0.57025  1.0000
  C   C868      1.0  0.58194  0.43884  0.71561  1.0000
  C   C869      1.0  0.59238  0.45304  0.70902  1.0000
  C   C870      1.0  0.60039  0.46112  0.72103  1.0000
  C   C871      1.0  0.59877  0.45444  0.73959  1.0000
  H   H1483     1.0  0.62115  0.04275  0.53968  1.0000
  C   C872      1.0  0.57968  0.43261  0.73430  1.0000
  H   H1484     1.0  0.59410  0.45793  0.69458  1.0000
  H   H1485     1.0  0.60817  0.47222  0.71584  1.0000
  H   H1486     1.0  0.90575  0.40842  0.53742  1.0000
  H   H1487     1.0  0.57170  0.42160  0.73947  1.0000
  H   H1488     1.0  0.51804  0.01100  0.64112  1.0000
  H   H1489     1.0  0.53245  0.06465  0.59268  1.0000
  H   H1490     1.0  0.54113  0.37022  0.59487  1.0000
  C   C873      1.0  0.74178  0.43393  0.54088  1.0000
  H   H1491     1.0  0.55967  0.30044  0.61255  1.0000
  C   C874      1.0  0.58343  0.27627  0.53862  1.0000
  C   C875      1.0  0.57681  0.29320  0.52957  1.0000
  C   C876      1.0  0.55983  0.30238  0.53614  1.0000
  C   C877      1.0  0.54931  0.29453  0.55157  1.0000
  C   C878      1.0  0.55599  0.27771  0.56077  1.0000
  C   C879      1.0  0.57311  0.26865  0.55434  1.0000
  C   C880      1.0  0.59204  0.20495  0.54236  1.0000
  H   H1492     1.0  0.55576  0.46744  0.74494  1.0000
  H   H1493     1.0  0.54792  0.27159  0.57270  1.0000
  H   H1494     1.0  0.57824  0.25557  0.56141  1.0000
  C   C881      1.0  0.55789  0.09546  0.53630  1.0000
  C   C882      1.0  0.56337  0.11033  0.54235  1.0000
  C   C883      1.0  0.58058  0.11551  0.53560  1.0000
  Fe  Fe125     1.0  0.91879  0.49606  0.58816  1.0000
  C   C884      1.0  0.52805  0.18055  0.59647  1.0000
  H   H1495     1.0  0.63720  0.42773  0.71334  1.0000
  H   H1496     1.0  0.55423  0.11813  0.55191  1.0000
  H   H1497     1.0  0.58457  0.12738  0.53982  1.0000
  H   H1498     1.0  0.83642  0.50228  0.58751  1.0000
  H   H1499     1.0  0.79085  0.45636  0.53426  1.0000
  C   C885      1.0  0.84455  0.49301  0.59665  1.0000
  H   H1500     1.0  0.72114  0.34811  0.53299  1.0000
  H   H1501     1.0  0.56164  0.32163  0.61970  1.0000
  C   C886      1.0  0.55237  0.31440  0.61403  1.0000
  H   H1502     1.0  0.81486  0.41132  0.51506  1.0000
  H   H1503     1.0  0.53993  0.31257  0.62379  1.0000
  H   H1504     1.0  0.55472  0.31546  0.52907  1.0000
  C   C887      1.0  0.94323  0.49015  0.51218  1.0000
  H   H1505     1.0  0.54464  0.05107  0.53597  1.0000
  C   C888      1.0  0.55072  0.03814  0.59296  1.0000
  S   S258      1.0  0.61025  0.46316  0.75454  1.0000
  C   C889      1.0  0.68109  0.39378  0.54364  1.0000
  H   H1506     1.0  0.54711  0.46031  0.68795  1.0000
  C   C890      1.0  0.62843  0.04075  0.51090  1.0000
  C   C891      1.0  0.82930  0.46909  0.51987  1.0000
  H   H1507     1.0  0.52503  0.34022  0.57002  1.0000
  C   C892      1.0  0.87449  0.47989  0.60581  1.0000
  H   H1508     1.0  0.80383  0.46086  0.59373  1.0000
  H   H1509     1.0  0.53111  0.05609  0.56681  1.0000
  H   H1510     1.0  0.69428  0.33628  0.55373  1.0000
  C   C893      1.0  0.53322  0.19748  0.58825  1.0000
  C   C894      1.0  0.58661  0.04501  0.56998  1.0000
  C   C895      1.0  0.58695  0.09055  0.51730  1.0000
  C   C896      1.0  0.52914  0.50802  0.71367  1.0000
  H   H1511     1.0  0.69824  0.40799  0.55689  1.0000
  C   C897      1.0  0.54006  0.47219  0.67981  1.0000
  H   H1512     1.0  0.71319  0.38005  0.55601  1.0000
  C   C898      1.0  0.75369  0.46240  0.52884  1.0000
  C   C899      1.0  0.61549  0.03771  0.52876  1.0000
  H   H1513     1.0  0.80937  0.44233  0.52344  1.0000
  H   H1514     1.0  0.54209  0.19824  0.57540  1.0000
  N   N63       1.0  0.55437  0.03583  0.57294  1.0000
  H   H1515     1.0  0.52655  0.36293  0.57312  1.0000
  H   H1516     1.0  0.96705  0.43276  0.56086  1.0000
  N   N64       1.0  0.60986  0.19013  0.51414  1.0000
  H   H1517     1.0  0.89406  0.42675  0.54924  1.0000
  H   H1518     1.0  0.69288  0.35238  0.52754  1.0000
  C   C900      1.0  0.54538  0.05793  0.59754  1.0000
  H   H1519     1.0  0.80739  0.47927  0.53961  1.0000
  C   C901      1.0  0.51812  0.34049  0.60488  1.0000
  C   C902      1.0  0.81975  0.46875  0.53971  1.0000
  C   C903      1.0  0.59220  0.10585  0.52276  1.0000
  N   N65       1.0  0.53188  0.48890  0.70856  1.0000
  H   H1520     1.0  0.68590  0.33627  0.57721  1.0000
  H   H1521     1.0  0.52328  0.04255  0.54102  1.0000
  H   H1522     1.0  0.53744  0.32726  0.67148  1.0000
  H   H1523     1.0  0.59412  0.03125  0.56830  1.0000
  H   H1524     1.0  0.94257  0.41431  0.57153  1.0000
  H   H1525     1.0  0.87894  0.49683  0.64066  1.0000
  C   C904      1.0  0.71018  0.37410  0.54421  1.0000
  H   H1526     1.0  0.00487  0.39487  0.52330  1.0000
  S   S259      1.0  0.53079  0.41475  0.68596  1.0000
  H   H1527     1.0  0.66544  0.35867  0.51509  1.0000
  H   H1528     1.0  0.58846  0.02889  0.51364  1.0000
  C   C905      1.0  0.00569  0.45844  0.55442  1.0000
  H   H1529     1.0  0.55974  0.47662  0.71153  1.0000
  C   C906      1.0  0.59230  0.19994  0.52292  1.0000
  S   S260      1.0  0.60434  0.26422  0.53032  1.0000
  H   H1530     1.0  0.58110  0.19145  0.52394  1.0000
  C   C907      1.0  0.55133  0.34890  0.56071  1.0000
  C   C908      1.0  0.83069  0.43568  0.55008  1.0000
  C   C909      1.0  0.74767  0.44627  0.52601  1.0000
  H   H1531     1.0  0.56241  0.06240  0.56263  1.0000
  C   C910      1.0  0.53664  0.04170  0.56509  1.0000
  S   S261      1.0  0.64200  0.49959  0.75540  1.0000
  C   C911      1.0  0.52372  0.34499  0.75295  1.0000
  Fe  Fe126     1.0  0.74449  0.50788  0.61325  1.0000
  H   H1532     1.0  0.84005  0.46289  0.63537  1.0000
  H   H1533     1.0  0.75825  0.47182  0.51722  1.0000
  Fe  Fe127     1.0  0.52087  0.10678  0.56449  1.0000
  S   S262      1.0  0.81178  0.48490  0.61843  1.0000
  H   H1534     1.0  0.60199  0.04603  0.52761  1.0000
  H   H1535     1.0  0.51663  0.30141  0.71161  1.0000
  C   C912      1.0  0.51373  0.48181  0.71153  1.0000
  H   H1536     1.0  0.51268  0.27436  0.53644  1.0000
  H   H1537     1.0  0.55725  0.33483  0.55800  1.0000
  H   H1538     1.0  0.51031  0.46900  0.74002  1.0000
  H   H1539     1.0  0.93555  0.41464  0.54159  1.0000
  C   C913      1.0  0.66627  0.36725  0.52581  1.0000
  H   H1540     1.0  0.80303  0.41583  0.54864  1.0000
  S   S263      1.0  0.95877  0.48911  0.52769  1.0000
  N   N66       1.0  0.92760  0.43784  0.55666  1.0000
  C   C914      1.0  0.92406  0.42589  0.54336  1.0000
  C   C915      1.0  0.94351  0.44767  0.54798  1.0000
  C   C916      1.0  0.91131  0.45182  0.56106  1.0000
  C   C917      1.0  0.93160  0.42591  0.57407  1.0000
  C   C918      1.0  0.90660  0.41668  0.54839  1.0000
  H   H1541     1.0  0.54322  0.05763  0.61261  1.0000
  C   C919      1.0  0.90430  0.46431  0.54453  1.0000
  C   C920      1.0  0.93616  0.43578  0.58920  1.0000
  H   H1542     1.0  0.92359  0.43364  0.52947  1.0000
  H   H1543     1.0  0.94416  0.45973  0.55483  1.0000
  H   H1544     1.0  0.94182  0.45352  0.53365  1.0000
  H   H1545     1.0  0.89974  0.44523  0.56904  1.0000
  H   H1546     1.0  0.91454  0.46109  0.57014  1.0000
  H   H1547     1.0  0.91961  0.41905  0.58038  1.0000
  N   N67       1.0  0.53669  0.34240  0.59437  1.0000
  C   C921      1.0  0.97851  0.39900  0.51401  1.0000
  H   H1548     1.0  0.78235  0.43024  0.55658  1.0000
  H   H1549     1.0  0.55607  0.36055  0.62576  1.0000
  C   C922      1.0  0.51675  0.35067  0.67368  1.0000
  H   H1550     1.0  0.91483  0.47244  0.53699  1.0000
  H   H1551     1.0  0.89253  0.47416  0.54945  1.0000
  H   H1552     1.0  0.89953  0.45660  0.53504  1.0000
  H   H1553     1.0  0.92356  0.44086  0.59793  1.0000
  H   H1554     1.0  0.94370  0.44741  0.58380  1.0000
  H   H1555     1.0  0.94525  0.42620  0.59782  1.0000
  H   H1556     1.0  0.58480  0.29923  0.51757  1.0000
  C   C923      1.0  0.86560  0.46935  0.62049  1.0000
  N   N68       1.0  0.81454  0.45049  0.54869  1.0000
  H   H1557     1.0  0.54086  0.34402  0.63055  1.0000
  H   H1558     1.0  0.67975  0.45375  0.73017  1.0000
  H   H1559     1.0  0.58357  0.19631  0.55256  1.0000
  H   H1560     1.0  0.82873  0.47415  0.54745  1.0000
  H   H1561     1.0  0.73682  0.35789  0.54285  1.0000
  C   C924      1.0  0.99916  0.42193  0.50909  1.0000
  H   H1562     1.0  0.85539  0.42982  0.56319  1.0000
  H   H1563     1.0  0.82705  0.42409  0.56051  1.0000
  H   H1564     1.0  0.55626  0.06657  0.59231  1.0000
  H   H1565     1.0  0.63202  0.16869  0.51990  1.0000
  H   H1566     1.0  0.71546  0.38295  0.53183  1.0000
  H   H1567     1.0  0.52607  0.03341  0.57253  1.0000
  H   H1568     1.0  0.56276  0.03265  0.60005  1.0000
  C   C925      1.0  0.79292  0.42776  0.54480  1.0000
  H   H1569     1.0  0.67833  0.50921  0.64615  1.0000
  H   H1570     1.0  0.65278  0.41525  0.72794  1.0000
  H   H1571     1.0  0.00116  0.45168  0.54403  1.0000
  H   H1572     1.0  0.58534  0.21927  0.54298  1.0000
  Fe  Fe128     1.0  0.52157  0.13664  0.58787  1.0000
  C   C926      1.0  0.53741  0.04030  0.54456  1.0000
  H   H1573     1.0  0.79962  0.43944  0.57408  1.0000
  H   H1574     1.0  0.51880  0.33583  0.61947  1.0000
  H   H1575     1.0  0.66012  0.38131  0.52098  1.0000
  H   H1576     1.0  0.52188  0.31764  0.73450  1.0000
  Fe  Fe129     1.0  0.76331  0.49720  0.57575  1.0000
  H   H1577     1.0  0.96275  0.42323  0.54130  1.0000
  H   H1578     1.0  0.83552  0.48190  0.51580  1.0000
  H   H1579     1.0  0.78574  0.42411  0.53417  1.0000
  C   C927      1.0  0.54673  0.47912  0.73858  1.0000
  Fe  Fe130     1.0  0.94509  0.50048  0.55320  1.0000
  H   H1580     1.0  0.81938  0.46909  0.51026  1.0000
  C   C928      1.0  0.54569  0.47606  0.71880  1.0000
  H   H1581     1.0  0.54384  0.02677  0.54083  1.0000
  S   S264      1.0  0.51137  0.13688  0.56110  1.0000
  C   C929      1.0  0.54818  0.32387  0.59511  1.0000
  S   S265      1.0  0.73458  0.41327  0.53766  1.0000
  H   H1582     1.0  0.53172  0.22626  0.59050  1.0000
  H   H1583     1.0  0.67008  0.33894  0.56140  1.0000
  S   S266      1.0  0.71598  0.50779  0.63043  1.0000
  H   H1584     1.0  0.87063  0.49969  0.58209  1.0000
  C   C930      1.0  0.92680  0.50197  0.51354  1.0000
  H   H1585     1.0  0.83442  0.42973  0.53701  1.0000
  N   N69       1.0  0.68996  0.37408  0.54481  1.0000
  C   C931      1.0  0.84654  0.47087  0.62358  1.0000
  H   H1586     1.0  0.79105  0.46224  0.56586  1.0000
  C   C932      1.0  0.51670  0.17967  0.61316  1.0000
  C   C933      1.0  0.80388  0.45264  0.56723  1.0000
  Fe  Fe131     1.0  0.51737  0.40170  0.73765  1.0000
  H   H1587     1.0  0.87351  0.46016  0.62990  1.0000
  C   C934      1.0  0.86392  0.49162  0.59364  1.0000
  H   H1588     1.0  0.54164  0.31427  0.58899  1.0000
  C   C935      1.0  0.00665  0.49026  0.59409  1.0000
  C   C936      1.0  0.54349  0.35689  0.62189  1.0000
  N   N70       1.0  0.66221  0.45561  0.69985  1.0000
  C   C937      1.0  0.64676  0.45791  0.68846  1.0000
  C   C938      1.0  0.66491  0.43577  0.70791  1.0000
  C   C939      1.0  0.67907  0.46004  0.68716  1.0000
  C   C940      1.0  0.65725  0.46845  0.71416  1.0000
  C   C941      1.0  0.64256  0.47682  0.67724  1.0000
  C   C942      1.0  0.64848  0.42909  0.72089  1.0000
  C   C943      1.0  0.69664  0.45905  0.69579  1.0000
  C   C944      1.0  0.66755  0.46410  0.73111  1.0000
  H   H1589     1.0  0.64929  0.44761  0.67868  1.0000
  H   H1590     1.0  0.63379  0.45538  0.69720  1.0000
  H   H1591     1.0  0.67684  0.43233  0.71546  1.0000
  H   H1592     1.0  0.66820  0.42683  0.69684  1.0000
  H   H1593     1.0  0.68210  0.45098  0.67619  1.0000
  H   H1594     1.0  0.67697  0.47422  0.68012  1.0000
  H   H1595     1.0  0.65910  0.48264  0.70794  1.0000
  H   H1596     1.0  0.64250  0.46900  0.71954  1.0000
  H   H1597     1.0  0.65296  0.47895  0.66515  1.0000
  H   H1598     1.0  0.62934  0.47759  0.67195  1.0000
  S   S267      1.0  0.53619  0.08932  0.54383  1.0000
  H   H1599     1.0  0.53982  0.03005  0.59993  1.0000
  C   C945      1.0  0.52424  0.33364  0.66793  1.0000
  C   C946      1.0  0.80197  0.44500  0.53706  1.0000
  H   H1600     1.0  0.70081  0.44543  0.70321  1.0000
  H   H1601     1.0  0.69550  0.46994  0.70468  1.0000
  H   H1602     1.0  0.70794  0.46181  0.68471  1.0000
  H   H1603     1.0  0.67230  0.47676  0.73365  1.0000
  H   H1604     1.0  0.54486  0.27141  0.52651  1.0000
  H   H1605     1.0  0.58529  0.04745  0.58440  1.0000
  S   S268      1.0  0.52937  0.36112  0.68669  1.0000
  H   H1606     1.0  0.54807  0.47371  0.66603  1.0000
  H   H1607     1.0  0.99621  0.48144  0.59566  1.0000
  H   H1608     1.0  0.61709  0.22525  0.52315  1.0000
  H   H1609     1.0  0.52814  0.35637  0.75847  1.0000
  S   S269      1.0  0.53719  0.16065  0.58618  1.0000
  H   H1610     1.0  0.68864  0.36649  0.57404  1.0000
  H   H1611     1.0  0.64318  0.43805  0.73161  1.0000
  H   H1612     1.0  0.50949  0.37009  0.60627  1.0000
  H   H1613     1.0  0.64118  0.48819  0.68551  1.0000
  H   H1614     1.0  0.51212  0.32957  0.60015  1.0000
  H   H1615     1.0  0.58808  0.21281  0.51405  1.0000
  H   H1616     1.0  0.99395  0.46696  0.56131  1.0000
  C   C947      1.0  0.62871  0.21540  0.51802  1.0000
  Fe  Fe132     1.0  0.51113  0.29195  0.58299  1.0000
  H   H1617     1.0  0.52070  0.31157  0.65352  1.0000
  C   C948      1.0  0.51482  0.32472  0.65765  1.0000
  H   H1618     1.0  0.60548  0.20421  0.54695  1.0000
  H   H1619     1.0  0.52645  0.46920  0.67794  1.0000
  H   H1620     1.0  0.66734  0.36888  0.56560  1.0000
  S   S270      1.0  0.52290  0.43004  0.72601  1.0000
  H   H1621     1.0  0.53252  0.36802  0.62573  1.0000
  H   H1622     1.0  0.52717  0.30109  0.51922  1.0000
  C   C949      1.0  0.50912  0.35299  0.74036  1.0000
  H   H1623     1.0  0.51279  0.16668  0.61970  1.0000
  H   H1624     1.0  0.53422  0.25500  0.51870  1.0000
  C   C950      1.0  0.52049  0.29300  0.51144  1.0000
  H   H1625     1.0  0.65805  0.36185  0.53847  1.0000
  Fe  Fe133     1.0  0.78654  0.49851  0.60551  1.0000
  H   H1626     1.0  0.55243  0.49432  0.68534  1.0000
  H   H1627     1.0  0.84033  0.45748  0.51814  1.0000
  H   H1628     1.0  0.66605  0.39470  0.54428  1.0000
  H   H1629     1.0  0.74748  0.44350  0.51232  1.0000
  H   H1630     1.0  0.85053  0.50813  0.62679  1.0000
  C   C951      1.0  0.53858  0.49005  0.68836  1.0000
  C   C952      1.0  0.51681  0.21230  0.61391  1.0000
  H   H1631     1.0  0.68065  0.39760  0.57260  1.0000
  C   C953      1.0  0.56043  0.01591  0.57035  1.0000
  H   H1632     1.0  0.85829  0.44309  0.54160  1.0000
  C   C954      1.0  0.51138  0.19543  0.62198  1.0000
  S   S271      1.0  0.51128  0.23136  0.62619  1.0000
  C   C955      1.0  0.00249  0.49904  0.54230  1.0000
  C   C956      1.0  0.51246  0.02158  0.63114  1.0000
  H   H1633     1.0  0.68582  0.40154  0.53028  1.0000
  H   H1634     1.0  0.53604  0.33805  0.74524  1.0000
  H   H1635     1.0  0.59411  0.16610  0.54274  1.0000
  H   H1636     1.0  0.62426  0.18162  0.53795  1.0000
  C   C957      1.0  0.60805  0.16061  0.53700  1.0000
  H   H1637     1.0  0.61497  0.15291  0.54852  1.0000
  H   H1638     1.0  0.61410  0.02315  0.53337  1.0000
  H   H1639     1.0  0.90079  0.50413  0.63748  1.0000
  C   C958      1.0  0.51281  0.32596  0.72497  1.0000
  S   S272      1.0  0.61218  0.11410  0.51175  1.0000
  H   H1640     1.0  0.97561  0.38540  0.51970  1.0000
  H   H1641     1.0  0.52205  0.33330  0.71431  1.0000
  C   C959      1.0  0.51027  0.03989  0.63424  1.0000
  H   H1642     1.0  0.55292  0.49157  0.73899  1.0000
  C   C960      1.0  0.99519  0.40433  0.51597  1.0000
  C   C961      1.0  0.88594  0.50904  0.63985  1.0000
  H   H1643     1.0  0.51532  0.46779  0.70771  1.0000
  H   H1644     1.0  0.51402  0.04321  0.64665  1.0000
  C   C962      1.0  0.50770  0.01681  0.61525  1.0000
  H   H1645     1.0  0.56616  0.24455  0.51829  1.0000
  H   H1646     1.0  0.52731  0.09084  0.50924  1.0000
  C   C963      1.0  0.61935  0.17570  0.52721  1.0000
  H   H1647     1.0  0.53342  0.47984  0.74729  1.0000
  H   H1648     1.0  0.51620  0.36053  0.72802  1.0000
  H   H1649     1.0  0.63885  0.22380  0.50987  1.0000
  H   H1650     1.0  0.52959  0.50069  0.68049  1.0000
  Fe  Fe134     1.0  0.50669  0.42696  0.70409  1.0000
  C   C964      1.0  0.51234  0.12530  0.50992  1.0000
  H   H1651     1.0  0.54496  0.39927  0.76861  1.0000
  H   H1652     1.0  0.56105  0.40336  0.79414  1.0000
  C   C965      1.0  0.54279  0.42944  0.94448  1.0000
  Fe  Fe135     1.0  0.53678  0.45452  0.87246  1.0000
  S   S273      1.0  0.54913  0.48046  0.86360  1.0000
  S   S274      1.0  0.55389  0.42705  0.87492  1.0000
  H   H1653     1.0  0.61362  0.48473  0.99263  1.0000
  S   S275      1.0  0.51584  0.40942  0.88090  1.0000
  H   H1654     1.0  0.59481  0.37038  0.87489  1.0000
  H   H1655     1.0  0.57946  0.38892  0.86446  1.0000
  C   C966      1.0  0.64067  0.50348  0.99977  1.0000
  S   S276      1.0  0.53637  0.40215  0.92588  1.0000
  H   H1656     1.0  0.54915  0.44976  0.95928  1.0000
  H   H1657     1.0  0.55297  0.33929  0.92091  1.0000
  H   H1658     1.0  0.51061  0.40523  0.83023  1.0000
  C   C967      1.0  0.56829  0.44736  0.81168  1.0000
  C   C968      1.0  0.59286  0.45892  0.95749  1.0000
  H   H1659     1.0  0.64555  0.50687  0.80324  1.0000
  H   H1660     1.0  0.53273  0.36911  0.84889  1.0000
  C   C969      1.0  0.57344  0.48513  0.81499  1.0000
  H   H1661     1.0  0.52948  0.38879  0.96411  1.0000
  C   C970      1.0  0.53746  0.41213  0.94570  1.0000
  H   H1662     1.0  0.53277  0.37487  0.90197  1.0000
  C   C971      1.0  0.64159  0.50400  0.83279  1.0000
  C   C972      1.0  0.55248  0.49160  0.88159  1.0000
  H   H1663     1.0  0.60413  0.44956  0.98230  1.0000
  H   H1664     1.0  0.62351  0.45440  0.79308  1.0000
  C   C973      1.0  0.56160  0.50695  0.87765  1.0000
  C   C974      1.0  0.54833  0.49506  0.91381  1.0000
  C   C975      1.0  0.54583  0.48565  0.89967  1.0000
  H   H1665     1.0  0.65385  0.49437  0.83412  1.0000
  S   S277      1.0  0.61227  0.50089  0.92180  1.0000
  H   H1666     1.0  0.54341  0.49031  0.92781  1.0000
  H   H1667     1.0  0.53893  0.47372  0.90284  1.0000
  C   C976      1.0  0.53740  0.40068  0.78196  1.0000
  C   C977      1.0  0.54650  0.40299  0.79647  1.0000
  H   H1668     1.0  0.59074  0.48015  0.85387  1.0000
  S   S278      1.0  0.63580  0.50262  0.96414  1.0000
  Fe  Fe136     1.0  0.53529  0.41970  0.85691  1.0000
  H   H1669     1.0  0.60297  0.48395  0.78877  1.0000
  H   H1670     1.0  0.58090  0.45792  0.84113  1.0000
  C   C978      1.0  0.60114  0.46301  0.97391  1.0000
  S   S279      1.0  0.63796  0.50156  0.87027  1.0000
  H   H1671     1.0  0.58070  0.45183  0.96198  1.0000
  H   H1672     1.0  0.56249  0.36787  0.85696  1.0000
  H   H1673     1.0  0.54773  0.38545  0.86728  1.0000
  H   H1674     1.0  0.61011  0.48320  0.83676  1.0000
  H   H1675     1.0  0.58317  0.50326  0.83135  1.0000
  C   C979      1.0  0.57623  0.50401  0.81922  1.0000
  H   H1676     1.0  0.55273  0.36228  0.92632  1.0000
  C   C980      1.0  0.57234  0.46908  0.99368  1.0000
  H   H1677     1.0  0.56767  0.48780  0.80179  1.0000
  H   H1678     1.0  0.54593  0.43718  0.93124  1.0000
  C   C981      1.0  0.58572  0.45604  0.80384  1.0000
  H   H1679     1.0  0.57391  0.49345  0.96504  1.0000
  H   H1680     1.0  0.63507  0.47328  0.79382  1.0000
  C   C982      1.0  0.53693  0.40466  0.81397  1.0000
  H   H1681     1.0  0.58438  0.46154  0.78932  1.0000
  S   S280      1.0  0.54910  0.40613  0.83218  1.0000
  S   S281      1.0  0.51956  0.44772  0.85315  1.0000
  C   C983      1.0  0.54091  0.42657  0.97777  1.0000
  H   H1682     1.0  0.60306  0.44949  0.94974  1.0000
  C   C984      1.0  0.56810  0.37629  0.89176  1.0000
  H   H1683     1.0  0.55900  0.38909  0.89464  1.0000
  C   C985      1.0  0.55122  0.37034  0.86826  1.0000
  C   C986      1.0  0.53508  0.40948  0.97903  1.0000
  N   N71       1.0  0.58958  0.47675  0.98527  1.0000
  C   C987      1.0  0.60170  0.47310  0.84459  1.0000
  N   N72       1.0  0.55734  0.36276  0.88659  1.0000
  H   H1684     1.0  0.56385  0.46823  0.98293  1.0000
  C   C988      1.0  0.54106  0.36121  0.90106  1.0000
  H   H1685     1.0  0.57527  0.45456  0.99981  1.0000
  C   C989      1.0  0.56972  0.34489  0.88550  1.0000
  H   H1686     1.0  0.58098  0.34638  0.87407  1.0000
  S   S282      1.0  0.50714  0.39450  0.76764  1.0000
  C   C990      1.0  0.56110  0.32835  0.88238  1.0000
  H   H1687     1.0  0.59055  0.39213  0.88292  1.0000
  C   C991      1.0  0.50914  0.40117  0.80246  1.0000
  C   C992      1.0  0.60076  0.47979  0.99944  1.0000
  S   S283      1.0  0.54434  0.43601  0.99718  1.0000
  S   S284      1.0  0.51735  0.44774  0.89760  1.0000
  H   H1688     1.0  0.56238  0.48032  0.82543  1.0000
  H   H1689     1.0  0.57700  0.34088  0.89772  1.0000
  H   H1690     1.0  0.61464  0.46760  0.96847  1.0000
  C   C993      1.0  0.54472  0.43649  0.96042  1.0000
  Fe  Fe137     1.0  0.53281  0.41958  0.89868  1.0000
  H   H1691     1.0  0.61613  0.45260  0.00681  1.0000
  C   C994      1.0  0.53354  0.40223  0.96304  1.0000
  C   C995      1.0  0.58407  0.38203  0.87750  1.0000
  H   H1692     1.0  0.56152  0.32771  0.86757  1.0000
  H   H1693     1.0  0.54699  0.32804  0.88920  1.0000
  H   H1694     1.0  0.56891  0.31559  0.88847  1.0000
  N   N73       1.0  0.58993  0.47064  0.81397  1.0000
  H   H1695     1.0  0.55574  0.45740  0.81111  1.0000
  C   C996      1.0  0.60605  0.47861  0.80286  1.0000
  H   H1696     1.0  0.61102  0.46380  0.85319  1.0000
  C   C997      1.0  0.59366  0.46182  0.83281  1.0000
  H   H1697     1.0  0.59704  0.44448  0.80336  1.0000
  C   C998      1.0  0.62411  0.46550  0.80121  1.0000
  C   C999      1.0  0.58539  0.49426  0.97266  1.0000
  H   H1698     1.0  0.50879  0.49289  0.84945  1.0000
  H   H1699     1.0  0.56880  0.44046  0.82582  1.0000
  H   H1700     1.0  0.53228  0.35237  0.92961  1.0000
  H   H1701     1.0  0.60902  0.49069  0.80823  1.0000
  C   C1000     1.0  0.51871  0.39945  0.78497  1.0000
  H   H1702     1.0  0.59725  0.49646  0.96201  1.0000
  H   H1703     1.0  0.57408  0.37093  0.90456  1.0000
  H   H1704     1.0  0.56699  0.43667  0.80327  1.0000
  H   H1705     1.0  0.60270  0.44852  0.83225  1.0000
  H   H1706     1.0  0.64346  0.48875  0.00058  1.0000
  H   H1707     1.0  0.58948  0.47132  0.94780  1.0000
  H   H1708     1.0  0.53224  0.40164  0.99228  1.0000
  H   H1709     1.0  0.52170  0.36900  0.87168  1.0000
  H   H1710     1.0  0.62825  0.45968  0.81473  1.0000
  H   H1711     1.0  0.58708  0.43492  0.76058  1.0000
  H   H1712     1.0  0.53153  0.35269  0.89766  1.0000
  H   H1713     1.0  0.53555  0.34858  0.86436  1.0000
  C   C1001     1.0  0.53437  0.36360  0.86330  1.0000
  H   H1714     1.0  0.54966  0.49020  0.00127  1.0000
  H   H1715     1.0  0.51856  0.33547  0.76471  1.0000
  H   H1716     1.0  0.51611  0.46607  0.97064  1.0000
  C   C1002     1.0  0.51814  0.40404  0.81683  1.0000
  C   C1003     1.0  0.54534  0.35328  0.92045  1.0000
  H   H1717     1.0  0.51221  0.49425  0.88084  1.0000
  H   H1718     1.0  0.50844  0.50724  0.90801  1.0000
  C   C1004     1.0  0.55951  0.47959  0.00794  1.0000
  H   H1719     1.0  0.59394  0.49073  0.00757  1.0000
  S   S285      1.0  0.52663  0.60839  0.07292  1.0000
  S   S286      1.0  0.64092  0.54218  0.03296  1.0000
  Fe  Fe138     1.0  0.54558  0.62127  0.05029  1.0000
  S   S287      1.0  0.57572  0.61703  0.05037  1.0000
  S   S288      1.0  0.52899  0.64896  0.04798  1.0000
  H   H1720     1.0  0.62956  0.54254  0.15988  1.0000
  H   H1721     1.0  0.57920  0.55822  0.22067  1.0000
  C   C1005     1.0  0.57882  0.56851  0.20830  1.0000
  H   H1722     1.0  0.60472  0.57500  0.21079  1.0000
  H   H1723     1.0  0.59786  0.55768  0.01241  1.0000
  C   C1006     1.0  0.59854  0.57062  0.19987  1.0000
  H   H1724     1.0  0.57109  0.56349  0.19901  1.0000
  H   H1725     1.0  0.60579  0.55671  0.19788  1.0000
  S   S289      1.0  0.64289  0.54146  0.08646  1.0000
  H   H1726     1.0  0.55718  0.69326  0.23644  1.0000
  H   H1727     1.0  0.54791  0.53121  0.05238  1.0000
  S   S290      1.0  0.64269  0.53788  0.19435  1.0000
  H   H1728     1.0  0.60139  0.67290  0.05808  1.0000
  H   H1729     1.0  0.58876  0.58197  0.13924  1.0000
  H   H1730     1.0  0.61173  0.58288  0.14214  1.0000
  H   H1731     1.0  0.58705  0.64761  0.24758  1.0000
  C   C1007     1.0  0.63880  0.53097  0.01420  1.0000
  C   C1008     1.0  0.56663  0.58663  0.25450  1.0000
  Fe  Fe139     1.0  0.52309  0.64142  0.19643  1.0000
  S   S291      1.0  0.64904  0.53682  0.24638  1.0000
  Fe  Fe140     1.0  0.54375  0.62812  0.22947  1.0000
  S   S292      1.0  0.53976  0.65492  0.21172  1.0000
  S   S293      1.0  0.57327  0.61894  0.23313  1.0000
  H   H1732     1.0  0.54181  0.62147  0.13380  1.0000
  H   H1733     1.0  0.62793  0.56999  0.17309  1.0000
  Fe  Fe141     1.0  0.61606  0.53212  0.09807  1.0000
  H   H1734     1.0  0.58735  0.55626  0.04701  1.0000
  H   H1735     1.0  0.55472  0.53478  0.08173  1.0000
  H   H1736     1.0  0.58220  0.57889  0.00998  1.0000
  H   H1737     1.0  0.56701  0.67766  0.05855  1.0000
  C   C1009     1.0  0.57794  0.56228  0.03692  1.0000
  H   H1738     1.0  0.64589  0.59090  0.18429  1.0000
  H   H1739     1.0  0.56364  0.59668  0.18638  1.0000
  H   H1740     1.0  0.57623  0.52993  0.06832  1.0000
  H   H1741     1.0  0.51633  0.53864  0.07647  1.0000
  H   H1742     1.0  0.59358  0.66612  0.03905  1.0000
  H   H1743     1.0  0.57932  0.53608  0.01135  1.0000
  C   C1010     1.0  0.56540  0.52324  0.24409  1.0000
  C   C1011     1.0  0.57959  0.59697  0.24428  1.0000
  H   H1744     1.0  0.56134  0.67237  0.11871  1.0000
  H   H1745     1.0  0.52009  0.59085  0.16408  1.0000
  S   S294      1.0  0.53429  0.61162  0.02800  1.0000
  H   H1746     1.0  0.56549  0.52241  0.02680  1.0000
  Fe  Fe142     1.0  0.64576  0.52285  0.22257  1.0000
  C   C1012     1.0  0.55411  0.54374  0.05277  1.0000
  C   C1013     1.0  0.59239  0.60277  0.18515  1.0000
  Fe  Fe143     1.0  0.64076  0.52756  0.06207  1.0000
  H   H1747     1.0  0.67688  0.51482  0.18339  1.0000
  C   C1014     1.0  0.64272  0.53423  0.15861  1.0000
  C   C1015     1.0  0.57496  0.53263  0.02622  1.0000
  C   C1016     1.0  0.59378  0.57610  0.16763  1.0000
  S   S295      1.0  0.52868  0.61425  0.21335  1.0000
  C   C1017     1.0  0.62128  0.58356  0.17678  1.0000
  H   H1748     1.0  0.62551  0.60138  0.19660  1.0000
  H   H1749     1.0  0.59955  0.61282  0.17521  1.0000
  C   C1018     1.0  0.58116  0.59951  0.06779  1.0000
  C   C1019     1.0  0.59636  0.58646  0.06463  1.0000
  C   C1020     1.0  0.59988  0.57151  0.07787  1.0000
  C   C1021     1.0  0.58864  0.56992  0.09461  1.0000
  C   C1022     1.0  0.57381  0.58339  0.09808  1.0000
  C   C1023     1.0  0.57002  0.59813  0.08461  1.0000
  H   H1750     1.0  0.56513  0.58226  0.11103  1.0000
  H   H1751     1.0  0.55863  0.60855  0.08735  1.0000
  C   C1024     1.0  0.64996  0.52825  0.14177  1.0000
  H   H1752     1.0  0.52772  0.62568  0.10526  1.0000
  S   S296      1.0  0.59283  0.55085  0.11088  1.0000
  H   H1753     1.0  0.52867  0.54392  0.03123  1.0000
  C   C1025     1.0  0.59012  0.56908  0.01946  1.0000
  H   H1754     1.0  0.57095  0.67190  0.23301  1.0000
  C   C1026     1.0  0.63198  0.58867  0.19097  1.0000
  C   C1027     1.0  0.56400  0.54016  0.06981  1.0000
  H   H1755     1.0  0.51653  0.59599  0.18692  1.0000
  C   C1028     1.0  0.58357  0.64321  0.09003  1.0000
  H   H1756     1.0  0.57034  0.61474  0.16877  1.0000
  H   H1757     1.0  0.57006  0.57456  0.04267  1.0000
  C   C1029     1.0  0.59382  0.66289  0.05401  1.0000
  H   H1758     1.0  0.54248  0.55460  0.05584  1.0000
  H   H1759     1.0  0.59406  0.60574  0.19893  1.0000
  C   C1030     1.0  0.52929  0.63071  0.13261  1.0000
  C   C1031     1.0  0.57397  0.66397  0.06360  1.0000
  H   H1760     1.0  0.57086  0.69003  0.08412  1.0000
  S   S297      1.0  0.51940  0.63490  0.25006  1.0000
  Fe  Fe144     1.0  0.51439  0.66119  0.23141  1.0000
  H   H1761     1.0  0.54037  0.68786  0.09119  1.0000
  H   H1762     1.0  0.58579  0.67003  0.11829  1.0000
  H   H1763     1.0  0.57652  0.64165  0.12021  1.0000
  H   H1764     1.0  0.53779  0.67899  0.07048  1.0000
  H   H1765     1.0  0.60140  0.64890  0.05627  1.0000
  H   H1766     1.0  0.61121  0.56113  0.07492  1.0000
  C   C1032     1.0  0.51038  0.59026  0.17683  1.0000
  H   H1767     1.0  0.62397  0.59338  0.16427  1.0000
  C   C1033     1.0  0.57200  0.60794  0.18278  1.0000
  H   H1768     1.0  0.60514  0.58756  0.05173  1.0000
  C   C1034     1.0  0.57397  0.67751  0.11171  1.0000
  C   C1035     1.0  0.55176  0.65878  0.09040  1.0000
  H   H1769     1.0  0.63391  0.57734  0.20224  1.0000
  H   H1770     1.0  0.51518  0.51783  0.05382  1.0000
  Fe  Fe145     1.0  0.51575  0.63814  0.02736  1.0000
  C   C1036     1.0  0.57832  0.63299  0.10916  1.0000
  H   H1771     1.0  0.57892  0.57565  0.17062  1.0000
  H   H1772     1.0  0.56580  0.62669  0.10960  1.0000
  N   N74       1.0  0.57156  0.66071  0.08422  1.0000
  H   H1773     1.0  0.54892  0.65526  0.10536  1.0000
  C   C1037     1.0  0.53797  0.67576  0.08541  1.0000
  H   H1774     1.0  0.57217  0.69201  0.11426  1.0000
  N   N75       1.0  0.56520  0.54923  0.03466  1.0000
  H   H1775     1.0  0.59982  0.56155  0.16690  1.0000
  C   C1038     1.0  0.59810  0.58986  0.24304  1.0000
  H   H1776     1.0  0.51652  0.51513  0.08558  1.0000
  C   C1039     1.0  0.55998  0.67872  0.24239  1.0000
  H   H1777     1.0  0.59798  0.64565  0.08920  1.0000
  H   H1778     1.0  0.56765  0.55297  0.07326  1.0000
  C   C1040     1.0  0.65230  0.52937  0.17372  1.0000
  N   N76       1.0  0.60103  0.58352  0.18239  1.0000
  H   H1779     1.0  0.58385  0.63304  0.08050  1.0000
  H   H1780     1.0  0.58931  0.62153  0.11209  1.0000
  H   H1781     1.0  0.52404  0.67290  0.09135  1.0000
  C   C1041     1.0  0.53708  0.54880  0.01847  1.0000
  C   C1042     1.0  0.57719  0.67678  0.09094  1.0000
  H   H1782     1.0  0.56745  0.65396  0.05801  1.0000
  H   H1783     1.0  0.59203  0.67724  0.08687  1.0000
  H   H1784     1.0  0.54802  0.64711  0.08468  1.0000
  H   H1785     1.0  0.56589  0.61846  0.19181  1.0000
  C   C1043     1.0  0.59735  0.58639  0.14822  1.0000
  S   S298      1.0  0.53278  0.63738  0.16667  1.0000
  H   H1786     1.0  0.59405  0.60140  0.14792  1.0000
  H   H1787     1.0  0.57153  0.58140  0.21304  1.0000
  C   C1044     1.0  0.60370  0.57233  0.25168  1.0000
  C   C1045     1.0  0.52131  0.63307  0.11642  1.0000
  C   C1046     1.0  0.52116  0.64009  0.14735  1.0000
  H   H1788     1.0  0.64241  0.53216  0.13024  1.0000
  H   H1789     1.0  0.52766  0.55815  0.01001  1.0000
  S   S299      1.0  0.61911  0.51382  0.23536  1.0000
  H   H1790     1.0  0.51428  0.72394  0.25157  1.0000
  H   H1791     1.0  0.54720  0.67286  0.24284  1.0000
  H   H1792     1.0  0.60818  0.59786  0.23523  1.0000
  C   C1047     1.0  0.66929  0.51845  0.17186  1.0000
  H   H1793     1.0  0.60074  0.51461  0.02415  1.0000
  H   H1794     1.0  0.55582  0.53205  0.23543  1.0000
  Fe  Fe146     1.0  0.50906  0.63549  0.06945  1.0000
  C   C1048     1.0  0.55205  0.55944  0.02199  1.0000
  H   H1795     1.0  0.61802  0.56695  0.25061  1.0000
  H   H1796     1.0  0.60038  0.57657  0.02330  1.0000
  H   H1797     1.0  0.60045  0.53083  0.03862  1.0000
  H   H1798     1.0  0.55231  0.59210  0.25557  1.0000
  S   S300      1.0  0.61315  0.52027  0.07321  1.0000
  H   H1799     1.0  0.54501  0.57222  0.02734  1.0000
  H   H1800     1.0  0.55585  0.64522  0.25686  1.0000
  Fe  Fe147     1.0  0.51353  0.60160  0.05042  1.0000
  H   H1801     1.0  0.57813  0.51872  0.23528  1.0000
  H   H1802     1.0  0.56877  0.53210  0.25332  1.0000
  H   H1803     1.0  0.59826  0.66278  0.25624  1.0000
  C   C1049     1.0  0.50789  0.52731  0.07948  1.0000
  S   S301      1.0  0.50923  0.68945  0.24153  1.0000
  C   C1050     1.0  0.59164  0.52198  0.03464  1.0000
  H   H1804     1.0  0.50899  0.57587  0.18245  1.0000
  H   H1805     1.0  0.54284  0.53716  0.01079  1.0000
  C   C1051     1.0  0.66697  0.51747  0.13977  1.0000
  Fe  Fe148     1.0  0.65449  0.51382  0.09937  1.0000
  H   H1806     1.0  0.54150  0.50940  0.25371  1.0000
  C   C1052     1.0  0.67669  0.51267  0.15484  1.0000
  C   C1053     1.0  0.64151  0.51191  0.01523  1.0000
  H   H1807     1.0  0.61082  0.51208  0.19682  1.0000
  H   H1808     1.0  0.58758  0.51178  0.04634  1.0000
  Fe  Fe149     1.0  0.66365  0.50953  0.25754  1.0000
  H   H1809     1.0  0.58309  0.82731  0.41841  1.0000
  N   N77       1.0  0.71371  0.59020  0.45659  1.0000
  S   S302      1.0  0.55265  0.89825  0.40148  1.0000
  S   S303      1.0  0.52613  0.91856  0.36045  1.0000
  Fe  Fe150     1.0  0.57609  0.96422  0.45137  1.0000
  S   S304      1.0  0.60140  0.95721  0.43235  1.0000
  S   S305      1.0  0.54851  0.96659  0.44275  1.0000
  Fe  Fe151     1.0  0.59638  0.96638  0.48189  1.0000
  S   S306      1.0  0.62391  0.95868  0.46601  1.0000
  H   H1810     1.0  0.59108  0.97660  0.37422  1.0000
  Fe  Fe152     1.0  0.61256  0.97876  0.44360  1.0000
  C   C1054     1.0  0.55382  0.73803  0.45777  1.0000
  Fe  Fe153     1.0  0.61048  0.93748  0.45614  1.0000
  S   S307      1.0  0.62355  0.90981  0.44735  1.0000
  S   S308      1.0  0.58623  0.98772  0.45998  1.0000
  S   S309      1.0  0.58411  0.94334  0.47447  1.0000
  Fe  Fe154     1.0  0.95165  0.61125  0.47259  1.0000
  S   S310      1.0  0.94566  0.63593  0.48753  1.0000
  H   H1811     1.0  0.65781  0.75457  0.36730  1.0000
  Fe  Fe155     1.0  0.95164  0.63330  0.43550  1.0000
  S   S311      1.0  0.94569  0.66002  0.44696  1.0000
  S   S312      1.0  0.95328  0.62830  0.40634  1.0000
  Fe  Fe156     1.0  0.96663  0.64738  0.46563  1.0000
  S   S313      1.0  0.99041  0.66141  0.46938  1.0000
  Fe  Fe157     1.0  0.92520  0.64622  0.46764  1.0000
  S   S314      1.0  0.89622  0.66065  0.47457  1.0000
  S   S315      1.0  0.97391  0.62193  0.45242  1.0000
  S   S316      1.0  0.92984  0.62056  0.45464  1.0000
  Fe  Fe158     1.0  0.94660  0.53184  0.39007  1.0000
  S   S317      1.0  0.93248  0.54703  0.36685  1.0000
  S   S318      1.0  0.95443  0.54302  0.41343  1.0000
  Fe  Fe159     1.0  0.95542  0.53156  0.34969  1.0000
  S   S319      1.0  0.97288  0.54451  0.32528  1.0000
  H   H1812     1.0  0.57183  0.61906  0.27499  1.0000
  H   H1813     1.0  0.61255  0.88870  0.38136  1.0000
  C   C1055     1.0  0.00432  0.54302  0.34168  1.0000
  C   C1056     1.0  0.00600  0.55414  0.30958  1.0000
  Fe  Fe160     1.0  0.53511  0.75198  0.36341  1.0000
  S   S320      1.0  0.55155  0.74249  0.38714  1.0000
  S   S321      1.0  0.54671  0.75287  0.33376  1.0000
  Fe  Fe161     1.0  0.76251  0.53251  0.38160  1.0000
  S   S322      1.0  0.76662  0.54620  0.35271  1.0000
  S   S323      1.0  0.76075  0.54349  0.40857  1.0000
  C   C1057     1.0  0.51869  0.84974  0.33854  1.0000
  H   H1814     1.0  0.66570  0.78243  0.41464  1.0000
  Fe  Fe162     1.0  0.78971  0.52312  0.34878  1.0000
  S   S324      1.0  0.81796  0.52835  0.33449  1.0000
  S   S325      1.0  0.51282  0.73609  0.36015  1.0000
  H   H1815     1.0  0.52851  0.73660  0.42818  1.0000
  Fe  Fe163     1.0  0.79163  0.64167  0.46690  1.0000
  S   S326      1.0  0.77702  0.65933  0.44490  1.0000
  S   S327      1.0  0.82246  0.63204  0.46536  1.0000
  Fe  Fe164     1.0  0.75630  0.62698  0.48558  1.0000
  S   S328      1.0  0.73934  0.64346  0.46481  1.0000
  H   H1816     1.0  0.57147  0.86269  0.49644  1.0000
  Fe  Fe165     1.0  0.76296  0.63509  0.44403  1.0000
  S   S329      1.0  0.75866  0.62688  0.41709  1.0000
  Fe  Fe166     1.0  0.75418  0.66661  0.46735  1.0000
  S   S330      1.0  0.74016  0.69648  0.46704  1.0000
  S   S331      1.0  0.77863  0.61703  0.46448  1.0000
  S   S332      1.0  0.77002  0.65054  0.48976  1.0000
  Fe  Fe167     1.0  0.61885  0.80203  0.47257  1.0000
  S   S333      1.0  0.63720  0.78949  0.44931  1.0000
  S   S334      1.0  0.61534  0.82851  0.48545  1.0000
  Fe  Fe168     1.0  0.59526  0.77146  0.47986  1.0000
  S   S335      1.0  0.61104  0.75666  0.45737  1.0000
  H   H1817     1.0  0.53830  0.00209  0.46324  1.0000
  Fe  Fe169     1.0  0.63645  0.76220  0.46734  1.0000
  S   S336      1.0  0.65690  0.73553  0.46857  1.0000
  Fe  Fe170     1.0  0.61106  0.78410  0.44087  1.0000
  S   S337      1.0  0.60383  0.79082  0.41208  1.0000
  S   S338      1.0  0.62014  0.77521  0.49135  1.0000
  S   S339      1.0  0.59313  0.79854  0.46248  1.0000
  C   C1058     1.0  0.71689  0.70703  0.46725  1.0000
  C   C1059     1.0  0.71292  0.72625  0.46578  1.0000
  C   C1060     1.0  0.69477  0.73523  0.46618  1.0000
  C   C1061     1.0  0.68021  0.72510  0.46819  1.0000
  C   C1062     1.0  0.68419  0.70589  0.46949  1.0000
  C   C1063     1.0  0.70233  0.69692  0.46898  1.0000
  H   H1818     1.0  0.72399  0.73427  0.46446  1.0000
  H   H1819     1.0  0.69209  0.74998  0.46513  1.0000
  H   H1820     1.0  0.67312  0.69783  0.47105  1.0000
  H   H1821     1.0  0.70504  0.68217  0.47018  1.0000
  H   H1822     1.0  0.80530  0.61149  0.49968  1.0000
  H   H1823     1.0  0.54039  0.82609  0.49348  1.0000
  C   C1064     1.0  0.51779  0.78139  0.45860  1.0000
  H   H1824     1.0  0.55307  0.72470  0.46652  1.0000
  C   C1065     1.0  0.68549  0.57435  0.47183  1.0000
  C   C1066     1.0  0.55984  0.62762  0.28136  1.0000
  C   C1067     1.0  0.76191  0.56667  0.40956  1.0000
  C   C1068     1.0  0.76857  0.57140  0.42451  1.0000
  C   C1069     1.0  0.76825  0.58983  0.42662  1.0000
  C   C1070     1.0  0.76090  0.60366  0.41396  1.0000
  C   C1071     1.0  0.75479  0.59893  0.39867  1.0000
  C   C1072     1.0  0.75536  0.58047  0.39641  1.0000
  H   H1825     1.0  0.77376  0.56077  0.43467  1.0000
  H   H1826     1.0  0.77332  0.59332  0.43824  1.0000
  H   H1827     1.0  0.74921  0.60958  0.38876  1.0000
  H   H1828     1.0  0.75014  0.57693  0.38486  1.0000
  C   C1073     1.0  0.56692  0.75582  0.39284  1.0000
  C   C1074     1.0  0.56827  0.77365  0.38435  1.0000
  C   C1075     1.0  0.57981  0.78421  0.39018  1.0000
  C   C1076     1.0  0.58980  0.77713  0.40473  1.0000
  C   C1077     1.0  0.58848  0.75928  0.41313  1.0000
  C   C1078     1.0  0.57724  0.74863  0.40710  1.0000
  H   H1829     1.0  0.56039  0.77934  0.37334  1.0000
  H   H1830     1.0  0.58081  0.79796  0.38350  1.0000
  H   H1831     1.0  0.59616  0.75362  0.42424  1.0000
  H   H1832     1.0  0.57631  0.73483  0.41369  1.0000
  H   H1833     1.0  0.71246  0.56747  0.47822  1.0000
  H   H1834     1.0  0.85441  0.62888  0.50202  1.0000
  H   H1835     1.0  0.58511  0.96404  0.39634  1.0000
  S   S340      1.0  0.72242  0.53495  0.33241  1.0000
  C   C1079     1.0  0.69973  0.51416  0.28604  1.0000
  H   H1836     1.0  0.95233  0.54618  0.45479  1.0000
  H   H1837     1.0  0.54370  0.65380  0.27680  1.0000
  H   H1838     1.0  0.51539  0.79443  0.44943  1.0000
  C   C1080     1.0  0.51140  0.93352  0.46995  1.0000
  C   C1081     1.0  0.58350  0.83897  0.40726  1.0000
  H   H1839     1.0  0.80087  0.53575  0.39863  1.0000
  S   S341      1.0  0.52395  0.71264  0.31683  1.0000
  C   C1082     1.0  0.85407  0.53047  0.33632  1.0000
  C   C1083     1.0  0.86964  0.52910  0.34525  1.0000
  H   H1840     1.0  0.54636  0.79542  0.42141  1.0000
  C   C1084     1.0  0.51764  0.97880  0.35525  1.0000
  H   H1841     1.0  0.85492  0.53510  0.32183  1.0000
  H   H1842     1.0  0.88238  0.53258  0.33764  1.0000
  H   H1843     1.0  0.51420  0.98435  0.46351  1.0000
  C   C1085     1.0  0.51886  0.71939  0.27987  1.0000
  H   H1844     1.0  0.78977  0.56240  0.37928  1.0000
  H   H1845     1.0  0.58244  0.68830  0.28822  1.0000
  H   H1846     1.0  0.93189  0.52731  0.44450  1.0000
  C   C1086     1.0  0.71118  0.62052  0.43483  1.0000
  H   H1847     1.0  0.69268  0.57199  0.43659  1.0000
  H   H1848     1.0  0.62486  0.87345  0.39739  1.0000
  C   C1087     1.0  0.51928  0.93864  0.48615  1.0000
  H   H1849     1.0  0.54025  0.99306  0.34254  1.0000
  C   C1088     1.0  0.95447  0.60458  0.40714  1.0000
  C   C1089     1.0  0.94742  0.59706  0.39410  1.0000
  C   C1090     1.0  0.94751  0.57806  0.39571  1.0000
  C   C1091     1.0  0.95491  0.56664  0.41017  1.0000
  C   C1092     1.0  0.96261  0.57416  0.42265  1.0000
  C   C1093     1.0  0.96217  0.59304  0.42126  1.0000
  H   H1850     1.0  0.94146  0.60591  0.38309  1.0000
  H   H1851     1.0  0.94160  0.57239  0.38596  1.0000
  H   H1852     1.0  0.96871  0.56546  0.43363  1.0000
  H   H1853     1.0  0.96787  0.59854  0.43119  1.0000
  C   C1094     1.0  0.87579  0.65243  0.47215  1.0000
  C   C1095     1.0  0.87595  0.63535  0.46653  1.0000
  C   C1096     1.0  0.85951  0.62962  0.46411  1.0000
  C   C1097     1.0  0.84269  0.64077  0.46742  1.0000
  C   C1098     1.0  0.84249  0.65781  0.47312  1.0000
  C   C1099     1.0  0.85896  0.66355  0.47552  1.0000
  H   H1854     1.0  0.88872  0.62657  0.46400  1.0000
  H   H1855     1.0  0.85981  0.61636  0.45980  1.0000
  H   H1856     1.0  0.82966  0.66650  0.47581  1.0000
  H   H1857     1.0  0.85867  0.67678  0.47990  1.0000
  H   H1858     1.0  0.52023  0.73351  0.28036  1.0000
  C   C1100     1.0  0.51917  0.74913  0.43144  1.0000
  H   H1859     1.0  0.79345  0.58908  0.39280  1.0000
  H   H1860     1.0  0.88272  0.52261  0.44422  1.0000
  H   H1861     1.0  0.61615  0.00638  0.47539  1.0000
  C   C1101     1.0  0.99586  0.54740  0.32579  1.0000
  H   H1862     1.0  0.71136  0.56674  0.41960  1.0000
  H   H1863     1.0  0.52042  0.82037  0.34618  1.0000
  C   C1102     1.0  0.62057  0.88740  0.45805  1.0000
  C   C1103     1.0  0.61157  0.88410  0.47576  1.0000
  C   C1104     1.0  0.61027  0.86601  0.48399  1.0000
  C   C1105     1.0  0.61746  0.85103  0.47447  1.0000
  C   C1106     1.0  0.62634  0.85434  0.45671  1.0000
  C   C1107     1.0  0.62797  0.87242  0.44860  1.0000
  H   H1864     1.0  0.60610  0.89547  0.48330  1.0000
  H   H1865     1.0  0.60394  0.86366  0.49794  1.0000
  H   H1866     1.0  0.63244  0.84292  0.44948  1.0000
  H   H1867     1.0  0.63524  0.87484  0.43501  1.0000
  C   C1108     1.0  0.55201  0.91754  0.41237  1.0000
  C   C1109     1.0  0.53923  0.93300  0.40880  1.0000
  C   C1110     1.0  0.53756  0.94778  0.41872  1.0000
  C   C1111     1.0  0.54951  0.94759  0.43139  1.0000
  C   C1112     1.0  0.56277  0.93246  0.43444  1.0000
  C   C1113     1.0  0.56391  0.91736  0.42508  1.0000
  H   H1868     1.0  0.53084  0.93375  0.39816  1.0000
  H   H1869     1.0  0.52748  0.95957  0.41609  1.0000
  H   H1870     1.0  0.57214  0.93221  0.44411  1.0000
  H   H1871     1.0  0.57402  0.90559  0.42771  1.0000
  H   H1872     1.0  0.64501  0.77455  0.41259  1.0000
  H   H1873     1.0  0.56266  0.85796  0.39322  1.0000
  H   H1874     1.0  0.67403  0.52815  0.29700  1.0000
  H   H1875     1.0  0.51180  0.96481  0.27642  1.0000
  H   H1876     1.0  0.00234  0.58651  0.33750  1.0000
  H   H1877     1.0  0.56248  0.76948  0.44188  1.0000
  H   H1878     1.0  0.64170  0.73934  0.37566  1.0000
  H   H1879     1.0  0.55372  0.80465  0.48971  1.0000
  C   C1114     1.0  0.52710  0.00568  0.39571  1.0000
  C   C1115     1.0  0.56359  0.84722  0.40512  1.0000
  H   H1880     1.0  0.58896  0.83267  0.39462  1.0000
  H   H1881     1.0  0.55630  0.85290  0.41750  1.0000
  H   H1882     1.0  0.55610  0.83626  0.40273  1.0000
  H   H1883     1.0  0.54790  0.62085  0.28034  1.0000
  S   S342      1.0  0.88747  0.52100  0.37629  1.0000
  H   H1884     1.0  0.54371  0.99654  0.41721  1.0000
  H   H1885     1.0  0.56655  0.74280  0.45997  1.0000
  N   N78       1.0  0.90066  0.67182  0.41323  1.0000
  C   C1116     1.0  0.92002  0.66673  0.40457  1.0000
  C   C1117     1.0  0.89514  0.65509  0.42547  1.0000
  C   C1118     1.0  0.90073  0.68674  0.42478  1.0000
  C   C1119     1.0  0.88876  0.67827  0.39829  1.0000
  C   C1120     1.0  0.92945  0.68235  0.39300  1.0000
  C   C1121     1.0  0.89649  0.63775  0.41614  1.0000
  C   C1122     1.0  0.88226  0.69430  0.43483  1.0000
  C   C1123     1.0  0.86816  0.67675  0.40326  1.0000
  H   H1886     1.0  0.92884  0.66046  0.41517  1.0000
  H   H1887     1.0  0.92077  0.65613  0.39538  1.0000
  H   H1888     1.0  0.88107  0.65754  0.43249  1.0000
  H   H1889     1.0  0.90375  0.65146  0.43674  1.0000
  H   H1890     1.0  0.91015  0.68196  0.43527  1.0000
  H   H1891     1.0  0.90590  0.69891  0.41642  1.0000
  H   H1892     1.0  0.89009  0.69276  0.39272  1.0000
  H   H1893     1.0  0.89352  0.67021  0.38664  1.0000
  H   H1894     1.0  0.94230  0.67631  0.38528  1.0000
  H   H1895     1.0  0.92098  0.69047  0.38291  1.0000
  H   H1896     1.0  0.93351  0.69141  0.40172  1.0000
  H   H1897     1.0  0.89043  0.64053  0.40322  1.0000
  H   H1898     1.0  0.91088  0.63129  0.41351  1.0000
  H   H1899     1.0  0.88906  0.62753  0.42546  1.0000
  H   H1900     1.0  0.87531  0.68356  0.44369  1.0000
  H   H1901     1.0  0.87321  0.70226  0.42517  1.0000
  H   H1902     1.0  0.88463  0.70388  0.44399  1.0000
  H   H1903     1.0  0.86032  0.68825  0.39527  1.0000
  H   H1904     1.0  0.86259  0.67741  0.41772  1.0000
  H   H1905     1.0  0.86492  0.66416  0.39893  1.0000
  S   S343      1.0  0.74284  0.60535  0.50536  1.0000
  H   H1906     1.0  0.64176  0.75923  0.38661  1.0000
  Fe  Fe171     1.0  0.52746  0.77933  0.33069  1.0000
  H   H1907     1.0  0.82273  0.63728  0.50508  1.0000
  H   H1908     1.0  0.00098  0.56802  0.41120  1.0000
  H   H1909     1.0  0.99328  0.60236  0.39783  1.0000
  Fe  Fe172     1.0  0.52301  0.73901  0.32995  1.0000
  H   H1910     1.0  0.51357  0.66883  0.27758  1.0000
  H   H1911     1.0  0.91439  0.58431  0.46137  1.0000
  C   C1124     1.0  0.69568  0.53129  0.31206  1.0000
  N   N79       1.0  0.56240  0.00088  0.39238  1.0000
  H   H1912     1.0  0.55969  0.66706  0.29741  1.0000
  H   H1913     1.0  0.69782  0.72662  0.42566  1.0000
  H   H1914     1.0  0.69815  0.70338  0.42296  1.0000
  H   H1915     1.0  0.58485  0.00221  0.35690  1.0000
  H   H1916     1.0  0.55844  0.85063  0.48487  1.0000
  H   H1917     1.0  0.89914  0.53633  0.43151  1.0000
  H   H1918     1.0  0.85099  0.51436  0.38816  1.0000
  C   C1125     1.0  0.83656  0.51988  0.36469  1.0000
  H   H1919     1.0  0.57669  0.64815  0.29894  1.0000
  C   C1126     1.0  0.52046  0.70661  0.29547  1.0000
  C   C1127     1.0  0.58948  0.65176  0.26060  1.0000
  H   H1920     1.0  0.58852  0.67274  0.30745  1.0000
  H   H1921     1.0  0.53793  0.83812  0.28984  1.0000
  H   H1922     1.0  0.51095  0.75277  0.41990  1.0000
  C   C1128     1.0  0.94775  0.53405  0.46341  1.0000
  C   C1129     1.0  0.52835  0.85952  0.30671  1.0000
  H   H1923     1.0  0.63987  0.00662  0.50581  1.0000
  C   C1130     1.0  0.86859  0.52336  0.36402  1.0000
  H   H1924     1.0  0.95836  0.52236  0.46035  1.0000
  N   N80       1.0  0.66135  0.73671  0.41196  1.0000
  C   C1131     1.0  0.67149  0.71953  0.42120  1.0000
  C   C1132     1.0  0.64152  0.73710  0.41975  1.0000
  C   C1133     1.0  0.66844  0.75289  0.41694  1.0000
  C   C1134     1.0  0.66469  0.73620  0.39160  1.0000
  C   C1135     1.0  0.69250  0.71757  0.41781  1.0000
  C   C1136     1.0  0.63249  0.72073  0.41685  1.0000
  C   C1137     1.0  0.65998  0.77198  0.40893  1.0000
  C   C1138     1.0  0.65052  0.74805  0.38009  1.0000
  H   H1925     1.0  0.66754  0.71824  0.43624  1.0000
  H   H1926     1.0  0.66773  0.70711  0.41695  1.0000
  H   H1927     1.0  0.63292  0.74963  0.41451  1.0000
  H   H1928     1.0  0.63992  0.73751  0.43474  1.0000
  H   H1929     1.0  0.66680  0.75252  0.43205  1.0000
  H   H1930     1.0  0.68330  0.75247  0.41230  1.0000
  H   H1931     1.0  0.67835  0.74016  0.38591  1.0000
  H   H1932     1.0  0.66520  0.72195  0.38857  1.0000
  H   H1933     1.0  0.62506  0.98644  0.48955  1.0000
  H   H1934     1.0  0.00351  0.54730  0.40153  1.0000
  S   S344      1.0  0.53551  0.80434  0.31218  1.0000
  H   H1935     1.0  0.75680  0.58478  0.47141  1.0000
  C   C1139     1.0  0.70197  0.60768  0.45044  1.0000
  H   H1936     1.0  0.68674  0.53953  0.32137  1.0000
  H   H1937     1.0  0.93651  0.57264  0.45412  1.0000
  H   H1938     1.0  0.53848  0.75519  0.47707  1.0000
  C   C1140     1.0  0.58244  0.84948  0.44475  1.0000
  C   C1141     1.0  0.56198  0.98257  0.38616  1.0000
  S   S345      1.0  0.95649  0.58157  0.48352  1.0000
  H   H1939     1.0  0.98091  0.60471  0.37050  1.0000
  H   H1940     1.0  0.52508  0.96535  0.35403  1.0000
  C   C1142     1.0  0.61103  0.87999  0.39476  1.0000
  H   H1941     1.0  0.84160  0.56015  0.39574  1.0000
  C   C1143     1.0  0.83743  0.52590  0.34600  1.0000
  H   H1942     1.0  0.73869  0.60259  0.45030  1.0000
  H   H1943     1.0  0.60536  0.88936  0.40507  1.0000
  H   H1944     1.0  0.50958  0.74585  0.44380  1.0000
  Fe  Fe173     1.0  0.74849  0.52696  0.34616  1.0000
  H   H1945     1.0  0.55324  0.68469  0.27003  1.0000
  H   H1946     1.0  0.57462  0.82401  0.49622  1.0000
  C   C1144     1.0  0.59804  0.86604  0.39402  1.0000
  H   H1947     1.0  0.54341  0.76145  0.42337  1.0000
  H   H1948     1.0  0.89454  0.52471  0.47341  1.0000
  H   H1949     1.0  0.51799  0.94054  0.45708  1.0000
  H   H1950     1.0  0.57801  0.95809  0.37660  1.0000
  H   H1951     1.0  0.54726  0.93998  0.50675  1.0000
  H   H1952     1.0  0.92821  0.60365  0.50509  1.0000
  H   H1953     1.0  0.94736  0.53524  0.47805  1.0000
  H   H1954     1.0  0.53058  0.87030  0.29557  1.0000
  H   H1955     1.0  0.71896  0.61314  0.42367  1.0000
  H   H1956     1.0  0.52540  0.92481  0.31148  1.0000
  H   H1957     1.0  0.00277  0.54696  0.44351  1.0000
  H   H1958     1.0  0.62219  0.84962  0.41987  1.0000
  H   H1959     1.0  0.98050  0.60001  0.33875  1.0000
  H   H1960     1.0  0.56520  0.52477  0.28310  1.0000
  C   C1145     1.0  0.91353  0.56052  0.44731  1.0000
  C   C1146     1.0  0.85195  0.51886  0.37365  1.0000
  H   H1961     1.0  0.51441  0.91865  0.46899  1.0000
  C   C1147     1.0  0.52964  0.82701  0.31756  1.0000
  C   C1148     1.0  0.55480  0.97995  0.50011  1.0000
  H   H1962     1.0  0.67712  0.57364  0.48546  1.0000
  H   H1963     1.0  0.84645  0.58315  0.38841  1.0000
  H   H1964     1.0  0.92706  0.51680  0.46714  1.0000
  C   C1149     1.0  0.89642  0.53551  0.46157  1.0000
  S   S346      1.0  0.62857  0.99899  0.42492  1.0000
  C   C1150     1.0  0.58766  0.86179  0.42683  1.0000
  H   H1965     1.0  0.50836  0.93060  0.27564  1.0000
  H   H1966     1.0  0.64044  0.99993  0.47507  1.0000
  H   H1967     1.0  0.98607  0.57307  0.38422  1.0000
  H   H1968     1.0  0.72679  0.60540  0.47223  1.0000
  C   C1151     1.0  0.58713  0.67371  0.29274  1.0000
  H   H1969     1.0  0.53765  0.94694  0.33106  1.0000
  C   C1152     1.0  0.52131  0.93416  0.29926  1.0000
  H   H1970     1.0  0.58479  0.87436  0.39165  1.0000
  N   N81       1.0  0.57165  0.65906  0.27108  1.0000
  C   C1153     1.0  0.71433  0.52705  0.31408  1.0000
  H   H1971     1.0  0.56349  0.80094  0.43293  1.0000
  H   H1972     1.0  0.61496  0.63913  0.27109  1.0000
  H   H1973     1.0  0.57539  0.87161  0.42379  1.0000
  H   H1974     1.0  0.57747  0.85833  0.45565  1.0000
  H   H1975     1.0  0.51475  0.00044  0.44330  1.0000
  C   C1154     1.0  0.72573  0.51653  0.30177  1.0000
  C   C1155     1.0  0.00122  0.57152  0.38153  1.0000
  N   N82       1.0  0.59573  0.85201  0.41062  1.0000
  C   C1156     1.0  0.57231  0.56930  0.26368  1.0000
  H   H1976     1.0  0.63795  0.82437  0.40300  1.0000
  Fe  Fe174     1.0  0.91807  0.52221  0.36920  1.0000
  H   H1977     1.0  0.63074  0.84372  0.38744  1.0000
  H   H1978     1.0  0.86019  0.56441  0.37862  1.0000
  C   C1157     1.0  0.51883  0.68827  0.29435  1.0000
  H   H1979     1.0  0.59430  0.84004  0.44927  1.0000
  H   H1980     1.0  0.95146  0.54733  0.50471  1.0000
  H   H1981     1.0  0.67701  0.58404  0.46287  1.0000
  S   S347      1.0  0.97007  0.51808  0.37291  1.0000
  H   H1982     1.0  0.55337  0.97416  0.39644  1.0000
  H   H1983     1.0  0.61861  0.82404  0.39192  1.0000
  C   C1158     1.0  0.53690  0.75162  0.46349  1.0000
  H   H1984     1.0  0.57133  0.84162  0.44376  1.0000
  N   N83       1.0  0.91307  0.54437  0.46217  1.0000
  H   H1985     1.0  0.61752  0.72372  0.42076  1.0000
  H   H1986     1.0  0.52606  0.99219  0.39175  1.0000
  S   S348      1.0  0.59781  0.54041  0.27376  1.0000
  H   H1987     1.0  0.00356  0.62917  0.37704  1.0000
  H   H1988     1.0  0.72414  0.56373  0.44767  1.0000
  C   C1159     1.0  0.94138  0.57607  0.50314  1.0000
  C   C1160     1.0  0.71945  0.57797  0.44178  1.0000
  C   C1161     1.0  0.70529  0.57680  0.42917  1.0000
  H   H1989     1.0  0.53532  0.96788  0.29233  1.0000
  H   H1990     1.0  0.59736  0.87034  0.43004  1.0000
  H   H1991     1.0  0.68945  0.60504  0.44569  1.0000
  H   H1992     1.0  0.52517  0.74382  0.46632  1.0000
  H   H1993     1.0  0.88934  0.57233  0.47738  1.0000
  H   H1994     1.0  0.83952  0.58260  0.35771  1.0000
  H   H1995     1.0  0.73861  0.57417  0.48444  1.0000
  H   H1996     1.0  0.82353  0.54061  0.39504  1.0000
  H   H1997     1.0  0.74765  0.56830  0.46177  1.0000
  C   C1162     1.0  0.61382  0.84119  0.41442  1.0000
  H   H1998     1.0  0.61182  0.82945  0.42527  1.0000
  H   H1999     1.0  0.60261  0.85937  0.38145  1.0000
  H   H2000     1.0  0.69781  0.72013  0.40314  1.0000
  H   H2001     1.0  0.50899  0.94274  0.33316  1.0000
  H   H2002     1.0  0.52764  0.98242  0.49314  1.0000
  C   C1163     1.0  0.52621  0.99452  0.34885  1.0000
  H   H2003     1.0  0.83751  0.55913  0.36175  1.0000
  C   C1164     1.0  0.54324  0.95284  0.31731  1.0000
  C   C1165     1.0  0.62574  0.83300  0.39809  1.0000
  H   H2004     1.0  0.79900  0.56576  0.34177  1.0000
  C   C1166     1.0  0.89407  0.56129  0.48794  1.0000
  H   H2005     1.0  0.60083  0.66953  0.28547  1.0000
  H   H2006     1.0  0.81199  0.59944  0.35174  1.0000
  H   H2007     1.0  0.82704  0.60820  0.37662  1.0000
  H   H2008     1.0  0.57594  0.68698  0.26021  1.0000
  H   H2009     1.0  0.54891  0.87207  0.49229  1.0000
  C   C1167     1.0  0.89635  0.52675  0.44412  1.0000
  C   C1168     1.0  0.58023  0.96986  0.38310  1.0000
  H   H2010     1.0  0.53572  0.53455  0.27075  1.0000
  C   C1169     1.0  0.92949  0.53009  0.45893  1.0000
  C   C1170     1.0  0.84596  0.56982  0.38382  1.0000
  S   S349      1.0  0.51743  0.77921  0.36050  1.0000
  H   H2011     1.0  0.70188  0.58997  0.42056  1.0000
  C   C1171     1.0  0.53250  0.84125  0.30345  1.0000
  Fe  Fe175     1.0  0.52760  0.90202  0.38782  1.0000
  H   H2012     1.0  0.91402  0.53743  0.49121  1.0000
  C   C1172     1.0  0.73059  0.59543  0.46212  1.0000
  H   H2013     1.0  0.55478  0.73556  0.44339  1.0000
  H   H2014     1.0  0.81231  0.61352  0.39704  1.0000
  H   H2015     1.0  0.74011  0.51326  0.30296  1.0000
  C   C1173     1.0  0.56526  0.67786  0.26169  1.0000
  H   H2016     1.0  0.73137  0.58250  0.43251  1.0000
  H   H2017     1.0  0.92033  0.55613  0.43409  1.0000
  H   H2018     1.0  0.89951  0.56662  0.44455  1.0000
  H   H2019     1.0  0.99657  0.53842  0.35439  1.0000
  H   H2020     1.0  0.80424  0.58614  0.32777  1.0000
  C   C1174     1.0  0.52824  0.96323  0.30607  1.0000
  H   H2021     1.0  0.63723  0.70819  0.42579  1.0000
  C   C1175     1.0  0.53622  0.52578  0.28408  1.0000
  H   H2022     1.0  0.80306  0.61650  0.37603  1.0000
  H   H2023     1.0  0.99964  0.55773  0.29723  1.0000
  H   H2024     1.0  0.69710  0.61571  0.46211  1.0000
  C   C1176     1.0  0.92257  0.57672  0.45058  1.0000
  H   H2025     1.0  0.59109  0.99547  0.39636  1.0000
  S   S350      1.0  0.51667  0.88737  0.32714  1.0000
  H   H2026     1.0  0.00255  0.62236  0.47442  1.0000
  H   H2027     1.0  0.63482  0.71805  0.40246  1.0000
  C   C1177     1.0  0.57751  0.99956  0.40398  1.0000
  H   H2028     1.0  0.52286  0.97590  0.31246  1.0000
  H   H2029     1.0  0.66372  0.77441  0.39394  1.0000
  S   S351      1.0  0.56847  0.76349  0.49437  1.0000
  H   H2030     1.0  0.55548  0.98433  0.37346  1.0000
  H   H2031     1.0  0.88319  0.55251  0.49279  1.0000
  H   H2032     1.0  0.55244  0.96254  0.31916  1.0000
  C   C1178     1.0  0.83408  0.57191  0.36826  1.0000
  H   H2033     1.0  0.79081  0.59123  0.36003  1.0000
  C   C1179     1.0  0.70392  0.58034  0.47342  1.0000
  H   H2034     1.0  0.72045  0.62819  0.43996  1.0000
  C   C1180     1.0  0.80920  0.54714  0.39610  1.0000
  C   C1181     1.0  0.68841  0.52488  0.29821  1.0000
  C   C1182     1.0  0.52155  0.86392  0.32422  1.0000
  H   H2035     1.0  0.88380  0.54557  0.46278  1.0000
  C   C1183     1.0  0.99423  0.60049  0.36231  1.0000
  H   H2036     1.0  0.55347  0.78075  0.46120  1.0000
  H   H2037     1.0  0.55181  0.94184  0.31021  1.0000
  N   N84       1.0  0.81367  0.57631  0.37312  1.0000
  C   C1184     1.0  0.80813  0.57641  0.33975  1.0000
  H   H2038     1.0  0.92326  0.55749  0.48182  1.0000
  C   C1185     1.0  0.80489  0.55907  0.37822  1.0000
  H   H2039     1.0  0.00110  0.59196  0.44137  1.0000
  H   H2040     1.0  0.56037  0.62739  0.29610  1.0000
  C   C1186     1.0  0.62709  0.00069  0.48391  1.0000
  H   H2041     1.0  0.70186  0.58850  0.48511  1.0000
  H   H2042     1.0  0.53417  0.93379  0.48391  1.0000
  C   C1187     1.0  0.80571  0.58673  0.35657  1.0000
  C   C1188     1.0  0.80840  0.58794  0.38844  1.0000
  C   C1189     1.0  0.81314  0.60762  0.38408  1.0000
  H   H2043     1.0  0.81459  0.58158  0.40084  1.0000
  H   H2044     1.0  0.80875  0.54997  0.36739  1.0000
  H   H2045     1.0  0.82240  0.57013  0.33615  1.0000
  H   H2046     1.0  0.70064  0.63087  0.42888  1.0000
  H   H2047     1.0  0.59566  0.62995  0.28410  1.0000
  H   H2048     1.0  0.83839  0.60563  0.49352  1.0000
  C   C1190     1.0  0.54971  0.79661  0.43510  1.0000
  S   S352      1.0  0.51564  0.87842  0.38143  1.0000
  H   H2049     1.0  0.80554  0.55456  0.40817  1.0000
  C   C1191     1.0  0.91200  0.54976  0.48098  1.0000
  H   H2050     1.0  0.92354  0.58652  0.43785  1.0000
  N   N85       1.0  0.53350  0.76875  0.45023  1.0000
  C   C1192     1.0  0.53017  0.76496  0.43181  1.0000
  C   C1193     1.0  0.55029  0.77825  0.44777  1.0000
  H   H2051     1.0  0.56091  0.97467  0.48767  1.0000
  H   H2052     1.0  0.90630  0.51409  0.44363  1.0000
  C   C1194     1.0  0.74398  0.57955  0.47033  1.0000
  H   H2053     1.0  0.68755  0.56060  0.46724  1.0000
  C   C1195     1.0  0.57319  0.66132  0.29049  1.0000
  S   S353      1.0  0.74254  0.51541  0.37572  1.0000
  H   H2054     1.0  0.56231  0.56147  0.27188  1.0000
  C   C1196     1.0  0.54848  0.81395  0.50019  1.0000
  H   H2055     1.0  0.81258  0.58806  0.49749  1.0000
  C   C1197     1.0  0.53583  0.98436  0.50321  1.0000
  H   H2056     1.0  0.51828  0.95379  0.48475  1.0000
  C   C1198     1.0  0.55778  0.85908  0.49599  1.0000
  H   H2057     1.0  0.50834  0.90469  0.49761  1.0000
  H   H2058     1.0  0.82399  0.51611  0.37229  1.0000
  C   C1199     1.0  0.60136  0.63537  0.27025  1.0000
  H   H2059     1.0  0.51705  0.90990  0.28854  1.0000
  H   H2060     1.0  0.51334  0.85299  0.35210  1.0000
  C   C1200     1.0  0.54461  0.00585  0.40418  1.0000
  Fe  Fe176     1.0  0.51135  0.89625  0.35514  1.0000
  C   C1201     1.0  0.52262  0.83127  0.33518  1.0000
  H   H2061     1.0  0.57582  0.98860  0.41574  1.0000
  C   C1202     1.0  0.81260  0.59873  0.50635  1.0000
  H   H2062     1.0  0.53310  0.53512  0.29474  1.0000
  H   H2063     1.0  0.54026  0.80766  0.44127  1.0000
  H   H2064     1.0  0.52105  0.78511  0.47155  1.0000
  H   H2065     1.0  0.00058  0.56677  0.46444  1.0000
  H   H2066     1.0  0.52334  0.77748  0.42419  1.0000
  C   C1203     1.0  0.55720  0.64710  0.27103  1.0000
  H   H2067     1.0  0.00509  0.56210  0.37102  1.0000
  H   H2068     1.0  0.51984  0.67826  0.30633  1.0000
  C   C1204     1.0  0.51542  0.68282  0.27801  1.0000
  H   H2069     1.0  0.53409  0.93523  0.28959  1.0000
  H   H2070     1.0  0.98305  0.57844  0.35250  1.0000
  H   H2071     1.0  0.89626  0.56768  0.49981  1.0000
  H   H2072     1.0  0.52537  0.51687  0.28635  1.0000
  S   S354      1.0  0.78634  0.51056  0.37790  1.0000
  C   C1205     1.0  0.51553  0.71390  0.26350  1.0000
  H   H2073     1.0  0.60380  0.62381  0.26197  1.0000
  H   H2074     1.0  0.53021  0.90631  0.50291  1.0000
  C   C1206     1.0  0.99001  0.59056  0.34702  1.0000
  N   N86       1.0  0.51095  0.93108  0.50487  1.0000
  H   H2075     1.0  0.86896  0.59652  0.49999  1.0000
  C   C1207     1.0  0.50982  0.92394  0.28974  1.0000
  H   H2076     1.0  0.99915  0.61339  0.35536  1.0000
  C   C1208     1.0  0.51541  0.91054  0.50699  1.0000
  Fe  Fe177     1.0  0.62350  0.52556  0.25982  1.0000
  H   H2077     1.0  0.51506  0.00898  0.40589  1.0000
  C   C1209     1.0  0.83254  0.60080  0.50771  1.0000
  C   C1210     1.0  0.51390  0.69557  0.26240  1.0000
  C   C1211     1.0  0.59085  0.56208  0.26219  1.0000
  C   C1212     1.0  0.55529  0.51478  0.28546  1.0000
  N   N87       1.0  0.51294  0.95277  0.30442  1.0000
  C   C1213     1.0  0.56482  0.81885  0.50787  1.0000
  C   C1214     1.0  0.71845  0.51013  0.28788  1.0000
  H   H2078     1.0  0.88319  0.60989  0.50774  1.0000
  C   C1215     1.0  0.57411  0.75491  0.63627  1.0000
  H   H2079     1.0  0.57221  0.80569  0.51369  1.0000
  H   H2080     1.0  0.54300  0.94061  0.53071  1.0000
  S   S355      1.0  0.51709  0.66682  0.72898  1.0000
  H   H2081     1.0  0.61602  0.00730  0.51066  1.0000
  C   C1216     1.0  0.70534  0.51242  0.68539  1.0000
  Fe  Fe178     1.0  0.92274  0.53347  0.56769  1.0000
  S   S356      1.0  0.90737  0.56047  0.55740  1.0000
  S   S357      1.0  0.97842  0.51865  0.59956  1.0000
  C   C1217     1.0  0.53931  0.93427  0.51948  1.0000
  Fe  Fe179     1.0  0.76782  0.53373  0.58685  1.0000
  S   S358      1.0  0.77239  0.56318  0.57759  1.0000
  S   S359      1.0  0.62871  0.54133  0.73729  1.0000
  Fe  Fe180     1.0  0.60522  0.53025  0.72931  1.0000
  S   S360      1.0  0.58154  0.54555  0.71539  1.0000
  S   S361      1.0  0.54825  0.78003  0.57604  1.0000
  S   S362      1.0  0.54391  0.61981  0.74448  1.0000
  C   C1218     1.0  0.55421  0.77349  0.55403  1.0000
  C   C1219     1.0  0.54071  0.77085  0.54404  1.0000
  C   C1220     1.0  0.57081  0.00367  0.58503  1.0000
  C   C1221     1.0  0.51017  0.90050  0.52623  1.0000
  C   C1222     1.0  0.57241  0.77223  0.54589  1.0000
  H   H2082     1.0  0.52664  0.77164  0.55022  1.0000
  H   H2083     1.0  0.56152  0.00107  0.59795  1.0000
  C   C1223     1.0  0.57086  0.56598  0.72377  1.0000
  C   C1224     1.0  0.57798  0.57300  0.73708  1.0000
  C   C1225     1.0  0.56955  0.58953  0.74326  1.0000
  C   C1226     1.0  0.55388  0.59907  0.73632  1.0000
  C   C1227     1.0  0.54657  0.59193  0.72321  1.0000
  C   C1228     1.0  0.55509  0.57544  0.71691  1.0000
  H   H2084     1.0  0.59018  0.56587  0.74235  1.0000
  C   C1229     1.0  0.54533  0.76726  0.52591  1.0000
  H   H2085     1.0  0.53449  0.59919  0.71779  1.0000
  H   H2086     1.0  0.54954  0.57007  0.70660  1.0000
  C   C1230     1.0  0.76488  0.57439  0.55698  1.0000
  C   C1231     1.0  0.76900  0.59209  0.55042  1.0000
  H   H2087     1.0  0.76611  0.61518  0.52929  1.0000
  C   C1232     1.0  0.75454  0.56618  0.54730  1.0000
  H   H2088     1.0  0.77656  0.59866  0.55814  1.0000
  H   H2089     1.0  0.80474  0.59449  0.51961  1.0000
  H   H2090     1.0  0.75132  0.55253  0.55218  1.0000
  H   H2091     1.0  0.58292  0.77421  0.55356  1.0000
  H   H2092     1.0  0.57093  0.74952  0.60983  1.0000
  H   H2093     1.0  0.84503  0.59054  0.54000  1.0000
  H   H2094     1.0  0.85556  0.55856  0.66173  1.0000
  H   H2095     1.0  0.81509  0.58448  0.54706  1.0000
  H   H2096     1.0  0.55861  0.73977  0.58908  1.0000
  S   S363      1.0  0.78788  0.51092  0.57635  1.0000
  H   H2097     1.0  0.85558  0.52804  0.59897  1.0000
  H   H2098     1.0  0.51330  0.88552  0.52582  1.0000
  S   S364      1.0  0.74330  0.52116  0.58407  1.0000
  C   C1233     1.0  0.85714  0.53982  0.60584  1.0000
  C   C1234     1.0  0.82379  0.64485  0.53157  1.0000
  C   C1235     1.0  0.91886  0.56656  0.53560  1.0000
  C   C1236     1.0  0.93034  0.55307  0.52675  1.0000
  Fe  Fe181     1.0  0.51855  0.63617  0.73418  1.0000
  H   H2099     1.0  0.81984  0.51757  0.64272  1.0000
  C   C1237     1.0  0.88087  0.52344  0.62369  1.0000
  C   C1238     1.0  0.91767  0.58479  0.52752  1.0000
  H   H2100     1.0  0.93061  0.53892  0.53237  1.0000
  H   H2101     1.0  0.88388  0.51579  0.61162  1.0000
  H   H2102     1.0  0.55591  0.69202  0.63905  1.0000
  H   H2103     1.0  0.90874  0.59530  0.53427  1.0000
  H   H2104     1.0  0.87010  0.55897  0.62794  1.0000
  C   C1239     1.0  0.54955  0.84972  0.51456  1.0000
  H   H2105     1.0  0.57765  0.76904  0.63423  1.0000
  H   H2106     1.0  0.81701  0.59766  0.56479  1.0000
  H   H2107     1.0  0.54735  0.52386  0.69367  1.0000
  C   C1240     1.0  0.87033  0.60373  0.51154  1.0000
  H   H2108     1.0  0.98533  0.52297  0.53047  1.0000
  H   H2109     1.0  0.53478  0.76533  0.51825  1.0000
  S   S365      1.0  0.92475  0.52190  0.59690  1.0000
  H   H2110     1.0  0.55873  0.83201  0.56133  1.0000
  H   H2111     1.0  0.83983  0.58680  0.51106  1.0000
  N   N88       1.0  0.56014  0.83196  0.52191  1.0000
  C   C1241     1.0  0.55725  0.98800  0.52969  1.0000
  C   C1242     1.0  0.53820  0.99215  0.53292  1.0000
  H   H2112     1.0  0.88459  0.54211  0.59038  1.0000
  C   C1243     1.0  0.56158  0.75321  0.62216  1.0000
  H   H2113     1.0  0.57540  0.84694  0.53596  1.0000
  H   H2114     1.0  0.51111  0.84744  0.58862  1.0000
  H   H2115     1.0  0.51767  0.51655  0.70717  1.0000
  N   N89       1.0  0.54817  0.73970  0.62803  1.0000
  H   H2116     1.0  0.71300  0.51325  0.69633  1.0000
  N   N90       1.0  0.71108  0.56738  0.61265  1.0000
  C   C1244     1.0  0.70776  0.55923  0.63243  1.0000
  C   C1245     1.0  0.73142  0.56667  0.60762  1.0000
  C   C1246     1.0  0.70409  0.55540  0.60146  1.0000
  C   C1247     1.0  0.70104  0.58660  0.61053  1.0000
  C   C1248     1.0  0.68787  0.55663  0.64008  1.0000
  C   C1249     1.0  0.74100  0.57647  0.61943  1.0000
  C   C1250     1.0  0.70711  0.56033  0.58058  1.0000
  C   C1251     1.0  0.70815  0.59991  0.59398  1.0000
  H   H2117     1.0  0.71625  0.54565  0.63479  1.0000
  H   H2118     1.0  0.71198  0.56787  0.64152  1.0000
  H   H2119     1.0  0.73520  0.57244  0.59330  1.0000
  H   H2120     1.0  0.73808  0.55222  0.60840  1.0000
  H   H2121     1.0  0.71029  0.54091  0.60460  1.0000
  H   H2122     1.0  0.68914  0.55546  0.60500  1.0000
  H   H2123     1.0  0.68632  0.58633  0.60992  1.0000
  H   H2124     1.0  0.70151  0.59326  0.62280  1.0000
  H   H2125     1.0  0.68345  0.54537  0.63444  1.0000
  H   H2126     1.0  0.68698  0.55254  0.65507  1.0000
  H   H2127     1.0  0.67826  0.56936  0.63773  1.0000
  H   H2128     1.0  0.75504  0.57792  0.61261  1.0000
  H   H2129     1.0  0.73389  0.59035  0.62131  1.0000
  H   H2130     1.0  0.74243  0.56827  0.63292  1.0000
  H   H2131     1.0  0.69858  0.57327  0.57614  1.0000
  H   H2132     1.0  0.70266  0.54951  0.57425  1.0000
  H   H2133     1.0  0.72160  0.56080  0.57500  1.0000
  H   H2134     1.0  0.69639  0.60933  0.58905  1.0000
  H   H2135     1.0  0.71547  0.59352  0.58206  1.0000
  H   H2136     1.0  0.71690  0.60883  0.59819  1.0000
  H   H2137     1.0  0.84384  0.54887  0.60599  1.0000
  C   C1252     1.0  0.54579  0.83299  0.55553  1.0000
  S   S366      1.0  0.51309  0.99356  0.61151  1.0000
  C   C1253     1.0  0.84836  0.52039  0.63400  1.0000
  H   H2138     1.0  0.53952  0.80642  0.51092  1.0000
  C   C1254     1.0  0.53556  0.74421  0.64498  1.0000
  N   N91       1.0  0.83565  0.61335  0.52071  1.0000
  H   H2139     1.0  0.58687  0.74512  0.63465  1.0000
  H   H2140     1.0  0.57538  0.59511  0.75323  1.0000
  H   H2141     1.0  0.84665  0.55885  0.63343  1.0000
  C   C1255     1.0  0.54585  0.51842  0.70839  1.0000
  H   H2142     1.0  0.89090  0.53336  0.62145  1.0000
  H   H2143     1.0  0.56549  0.98916  0.54003  1.0000
  H   H2144     1.0  0.53459  0.82288  0.53493  1.0000
  H   H2145     1.0  0.52474  0.73336  0.61746  1.0000
  C   C1256     1.0  0.54672  0.73283  0.59531  1.0000
  H   H2146     1.0  0.53715  0.73524  0.58494  1.0000
  N   N92       1.0  0.86160  0.53334  0.62501  1.0000
  H   H2147     1.0  0.54246  0.74035  0.65744  1.0000
  C   C1257     1.0  0.86281  0.54670  0.65497  1.0000
  H   H2148     1.0  0.82301  0.63917  0.54619  1.0000
  C   C1258     1.0  0.81714  0.59817  0.54984  1.0000
  H   H2149     1.0  0.52786  0.87426  0.58531  1.0000
  H   H2150     1.0  0.82449  0.54049  0.64178  1.0000
  H   H2151     1.0  0.84105  0.61132  0.54885  1.0000
  H   H2152     1.0  0.87287  0.56331  0.59793  1.0000
  H   H2153     1.0  0.88319  0.51445  0.65310  1.0000
  C   C1259     1.0  0.68624  0.51302  0.68915  1.0000
  C   C1260     1.0  0.52672  0.76427  0.64476  1.0000
  H   H2154     1.0  0.51671  0.76557  0.65725  1.0000
  H   H2155     1.0  0.52413  0.73590  0.64756  1.0000
  S   S367      1.0  0.59839  0.51452  0.75668  1.0000
  S   S368      1.0  0.76790  0.52233  0.61651  1.0000
  C   C1261     1.0  0.57699  0.76890  0.52763  1.0000
  H   H2156     1.0  0.56888  0.71750  0.62021  1.0000
  C   C1262     1.0  0.53685  0.74055  0.61280  1.0000
  S   S369      1.0  0.95270  0.52652  0.55892  1.0000
  H   H2157     1.0  0.53687  0.77358  0.64479  1.0000
  C   C1263     1.0  0.82796  0.52807  0.63481  1.0000
  C   C1264     1.0  0.57769  0.83592  0.52701  1.0000
  C   C1265     1.0  0.52749  0.99009  0.51977  1.0000
  C   C1266     1.0  0.71468  0.51083  0.66764  1.0000
  C   C1267     1.0  0.87112  0.55053  0.59296  1.0000
  C   C1268     1.0  0.76305  0.60147  0.53414  1.0000
  C   C1269     1.0  0.82193  0.63045  0.51944  1.0000
  H   H2158     1.0  0.55392  0.80893  0.54204  1.0000
  S   S370      1.0  0.67533  0.51484  0.71200  1.0000
  H   H2159     1.0  0.51168  0.93499  0.53296  1.0000
  H   H2160     1.0  0.53804  0.70441  0.62704  1.0000
  C   C1270     1.0  0.94192  0.55782  0.51086  1.0000
  H   H2161     1.0  0.59861  0.82413  0.54436  1.0000
  C   C1271     1.0  0.85990  0.54995  0.63471  1.0000
  C   C1272     1.0  0.56559  0.98170  0.51333  1.0000
  C   C1273     1.0  0.75236  0.59339  0.52467  1.0000
  C   C1274     1.0  0.99964  0.51920  0.53339  1.0000
  C   C1275     1.0  0.55858  0.72092  0.63202  1.0000
  H   H2162     1.0  0.72932  0.51048  0.66510  1.0000
  C   C1276     1.0  0.83547  0.60353  0.53988  1.0000
  H   H2163     1.0  0.56666  0.72046  0.64345  1.0000
  H   H2164     1.0  0.66195  0.51261  0.67727  1.0000
  Fe  Fe182     1.0  0.51778  0.78538  0.58271  1.0000
  H   H2165     1.0  0.00168  0.52841  0.54308  1.0000
  C   C1277     1.0  0.54847  0.82342  0.53822  1.0000
  H   H2166     1.0  0.86618  0.55456  0.57946  1.0000
  C   C1278     1.0  0.54681  0.70525  0.63747  1.0000
  H   H2167     1.0  0.80527  0.60824  0.54663  1.0000
  C   C1279     1.0  0.74807  0.57577  0.53137  1.0000
  H   H2168     1.0  0.55094  0.71787  0.59768  1.0000
  H   H2169     1.0  0.56762  0.75267  0.65056  1.0000
  H   H2170     1.0  0.51905  0.76880  0.63299  1.0000
  H   H2171     1.0  0.55473  0.76709  0.61739  1.0000
  H   H2172     1.0  0.80769  0.62747  0.52273  1.0000
  H   H2173     1.0  0.57587  0.99014  0.58032  1.0000
  H   H2174     1.0  0.53119  0.75495  0.60848  1.0000
  H   H2175     1.0  0.92441  0.51201  0.52285  1.0000
  S   S371      1.0  0.51749  0.91281  0.57586  1.0000
  H   H2176     1.0  0.87753  0.54534  0.65638  1.0000
  H   H2177     1.0  0.82349  0.53077  0.62105  1.0000
  H   H2178     1.0  0.53177  0.99675  0.54568  1.0000
  S   S372      1.0  0.51946  0.96608  0.56938  1.0000
  H   H2179     1.0  0.53822  0.70644  0.65082  1.0000
  H   H2180     1.0  0.83648  0.65110  0.52711  1.0000
  H   H2181     1.0  0.54393  0.53040  0.71605  1.0000
  C   C1280     1.0  0.59006  0.81934  0.53563  1.0000
  H   H2182     1.0  0.53962  0.84748  0.55310  1.0000
  H   H2183     1.0  0.53631  0.82591  0.56617  1.0000
  H   H2184     1.0  0.58631  0.84160  0.51472  1.0000
  H   H2185     1.0  0.73973  0.56948  0.52417  1.0000
  H   H2186     1.0  0.87209  0.59379  0.52393  1.0000
  H   H2187     1.0  0.85075  0.51483  0.64814  1.0000
  H   H2188     1.0  0.85691  0.53481  0.66284  1.0000
  C   C1281     1.0  0.51858  0.93904  0.51901  1.0000
  C   C1282     1.0  0.56342  0.76658  0.51756  1.0000
  H   H2189     1.0  0.81230  0.65614  0.53027  1.0000
  H   H2190     1.0  0.59101  0.76816  0.52138  1.0000
  H   H2191     1.0  0.85813  0.62681  0.52504  1.0000
  H   H2192     1.0  0.55875  0.50985  0.71153  1.0000
  H   H2193     1.0  0.51811  0.90376  0.53640  1.0000
  C   C1283     1.0  0.85433  0.61917  0.51481  1.0000
  Fe  Fe183     1.0  0.95444  0.51245  0.58723  1.0000
  H   H2194     1.0  0.54799  0.85991  0.52433  1.0000
  H   H2195     1.0  0.58242  0.80929  0.54475  1.0000
  H   H2196     1.0  0.59912  0.81223  0.52489  1.0000
  H   H2197     1.0  0.53538  0.84787  0.51320  1.0000
  H   H2198     1.0  0.54365  0.91937  0.52234  1.0000
  C   C1284     1.0  0.67662  0.51195  0.67477  1.0000
  C   C1285     1.0  0.51395  0.87620  0.58233  1.0000
  Fe  Fe184     1.0  0.64600  0.51606  0.72731  1.0000
  C   C1286     1.0  0.92884  0.58953  0.51113  1.0000
  H   H2199     1.0  0.51583  0.95419  0.51691  1.0000
  S   S373      1.0  0.58939  0.97583  0.50952  1.0000
  H   H2200     1.0  0.54850  0.00875  0.56993  1.0000
  C   C1287     1.0  0.68598  0.51007  0.65708  1.0000
  C   C1288     1.0  0.70508  0.50959  0.65330  1.0000
  H   H2201     1.0  0.58272  0.00935  0.58782  1.0000
  H   H2202     1.0  0.54762  0.59143  0.80455  1.0000
  S   S374      1.0  0.56554  0.63314  0.86374  1.0000
  C   C1289     1.0  0.57349  0.61645  0.92952  1.0000
  S   S375      1.0  0.61600  0.53499  0.79185  1.0000
  H   H2203     1.0  0.58521  0.65908  0.80473  1.0000
  C   C1290     1.0  0.63467  0.54146  0.99771  1.0000
  Fe  Fe185     1.0  0.61985  0.55124  0.91083  1.0000
  S   S376      1.0  0.62606  0.58006  0.90296  1.0000
  H   H2204     1.0  0.67886  0.59113  0.85920  1.0000
  C   C1291     1.0  0.57243  0.56446  0.78943  1.0000
  S   S377      1.0  0.53119  0.59887  0.88984  1.0000
  H   H2205     1.0  0.60885  0.60319  0.95695  1.0000
  H   H2206     1.0  0.57858  0.60073  0.97410  1.0000
  H   H2207     1.0  0.55708  0.59073  0.91842  1.0000
  C   C1292     1.0  0.55562  0.62930  0.92678  1.0000
  H   H2208     1.0  0.55875  0.58011  0.95991  1.0000
  H   H2209     1.0  0.57822  0.61024  0.91675  1.0000
  H   H2210     1.0  0.55559  0.63409  0.91197  1.0000
  C   C1293     1.0  0.59098  0.58924  0.94404  1.0000
  H   H2211     1.0  0.58071  0.55821  0.77772  1.0000
  H   H2212     1.0  0.58388  0.62556  0.92959  1.0000
  H   H2213     1.0  0.54323  0.62261  0.93070  1.0000
  H   H2214     1.0  0.62041  0.58662  0.94287  1.0000
  N   N93       1.0  0.54121  0.56349  0.80952  1.0000
  C   C1294     1.0  0.58248  0.61813  0.87420  1.0000
  C   C1295     1.0  0.57986  0.60009  0.88081  1.0000
  C   C1296     1.0  0.59304  0.58845  0.88999  1.0000
  C   C1297     1.0  0.60913  0.59466  0.89215  1.0000
  C   C1298     1.0  0.61195  0.61261  0.88525  1.0000
  C   C1299     1.0  0.59865  0.62433  0.87624  1.0000
  H   H2215     1.0  0.56781  0.59498  0.87867  1.0000
  H   H2216     1.0  0.59057  0.57478  0.89553  1.0000
  H   H2217     1.0  0.62441  0.61747  0.88688  1.0000
  H   H2218     1.0  0.60077  0.63827  0.87109  1.0000
  Fe  Fe186     1.0  0.53758  0.62542  0.87363  1.0000
  C   C1300     1.0  0.61491  0.52204  0.84666  1.0000
  H   H2219     1.0  0.51333  0.58634  0.78884  1.0000
  S   S378      1.0  0.56226  0.52119  0.92750  1.0000
  H   H2220     1.0  0.54925  0.58470  0.83772  1.0000
  H   H2221     1.0  0.66692  0.52931  0.84999  1.0000
  H   H2222     1.0  0.66862  0.57307  0.87324  1.0000
  H   H2223     1.0  0.54342  0.71413  0.79021  1.0000
  S   S379      1.0  0.60428  0.53867  0.89385  1.0000
  H   H2224     1.0  0.52128  0.65674  0.82679  1.0000
  H   H2225     1.0  0.67738  0.56778  0.84000  1.0000
  C   C1301     1.0  0.54898  0.55860  0.82750  1.0000
  H   H2226     1.0  0.64064  0.54740  0.82930  1.0000
  S   S380      1.0  0.51946  0.62464  0.85278  1.0000
  H   H2227     1.0  0.63209  0.57794  0.81111  1.0000
  S   S381      1.0  0.60460  0.54092  0.93768  1.0000
  C   C1302     1.0  0.63337  0.53301  0.98237  1.0000
  C   C1303     1.0  0.55727  0.58109  0.93119  1.0000
  H   H2228     1.0  0.65582  0.58163  0.80741  1.0000
  H   H2229     1.0  0.66301  0.52747  0.87417  1.0000
  C   C1304     1.0  0.53724  0.66163  0.79167  1.0000
  H   H2230     1.0  0.64482  0.55754  0.87425  1.0000
  H   H2231     1.0  0.61089  0.60817  0.93222  1.0000
  C   C1305     1.0  0.57519  0.64997  0.80352  1.0000
  C   C1306     1.0  0.55802  0.59080  0.94783  1.0000
  C   C1307     1.0  0.55905  0.57282  0.83348  1.0000
  C   C1308     1.0  0.61300  0.57272  0.84745  1.0000
  C   C1309     1.0  0.66441  0.57658  0.84409  1.0000
  H   H2232     1.0  0.66383  0.58850  0.83322  1.0000
  N   N94       1.0  0.57334  0.60214  0.94608  1.0000
  H   H2233     1.0  0.55441  0.64144  0.93405  1.0000
  H   H2234     1.0  0.55861  0.54120  0.79741  1.0000
  S   S382      1.0  0.51685  0.64313  0.89068  1.0000
  H   H2235     1.0  0.60622  0.52621  0.85863  1.0000
  H   H2236     1.0  0.55840  0.54549  0.82767  1.0000
  H   H2237     1.0  0.52603  0.58889  0.81725  1.0000
  H   H2238     1.0  0.53318  0.69138  0.83664  1.0000
  C   C1310     1.0  0.53627  0.70202  0.79516  1.0000
  H   H2239     1.0  0.56975  0.57776  0.82287  1.0000
  H   H2240     1.0  0.56863  0.56976  0.92950  1.0000
  H   H2241     1.0  0.54444  0.57487  0.93329  1.0000
  H   H2242     1.0  0.55519  0.62651  0.98318  1.0000
  C   C1311     1.0  0.55452  0.55615  0.79420  1.0000
  H   H2243     1.0  0.59083  0.57745  0.95512  1.0000
  H   H2244     1.0  0.54557  0.62762  0.96260  1.0000
  C   C1312     1.0  0.61024  0.52909  0.82918  1.0000
  H   H2245     1.0  0.63273  0.55621  0.99675  1.0000
  H   H2246     1.0  0.54809  0.55785  0.78147  1.0000
  H   H2247     1.0  0.51461  0.67894  0.81615  1.0000
  H   H2248     1.0  0.63040  0.54126  0.96974  1.0000
  H   H2249     1.0  0.58101  0.62219  0.96075  1.0000
  C   C1313     1.0  0.50691  0.61151  0.97167  1.0000
  H   H2250     1.0  0.53010  0.69903  0.78353  1.0000
  C   C1314     1.0  0.52413  0.55464  0.81114  1.0000
  C   C1315     1.0  0.66656  0.58407  0.86172  1.0000
  H   H2251     1.0  0.54445  0.59896  0.95056  1.0000
  H   H2252     1.0  0.54590  0.60720  0.97903  1.0000
  H   H2253     1.0  0.59810  0.53888  0.82789  1.0000
  H   H2254     1.0  0.59282  0.58322  0.93104  1.0000
  N   N95       1.0  0.54277  0.66799  0.80804  1.0000
  C   C1316     1.0  0.52619  0.67011  0.82212  1.0000
  S   S383      1.0  0.64300  0.52824  0.91155  1.0000
  C   C1317     1.0  0.55012  0.68589  0.80211  1.0000
  C   C1318     1.0  0.55731  0.65442  0.81633  1.0000
  C   C1319     1.0  0.52856  0.67774  0.83956  1.0000
  H   H2255     1.0  0.56573  0.56650  0.84563  1.0000
  C   C1320     1.0  0.50921  0.64886  0.96409  1.0000
  C   C1321     1.0  0.53578  0.58390  0.80565  1.0000
  Fe  Fe187     1.0  0.50930  0.61645  0.90597  1.0000
  C   C1322     1.0  0.55364  0.61844  0.97230  1.0000
  H   H2256     1.0  0.53580  0.58685  0.77567  1.0000
  C   C1323     1.0  0.62133  0.52386  0.81341  1.0000
  H   H2257     1.0  0.55612  0.69010  0.81331  1.0000
  Fe  Fe188     1.0  0.51091  0.59990  0.87049  1.0000
  H   H2258     1.0  0.56149  0.65956  0.82808  1.0000
  H   H2259     1.0  0.55208  0.64144  0.82263  1.0000
  C   C1324     1.0  0.50923  0.64026  0.98213  1.0000
  H   H2260     1.0  0.67723  0.54346  0.86220  1.0000
  C   C1325     1.0  0.57259  0.61079  0.96327  1.0000
  H   H2261     1.0  0.60833  0.56573  0.86112  1.0000
  H   H2262     1.0  0.53801  0.55616  0.83906  1.0000
  H   H2263     1.0  0.53105  0.52991  0.83077  1.0000
  Fe  Fe189     1.0  0.59143  0.52581  0.92073  1.0000
  H   H2264     1.0  0.52869  0.63892  0.78167  1.0000
  C   C1326     1.0  0.53457  0.64132  0.79375  1.0000
  C   C1327     1.0  0.52688  0.59079  0.78810  1.0000
  H   H2265     1.0  0.52504  0.63739  0.80604  1.0000
  H   H2266     1.0  0.51239  0.52932  0.81881  1.0000
  H   H2267     1.0  0.64876  0.56324  0.79860  1.0000
  C   C1328     1.0  0.60858  0.59759  0.94410  1.0000
  H   H2268     1.0  0.51862  0.55668  0.79787  1.0000
  H   H2269     1.0  0.50918  0.54789  0.89232  1.0000
  H   H2270     1.0  0.53783  0.66815  0.84794  1.0000
  H   H2271     1.0  0.58372  0.51168  0.80730  1.0000
  H   H2272     1.0  0.50790  0.61478  0.99974  1.0000
  H   H2273     1.0  0.50811  0.64558  0.93602  1.0000
  H   H2274     1.0  0.51510  0.67942  0.84819  1.0000
  C   C1329     1.0  0.52606  0.53381  0.81732  1.0000
  H   H2275     1.0  0.54772  0.63217  0.79403  1.0000
  H   H2276     1.0  0.51318  0.56116  0.82091  1.0000
  S   S384      1.0  0.51033  0.65330  0.99971  1.0000
  H   H2277     1.0  0.65487  0.59429  0.86595  1.0000
  H   H2278     1.0  0.58113  0.63555  0.80731  1.0000
  H   H2279     1.0  0.60243  0.58428  0.84364  1.0000
  H   H2280     1.0  0.54717  0.66422  0.77922  1.0000
  H   H2281     1.0  0.61381  0.56327  0.83725  1.0000
  C   C1330     1.0  0.50819  0.63880  0.94985  1.0000
  C   C1331     1.0  0.63113  0.58009  0.84738  1.0000
  H   H2282     1.0  0.53489  0.52604  0.80700  1.0000
  H   H2283     1.0  0.52167  0.53447  0.90926  1.0000
  C   C1332     1.0  0.64760  0.55172  0.86109  1.0000
  C   C1333     1.0  0.64641  0.57119  0.81039  1.0000
  C   C1334     1.0  0.50811  0.62152  0.98587  1.0000
  C   C1335     1.0  0.64989  0.55794  0.82779  1.0000
  H   H2284     1.0  0.63169  0.59256  0.83721  1.0000
  H   H2285     1.0  0.62979  0.58550  0.86062  1.0000
  H   H2286     1.0  0.66374  0.55024  0.82482  1.0000
  Fe  Fe190     1.0  0.62287  0.52384  0.76440  1.0000
  H   H2287     1.0  0.52419  0.66969  0.78800  1.0000
  H   H2288     1.0  0.63598  0.54405  0.86131  1.0000
  C   C1336     1.0  0.66481  0.53737  0.86163  1.0000
  H   H2289     1.0  0.51003  0.66336  0.96111  1.0000
  N   N96       1.0  0.64822  0.56657  0.84508  1.0000
  H   H2290     1.0  0.52645  0.52924  0.88644  1.0000
  H   H2291     1.0  0.57014  0.57939  0.78512  1.0000
  H   H2292     1.0  0.57129  0.52807  0.88861  1.0000
  H   H2293     1.0  0.52532  0.70603  0.80615  1.0000
  H   H2294     1.0  0.58075  0.56127  0.80082  1.0000
  C   C1337     1.0  0.51529  0.53378  0.89694  1.0000
  H   H2295     1.0  0.51625  0.51504  0.86724  1.0000
  H   H2296     1.0  0.56165  0.68443  0.79088  1.0000
  H   H2297     1.0  0.57325  0.65115  0.78900  1.0000
  H   H2298     1.0  0.55931  0.56383  0.00832  1.0000
  C   C1338     1.0  0.50690  0.62011  0.95363  1.0000
  H   H2299     1.0  0.52452  0.60596  0.78635  1.0000
  H   H2300     1.0  0.57590  0.52336  0.97086  1.0000
  Fe  Fe191     1.0  0.62628  0.51491  0.89591  1.0000
  Fe  Fe192     1.0  0.62650  0.51682  0.93735  1.0000
  H   H2301     1.0  0.56269  0.51215  0.82220  1.0000
  H   H2302     1.0  0.59315  0.51604  0.98541  1.0000
  C   C1339     1.0  0.56436  0.51615  0.89177  1.0000
  H   H2303     1.0  0.56668  0.51167  0.86369  1.0000
  C   C1340     1.0  0.58077  0.51218  0.98129  1.0000
  C   C1341     1.0  0.63662  0.51395  0.98325  1.0000
  H   H2304     1.0  0.56989  0.51154  0.99301  1.0000
  C   C1342     1.0  0.63687  0.51099  0.81528  1.0000
  C   C1343     1.0  0.63084  0.50974  0.84857  1.0000
  C   C1344     1.0  0.55783  0.51018  0.90987  1.0000
