data_image0
_chemical_formula_structural       CHFeS2FeS2FeSFeNS2FeS2FeSCFeSFeS3HCH2S2FeCS4C7H3CH3CH2C9H4C6H6C4FeH2C6H4CH7NH4C2H2SH2FeCH2SH3C3H4C3HC3H2CH9CH2SCH3CH2SHCHFeCH3CHCHCHC2H2CSCH3CNC4HCH18CHNH5C2H2CH6CH3CHCH2CHC2H2C2H9FeCSCNC8H22SH7CH6NH2SH11SFeSHFeS2FeSFeS3FeS2FeS2FeSFeHS2CH2C2NH3CHC6H4C4H3C4H3C6H4C6H3CH4C2HC4SH6C3H4SH5FeH5NC8H2SH18CS2CHSNH2FeH4CH3CH2CFeH6C3NHSH2SH2C2HSH2CFeHNH2CHSH2SHS2H2NC8H20SCHCHCH9CHCH2C2HC2H3C4HCNFeHC2H3NH2CHSHCH3CHC3H5NC8H7CSCHC4SCHCHC2H3CH3CFeH6SH2SH4NH2C2H2C2H2CHC3FeCHFeHSHFeH4CFeCH2NSCH3CHCSH4Fe2H3SC2H5CH2SC3HCH2SH2CHSH3CHC2H3CHFeH6CHCHC3HSH2FeH4SCHC3HCHCHNHCHCH3SCHFeS2FeSCFeSFeS3FeS2FeSHFeSFeS3FeS2FeHFeH2CS2H2CFeS2FeSFeH4SC2FeS2HC2HSHFeS2FeS2FeSFeS3C6H4C6H5C6H5C6H3CHCHC3HCH2SH3C6H4CH3C2FeH3C6H10CHC3H6CHFeH3C2HCNHNH4C2H4SCH3FeCH2CHCH3SH5CHC2HFeH6C2NH4C2SH4SHSNC8H14SHCNSC3HC3HCH10CHCHCH4CHCH2CHC4H8NC3HCHSHC2SH4NC8H27SH3CHCH3CH3SC3HC2SCHSC2H3CNCH2CHNCHNHC2HCH4CH4CH5CH5FeC3HCHC2H3CHC2H6NH2CH2C2HFeC3H4NFeS2FeHCHS2CS2HFeSCH2CHCHCHC3HFe2S2HSHCSH2SFeH2CHCH2CHC2FeSHSFeS2FeS2FeSFeS3HC6H2C2H2CSCHCH4CSHC2HC3H2C6H5C5H12CNC3H2FeH3C6H4C4H4SCHCHCH3C2H2NH6CSC2SC2HCHSH6CSH3CH4NHFeH2SH2NCH7CH4CH3CH7CH2CNCH3SHNHCNH2C3H2CSFeSC2H7CH3CH2SH5CH2C3HFeH3C3HCNC4FeC2SH2CH4CH10FeHFeCHC2H2FeH6C2HCH2CHC2SC2HCH4FeS2H3SHC2H5C2SC2FeS2FeS2FeSFeS3CFeHSH3FeSFeCSCH2S2FeHS2H2C2H6SH12SC6H4C6H4C4HFeH5C5H3CHCHNC4H4C7H5S2H3SH3CH2CH2NC4HCHSH8CHCHCH2CHNH7C2HCH3SCH2FeSH3CH4CH2CHSHFeH2CHSHNHNH3SCHCH3CH2CH6C5NH3CSC3HC4NC7H17FeS2CH3SH4CH3CH2SC3H2SHCH2CHCHC2FeCH3CH2CHNHCH3CH5CHC3H2CHC3H3CH5NFeH3CHCH2CHCHCH4CSHC2HFeHFeH2CHCH5S3HCHCFeS2HFe2S2HSH2CFe2SFeC2FeS2FeS2FeSFeS3HSH3SFeHCHCHC3NH2C6H4C6H4C6H4C2HC3H6SC6H4CH2CSH5C2H4CHFe2HCH5FeCH5CHSFeC2H2NCHC5H19CNHCS2H4CFeSC2HSHCNHNC8H21CFeH2CH4C3H5C2H3SFeHCHCH3CH3CSCHC2H2FeCH2C2S2H2C2HSCHCSHCHC2H4CHC2HC2HCSH3CFeC2NH2SH3CHC2H6NHC2HSCHC2NHCH5CH3C2H2CH2CH3CHCH4C2HC2H3CH2NH2CH4SH4CH2CH10SFeS2FeSFeS3FeS2FeSFeSFeS3H4S2FeSH2CH2FeCH3SFeH3SHCH2C3H4CNC5H4C4HCH6C7H4C2H2C6H4C4HCH3NC6H4C6H4CHCH5NC4H2C2H3CH17CH2FeSH2CH3CH5NC8H21CHCHSCHS2HNHSH2C2H5CH5C2H2C2H3FeCH5C2H4CH2FeHCH2C3HSFeHSC2HCHC2H3C3HC2HCH2SHC3H4NH2CHCH3SH2C3SC3H3C3HCFeHSCH3CH4C2HNH3CH7SCFeCH4CH2C2HFeCHCH2CSH3FeNCHSNHC3H2FeHSCH2C2H4CH2SFe2CSNCH2C2HFeH2FeS2HFeS2FeSFeSFeS2FeSFeS2FeSFeS3CSCHSH3FeSCH2SH4NH4CHC2H4C6H4C2H4C4HC2H4C6H4C4SH3C7NH6FeH2SCHSHCH2CHC2H3SCHCH6CHCSNC2H3SNC2HSC2H2CH2C2H8S2CHSCHNC2HCHC2H4FeH2CH5CH2C2H6CH2CHSCSFeHCHCFeHSCHSH2CH4CH2NC5HC2H12CH9CHSH2C2HCHCFeHSCH2C2H6FeHC5H9FeHS2CSCHCH4CHNC8H20CHC2H2CH2SH2SHNCH4CHFeNH2CHC4H4NH4C2HC2H2CH2CHCHCH3CH2C2H3SC2H5FeH2FeHSH3CH3CH2CHCH2CH2NH2CHCH4FeS2FeSHFeSFeHS2FeS2FeS2FeSFeS3FeSHFeS2FeSFeS3FeS2FeSFeCFeS3FeS2FeS2FeSFeS3H2SH2CHFeS2FeS2C6H4C6H4C6H5C6H4C6H4CH2NC7H5C7SH2C6H5C4H5CFeC2H2CHCFeHC5H5CHC2HCH2SCHCNCH3SHCH3CFeH2C2HSC2H6CH2NHC3H3CH2CSH3CNC4HCH11CH3CH6NC8H25CNHCHCH2CH2CH10SNC3SC3H5CH3CHCH3CNC8H20CHC2H6SH3NHCHCH2CH3C3HCHCH3CHCH2CH4CHCH4CH5CH3CHCH6CH2SH2CH3CHCH5CHCH6CH3NH2FeHCHCHC2H5NH3CH3CHSH2CHCHCHC3HFeHS2FeS2H2FeS2FeHCHSHC2H2FeSCHFeS2H2FeCSCSFeSCH7FeS2FeSH2SCFeS2FeS2FeSFeS3HC6H2NHC3H4C4H4SC4HC7H5C6H6C2H5SH2CH2NC6H4C6H4C6H4CSH4NH2SCNH2C2SCH9NCSH4C2H2C2HCH6CH3CHCHCNCH2SH4CHNHFeCH2CH5CHC2HCH3CHC2H3SCH6CH3FeH3C2HCHC2H2SCS2C2HCH5CH6C2H4CH6C2HCFeH2NC8H20C3SFeCH2SH2CHCH2CHNHCFeCFeCHCH2CHC2SC3H3CH7CSCH4CH4CH2SHC2H2CH2C3HCHCH2CHCH2CFeSCFeS2FeSFeS3FeS2FeSCFeSFeS3H4CH2C2HC2HC3HCH2CSHCH6C3H2CH2CHC6H4C3H16C3H6C3HC3HCH3CH4CH6CH4NCH2CNH4CHCH2CHCH5CH6CHCH3C2HCH3CHCH4C2H2CH3NC5HCH2SNC8H6SH2CH4CH2NH3SCH7CHCH4FeS2FeS2FeSFeS3FeS2FeS2FeHFeHS2H4C2H2CHC2HC5H2C2HC6H4C3H4C4H5C2HC5H2CSC2SH3C2NHCH7SH2CHC2H2C2NH9NHC2HSH8CSH4CH2CHNHC3H2C2SNC2HC3H5CH5CHCHCH5C2HFeC4H3CH5CH3NC8H20CH4CH6C3H3CHCHCHC2HS2H2C2HC2HCSCHCHSHC2H3CH3NH2CH3CH2C2SH3CH2CH3NC2HCH4FeHCH5CH3CH4CFeH4CHNCHFeSFeS2Fe2S3FeS2FeS2FeSFeS4FeSFeS3FeHFeSH3C2H2SH2CHCSFeS2C6H4C7H2C6H4C6H4C4H4Fe2C6H4C4H4C3H2C2H4SH3FeCH2SH2CHCH2CH10SC4H2N2C2SFeHC5H2CNH8FeCH3CH5C2SC2H6NSHNCHSH2CHCHSH2CH3SH5CHC3H5C4HCSH2CHCHCH2CHSHCH3CHCHCHCH5FeHCH3FeCH2CH6C2H3CSHCH6CHC2HC2SCH2CHCNH4C2H3SCH4CHCH2CH2C2HCHCNC4SCSCH14C3H3NC8H12CH7C4HNH6CSC2HCH2CHCH5NH2CH2FeH2C4SCHFeSNH2CH8C3H2CH5CH9CH2SHCH5FeH5CHCH6CH2FeHCHFeS3HS2HSH3FeSHFeS3FeSFeS2FeS2FeS2Fe2S3HS2HCSFeHSCH6SFeH2C7HCH9C2H2C6H4C3HC2H4C6H4C6H4C2HC6H4C6H4FeHSH2C2NHFeHCHC2H2CH9C3HSHC2H5CH2S3HSH3C2NHFeHCHCHCHCNH2CH2CNC4H2CH20CNC8H23C5H5CHCSCHCNC6H12SFeH2CHCH3C3HSC2HC2H3CH3CHFeCH5CH2FeCHSH2CHC2H7CFeCS2H2CH2CNHCH2CHSH2FeH2SHCH2NC4HC2H4NHC2H3C2HCH3CH5C3SCH5CHCH3CHSCH2FeS2FeS2FeSFeS3HSH2SHFeCSHSHFeS2CFeHC2H2CH3CHCNHNHCH2CHC6H4CH2C5H2C4H4CHSHC2SH2CHC3H4CHCSCHFeC2H4CSH3FeCSH3CH6SHNC3H2C2H7CH4CHSH5CH2CHCHFeSCH2CH4SHCH3CH3CHCNHC3HC6HCH4CHC3HCH5FeNCH3C2HC3H3CHC2H3CH3C2HCH3NH6CH6CH3C2HSH4CH3CSHNC3H3CH4SCHCSCSCHCHSHNH4FeH3SFeS2FeS2FeSFeS3HNH2C4H2CHC4SH7CHSCH3C7H3SC3HFeCHC6H4C6H7CH2SH2CFeC2NFeHCHCHCFeH2CHCH2FeH2CHSH3C2HCSNC3SCH4CH4CNC8H22CSNHC5H5CH4CHCSH3SH6CH4C4H2CH3N2SHCH3C2H2CHCHSC2SC2H5C2HCH4CH2FeC2H3CH5FeHCFeHFeS2H2FeS2CHNH2SFeS2FeS2FeSFeS3CFeS2FeS2H3SCH2CH2SH9SCH3C5HSH2C6H4C6H4C6H4C2H2C6H4C6H5C2SH3FeC2H3CH2CH2CSHCSH5NSHCHCH2C4HCHC3H2CHC2H3CHSCFeH2NCHC2FeH2SHCH8CHSC4HCSHC2H3SHSNC8H20C2H2CSCHCHNH2CH5CH2CH2C2NH11FeH3CH4SHSH3CFeNC8H19CH3NHCH2SH4CHCHFeC2H2CH5CSCH2C2H3S2CH3NH2SH2CH2CH3FeSHCSHSHSHS3HFeSH2SFeCSFeS2H2CH2CHSHCFeCH4FeHFeS2FeS2FeSFeS3C8H4C6HCH3C6H6C6H5CFeCHCH2SC2HFeH2CHFeC3HCH4CSH6C6H4CH3C2HC3HSHSH2NC8H28CH2CHSC2H2C2SH3CHC3H3SHCH2S3H3NH2NCFeCH2SH2CNC5SC2H13CH5FeSH5CHC2HFeCHNH3CH7CH3NC8H4SNH2CH3FeCH2C3HC2H8NHCSH2CHC2HSHFeHCH2CH3CH3CH3Fe2HSFeS2FeSFeS2FeSFeS2FeSFeS5FeSFeSHSFeSH2SHC2H2SCSCHFeS2FeSHC6H2CHC2HCH2C6H4C6H4CH2C3H4C6H4C3H4C2H5CH7C2H5CH2CHCHC2H2CHFeC2HCHSC2H2SH2C3HCH2SH4CHSCH3C2H2C4H3CH4CHC3HSH2CHC2H3CHCH2FeHCH2C3NHCSH2FeH2C2H2CHSH7C2SC2HNH2C2HCH6CHNC3HC4HCH3CH3C2SNHCHNHSHCHCHC3NHCH3C2H3CSH7SH2C2HFeNH5SH2NH2CHCH4C2H3C2HCH4SH2C3NC5HC2H18SHC2HCH2C2H3NH2CH3CH4CHFeH3NHCHFeCH2CH7CH4CHCH5FeHSHCH3SHC2SH3CHFeSHFeS2FeS2FeS3FeS2FeS2FeSFeS2HCHFeS2CSHFeHFeHCSCSHC6H4CH4SCSCHCH3C6H4C6H4C6H4C6H8C6H2C8H6CH4FeCHCNHCH2NCHC3H5NH4CH8CH3CH3CHSNC8H11CH9CH4CHC2H4CH4CH7CH5C2FeC2H3C3H4CH2CH3SH2NCH3NFeH6C2H2CH3C2H2SHC2H4FeC2SCH3CSFeSH2CH2FeCHC2H4SHCHNC8H20C3HCSC2H5C2H2SHCS2HNHCNH3SH3FeH5CFeS2FeS2FeSFeHS2FeSHFeS2FeSFeS4CH2CSHFeHSHCHSHCHC6H2SCH3C6H8C6H3FeC2HC2HCHC6H6NCHCHNSC2HCH2C7H11CH2SH2SH4SHCSNCH2CHC3HCSCHC2H4CSCH2SH2C3HFeHNH2CHSH2NSCNC8H20NCHC2SFeHCH3CH6CH7CH3CH2S2C2H2SH4CSH2CHCHCH3CNC8H14FeH5SCH2CH6CHFeH3C2H2C3HCHC5H2SNSH3CH6Fe2C3H7FeH5SH4FeH2FeHC3FeH2SHCSCH7CHCH2CHCHCH4C2H2FeSCFeS2FeSFeS3FeSHFeS2FeSFeS3NS2FeSH2SCFeSHC6H4C6H2CHC6H2SHC6H4C6H4C3NHCH5C2H9CHC2H7NC8H20CHS2CH6CHCH2CSCH2CH2NHCHCSH2CHC2HNC6H16CHCHFeHC2H2CH2CH2CHCNCHCFeH6SH2CH4CH3C2HCNC4HC2H8C2HCHSH7CH5C2HCHCH5CHCH2CSH3CH3CH4CH2FeHSHCFeHSH2C2H4SCFeCS2FeS2FeCFeS4FeHS2FeS2FeS2FeSFeS3CH2FeHSCH4SFeCSFeHSH3CS2H2CFeC6H4C3HC2H2CHC6H4C6H4CH3SC2H2CHCHCH3C6H4C6H11SC3H6NC5H12NC8H20NC8H16SHNCH3CHSC2NHC2HC2H2CNHSCH5SHCH2NC8H20SH2CHC2SH2CHC2H10CH2CHNFeHCH2CH2FeCFeSCFeCHCHC2H3CFeH2CHCHFeH2CHSCH2CSCH6CH3CHCHFeH3CHC2H2C2NHSH2CSHC2SCFeSHFe2SCHFeSHFeS2FeSFeCSHFeSHFeS2FeSFeHS2FeS2FeS2FeSFeS3FeHSH2SH2SH2SFeS2FeS2FeSFeS3H2C6H4C6H9C3HC3SH2C6H2SH2C3HC6H4C6H4C6H4C6HCH2CHC4H2CHCHC2H2SH3CHCH2SCH6C2H3C2H10C3H7CH2C4H2NCHNC8H20NC8H26C3FeHFeH6C2H4CHS2HNCH2CH2CH3CHCH2SNHFeH3CH2SFeHC2HC2NC4NSH4SHCH3NC8H20CH2SCHC2HCHCH4CH9SH4CHCH6CHSH2SCH2CHFeSCFeS2FeSFeS3H2FeHCH2SHFeSHFeS3FeSFeS2FeS2FeS2Fe2S3HFeH2C6H4C6H4CHSFe2C5H4C6H4C2HC3HFeH5C6H4NC5H16CH4C2HC3H2NH3S2H5C2H3NCHC2SHC2H9CH11CH4SHCHSCH2NC8H20NCHC3HSNH4CH7CH3CH2CH2C2HCHCH4CFeCH5CS2H2CH4CH5CHNC2H2C3NHCH2C2H3S2CH2CHC3HC2H4CH3CHC2HCH2CHCH2C3H2SH4C3HFeCH3CH5CHCSH3C5H2C3HCSNFeCH6SH2CHNH5NCHCHCH4FeH2CHCH2CFeHC2H5S2FeSFeSCSFeSH3CFeS2FeSFeSFeS2FeS2FeS2FeSFeS2H3C2H4CNHS2C3SFeC4H4CHC6H4C2HCHCH4C6H4C4H3CSC3H3CS2C6H4C4H2CFeNCH2CH5FeNHSH2CHNC5HC2H11CH4C3H3CH2C4HCHC4H2FeCH3CH7C3H2CH2C2HCHCSHCHCH5FeH3NC8H20NC7H11CHSH3NC8H23FeH5C2HCHCNH3C2H4NH4SH2CSHCSCH3CFeCH2C3SH2CSC3H4CSHSC3HCHFeH4CH2C2H9CH2CH2SH4C3FeHSH2CSH3NHCH3CHSCSCH2CFeH3CH4C2H8CH8C2H2CHCH4CHCHCHCHC2FeHCHCH5SHSH3CH4FeCHCSHSHCH4C3HC2SC2HFeS2FeS2FeS2FeSFeS3H2CH3C2H2C2H2SCHC3HSHCHSC7H4C3HFeCH2C2SH2CH2C2SH2C3H4C5HC3FeC3H8NC8H21C2NHCHCH2CH2CH7SH2CNH3CH6NHNHCHC2H10FeHC2H4NCHCHC2H2C2HCSCHFeSCHCH2NFeHC2H2SH4CHCHCH2C2H2SH2CH2SHCHCH2CH5C2HCHC3HSFeH3SH2CH4CH4CNCSH3CH3CHCSC3H4FeHCHCHCH6CH3CHC2HC3HCHFeSH2S3HCH4SFeHSH2FeSHFeS2FeSFeHS2HNSHSHCH2CH2C2H2S3CSHC5H8FeC2H2NHCH3NFeH3C3H4CHCH2C7H4C6SH4CHCH3C2SC2SHCSCHCHCH3CSC2SH10CH4C2H2C6H2CHCH2C3HCNC7H2CH5C2H7SH3CH3CH5C2HSCH2CH2C2H4CHC3H7CH2CH2CHNH2FeHFeNC3FeH4CH4CSH2CNH5CHCHFeCH3Fe2HSHCHFeHCH2CSH4FeS2FeHS2FeS2FeCFeS2FeHSHS2CSH6CFeH2FeS2FeS2FeSFeCS2H4SCHCHCH2CH2C6H5CHSCH5SC6H4C6HCH2C6HCSH4CH2NH3C6H4C6H7CH3S2HC4H4CHSCHCH2SH3C4NHC2HCH3C2H3C2HC2Fe2CH2SHCH2CSH2CH3NH3SH3CH4CHCH2NCHCNHC3HNCH3NH3CH6CH5CHCH2CHC2HCHCH4C2HFe2HCSHCHC2H6NCHC3HC2FeCFeCH7CH3CH4CSN2CHCH2CHSCH2C2H2CH4CNCSHFeCH8SH2C2H8CSHCH3CHC2H4CH2CH9C2HCH3CHCH4CH3FeSHFeS2FeHFeS3FeSFeS2FeSFeHS2FeS2FeS2FeCFeS3FeS2FeSHFeSFeS3FeS2FeS2FeSFeS3HSCFeSH4C2SCHC6H4C6H4CH4C2H2SCH2C3HSH2C2H2C7H4C6H5CHCHCH4C6H2FeCSC6H4C6H4CSC2H4NHCH11FeHSCH2C2HCFeHCNCHC3HC2H2CFeHNHNSH4CH2NC8H20NC8H23NC2NCHCHCH8CH3CH2C3H4CNC7H12CH12C3H5CSH3CHCHSHCH3CHCH3CNHC2H2CH3C2HCH2C4H3CHCFeHC2H4CHCH6NCH2CHNC2HSH6CSCH2C3H4CH3CH3C2H7C2H7CH4CH8C3H2CH2FeS2FeS2FeSFeHS2FeS2FeS2FeSFeS3CHCH2CH4C2H2C2H2C3H6C2H2CHCH3C2SH2C2H2C6H7CH3C3H4C2H4CHNCHC2H9FeHC2H2SCH2CH3C3HCN2H2CHCH2SH2CHCHCH2CHSC2SHCS2HC2H6NHCHC2HFeHCSHC4SH4C2HCHC3H3C3HC2H2C4H2C3H2C2HSH6FeH3C2FeHCH2SCH3C2H2NC5NH8CHSH3C2H5CH4CH4CHCH3CH3SH16SH2C2NHC2H4CH4FeSHFeS2FeS2FeCFeS3FeSHFeS2FeHFeS3HCHCHCNH3C6H6C4H7CH2C2H2C6H5C2H2SCH4CHSHCHCH6CHCH2C4HCHC2H3C2HC2NH2CH2CHNHC3H3CH2CH3C8HCHCH4CHCH2CHSHSHCH2NHCNC5H6CH7CHC2H4CH2CH2C2H19CHCNHCSC2HCH4CH2CH2CH2CH2SH7CH
_chemical_formula_sum              "C4032 H6912 Fe576 S1152 N288"
_cell_length_a       85.6427
_cell_length_b       85.6252
_cell_length_c       86.0111
_cell_angle_alpha    74.0257
_cell_angle_beta     73.9635
_cell_angle_gamma    74.1169

_space_group_name_H-M_alt    "P 1"
_space_group_IT_number       1

loop_
  _space_group_symop_operation_xyz
  'x, y, z'

loop_
  _atom_site_type_symbol
  _atom_site_label
  _atom_site_symmetry_multiplicity
  _atom_site_fract_x
  _atom_site_fract_y
  _atom_site_fract_z
  _atom_site_occupancy
  C   C1        1.0  0.23676  0.03663  0.11492  1.0000
  H   H1        1.0  0.13697  0.08379  0.32515  1.0000
  Fe  Fe1       1.0  0.06914  0.12940  0.25796  1.0000
  S   S1        1.0  0.04954  0.14980  0.26835  1.0000
  S   S2        1.0  0.07346  0.10184  0.26882  1.0000
  Fe  Fe2       1.0  0.07985  0.15213  0.22549  1.0000
  S   S3        1.0  0.06129  0.17439  0.23269  1.0000
  S   S4        1.0  0.09809  0.15058  0.20135  1.0000
  Fe  Fe3       1.0  0.06917  0.16515  0.25708  1.0000
  S   S5        1.0  0.07253  0.18608  0.26653  1.0000
  Fe  Fe4       1.0  0.04312  0.15750  0.24324  1.0000
  N   N1        1.0  0.22660  0.15136  0.38356  1.0000
  S   S6        1.0  0.08927  0.14399  0.24889  1.0000
  S   S7        1.0  0.06115  0.13604  0.23379  1.0000
  Fe  Fe5       1.0  0.19897  0.04130  0.26437  1.0000
  S   S8        1.0  0.17937  0.06157  0.25410  1.0000
  S   S9        1.0  0.22105  0.05069  0.26490  1.0000
  Fe  Fe6       1.0  0.18036  0.01432  0.26652  1.0000
  S   S10       1.0  0.15917  0.03294  0.25662  1.0000
  C   C2        1.0  0.16641  0.17503  0.27128  1.0000
  Fe  Fe7       1.0  0.17935  0.04474  0.23841  1.0000
  S   S11       1.0  0.18142  0.05344  0.21091  1.0000
  Fe  Fe8       1.0  0.16126  0.04811  0.27338  1.0000
  S   S12       1.0  0.14250  0.06553  0.28836  1.0000
  S   S13       1.0  0.20038  0.02533  0.24708  1.0000
  S   S14       1.0  0.18093  0.02862  0.28487  1.0000
  H   H2        1.0  0.02642  0.13651  0.22757  1.0000
  C   C3        1.0  0.99833  0.12009  0.27088  1.0000
  H   H3        1.0  0.16729  0.06796  0.33999  1.0000
  H   H4        1.0  0.23031  0.02646  0.12231  1.0000
  S   S15       1.0  0.20847  0.13912  0.34627  1.0000
  S   S16       1.0  0.23007  0.06300  0.33097  1.0000
  Fe  Fe9       1.0  0.12709  0.19936  0.31730  1.0000
  C   C4        1.0  0.23304  0.21442  0.01472  1.0000
  S   S17       1.0  0.11960  0.17656  0.31558  1.0000
  S   S18       1.0  0.01638  0.16724  0.23985  1.0000
  S   S19       1.0  0.18667  0.20663  0.29816  1.0000
  S   S20       1.0  0.14738  0.19578  0.33056  1.0000
  C   C5        1.0  0.20459  0.15880  0.33327  1.0000
  C   C6        1.0  0.21267  0.16159  0.31653  1.0000
  C   C7        1.0  0.20810  0.17692  0.30590  1.0000
  C   C8        1.0  0.19525  0.18929  0.31197  1.0000
  C   C9        1.0  0.18802  0.18688  0.32890  1.0000
  C   C10       1.0  0.19260  0.17163  0.33953  1.0000
  C   C11       1.0  0.22489  0.13404  0.38443  1.0000
  H   H5        1.0  0.21393  0.17884  0.29285  1.0000
  H   H6        1.0  0.17846  0.19658  0.33376  1.0000
  H   H7        1.0  0.18628  0.16952  0.35244  1.0000
  C   C12       1.0  0.01310  0.14088  0.22896  1.0000
  H   H8        1.0  0.17747  0.00548  0.20294  1.0000
  H   H9        1.0  0.22399  0.22874  0.45836  1.0000
  H   H10       1.0  0.17606  0.05028  0.31104  1.0000
  C   C13       1.0  0.00383  0.13221  0.22443  1.0000
  H   H11       1.0  0.16976  0.00407  0.22504  1.0000
  H   H12       1.0  0.14769  0.22479  0.39038  1.0000
  C   C14       1.0  0.18072  0.00051  0.21523  1.0000
  C   C15       1.0  0.22815  0.23137  0.32373  1.0000
  C   C16       1.0  0.17437  0.06691  0.32721  1.0000
  C   C17       1.0  0.08557  0.18293  0.28035  1.0000
  C   C18       1.0  0.09461  0.16716  0.28640  1.0000
  C   C19       1.0  0.10489  0.16530  0.29735  1.0000
  C   C20       1.0  0.10653  0.17922  0.30193  1.0000
  C   C21       1.0  0.09761  0.19497  0.29575  1.0000
  C   C22       1.0  0.08694  0.19674  0.28527  1.0000
  H   H13       1.0  0.09347  0.15641  0.28285  1.0000
  H   H14       1.0  0.11151  0.15303  0.30233  1.0000
  H   H15       1.0  0.09855  0.20572  0.29946  1.0000
  H   H16       1.0  0.07950  0.20884  0.28114  1.0000
  C   C23       1.0  0.09306  0.09208  0.27342  1.0000
  C   C24       1.0  0.09919  0.07509  0.27352  1.0000
  C   C25       1.0  0.11461  0.06692  0.27764  1.0000
  C   C26       1.0  0.12380  0.07567  0.28195  1.0000
  C   C27       1.0  0.11767  0.09265  0.28185  1.0000
  C   C28       1.0  0.10244  0.10090  0.27737  1.0000
  H   H17       1.0  0.09192  0.06822  0.27056  1.0000
  H   H18       1.0  0.11918  0.05377  0.27789  1.0000
  H   H19       1.0  0.12464  0.09944  0.28531  1.0000
  H   H20       1.0  0.09768  0.11394  0.27751  1.0000
  H   H21       1.0  0.20743  0.15164  0.40609  1.0000
  H   H22       1.0  0.19635  0.16920  0.28102  1.0000
  C   C29       1.0  0.21018  0.05281  0.18635  1.0000
  C   C30       1.0  0.20236  0.05486  0.20252  1.0000
  C   C31       1.0  0.21152  0.05742  0.21240  1.0000
  C   C32       1.0  0.18769  0.09068  0.31917  1.0000
  Fe  Fe10      1.0  0.23947  0.08627  0.32700  1.0000
  H   H23       1.0  0.20315  0.05087  0.17861  1.0000
  H   H24       1.0  0.20562  0.05926  0.22477  1.0000
  C   C33       1.0  0.08725  0.19378  0.15816  1.0000
  C   C34       1.0  0.08492  0.19701  0.17385  1.0000
  C   C35       1.0  0.08786  0.18377  0.18738  1.0000
  C   C36       1.0  0.09379  0.16744  0.18499  1.0000
  C   C37       1.0  0.09666  0.16438  0.16919  1.0000
  C   C38       1.0  0.09316  0.17748  0.15588  1.0000
  H   H25       1.0  0.21771  0.22216  0.34898  1.0000
  H   H26       1.0  0.08594  0.18620  0.19953  1.0000
  H   H27       1.0  0.10133  0.15181  0.16728  1.0000
  H   H28       1.0  0.20358  0.23135  0.30338  1.0000
  C   C39       1.0  0.20364  0.21484  0.02054  1.0000
  H   H29       1.0  0.17215  0.14280  0.27254  1.0000
  H   H30       1.0  0.10043  0.21794  0.04692  1.0000
  H   H31       1.0  0.11900  0.20131  0.23580  1.0000
  H   H32       1.0  0.05440  0.19013  0.14919  1.0000
  H   H33       1.0  0.14139  0.10971  0.18016  1.0000
  H   H34       1.0  0.13379  0.10501  0.31362  1.0000
  H   H35       1.0  0.22713  0.18584  0.35087  1.0000
  N   N2        1.0  0.17456  0.08394  0.31598  1.0000
  H   H36       1.0  0.22192  0.15174  0.31159  1.0000
  H   H37       1.0  0.23776  0.11008  0.37849  1.0000
  H   H38       1.0  0.21292  0.20478  0.99107  1.0000
  H   H39       1.0  0.09502  0.17495  0.14377  1.0000
  C   C40       1.0  0.04249  0.19659  0.15609  1.0000
  C   C41       1.0  0.23648  0.05483  0.19057  1.0000
  H   H40       1.0  0.19627  0.23043  0.98016  1.0000
  H   H41       1.0  0.23250  0.21797  0.42685  1.0000
  S   S21       1.0  0.22506  0.10982  0.31390  1.0000
  H   H42       1.0  0.03310  0.22346  0.20135  1.0000
  H   H43       1.0  0.16576  0.20079  0.25802  1.0000
  Fe  Fe11      1.0  0.15902  0.21254  0.30805  1.0000
  C   C42       1.0  0.21751  0.04404  0.29885  1.0000
  H   H44       1.0  0.03907  0.20932  0.14855  1.0000
  H   H45       1.0  0.19096  0.99273  0.17922  1.0000
  S   S22       1.0  0.14000  0.21418  0.29392  1.0000
  H   H46       1.0  0.08074  0.20966  0.17553  1.0000
  H   H47       1.0  0.15264  0.17898  0.27511  1.0000
  H   H48       1.0  0.11466  0.21847  0.21929  1.0000
  C   C43       1.0  0.21345  0.22559  0.33709  1.0000
  C   C44       1.0  0.22297  0.05410  0.28350  1.0000
  C   C45       1.0  0.23309  0.06946  0.29729  1.0000
  H   H49       1.0  0.08313  0.22697  0.03655  1.0000
  H   H50       1.0  0.16627  0.04370  0.33213  1.0000
  H   H51       1.0  0.15497  0.06028  0.31911  1.0000
  H   H52       1.0  0.04526  0.20944  0.21524  1.0000
  C   C46       1.0  0.22323  0.18889  0.02769  1.0000
  C   C47       1.0  0.18054  0.09890  0.28512  1.0000
  C   C48       1.0  0.16684  0.16720  0.30073  1.0000
  H   H53       1.0  0.21464  0.13453  0.37861  1.0000
  C   C49       1.0  0.20206  0.14276  0.28915  1.0000
  C   C50       1.0  0.22729  0.05268  0.18040  1.0000
  C   C51       1.0  0.18662  0.09047  0.33747  1.0000
  H   H54       1.0  0.19865  0.14177  0.30268  1.0000
  H   H55       1.0  0.20033  0.08364  0.31446  1.0000
  C   C52       1.0  0.18418  0.21550  0.36212  1.0000
  H   H56       1.0  0.19591  0.20600  0.36083  1.0000
  H   H57       1.0  0.17304  0.17704  0.30071  1.0000
  H   H58       1.0  0.18630  0.18912  0.25929  1.0000
  H   H59       1.0  0.21605  0.03862  0.32521  1.0000
  H   H60       1.0  0.00016  0.12958  0.27643  1.0000
  H   H61       1.0  0.99575  0.20709  0.18060  1.0000
  H   H62       1.0  0.14393  0.14917  0.30313  1.0000
  H   H63       1.0  0.14198  0.15658  0.28176  1.0000
  H   H64       1.0  0.14896  0.99354  0.27506  1.0000
  C   C53       1.0  0.08997  0.22875  0.04492  1.0000
  H   H65       1.0  0.17552  0.21335  0.35579  1.0000
  H   H66       1.0  0.10755  0.21835  0.25393  1.0000
  S   S23       1.0  0.18529  0.98616  0.27028  1.0000
  C   C54       1.0  0.21091  0.15991  0.39378  1.0000
  H   H67       1.0  0.13027  0.23178  0.22705  1.0000
  H   H68       1.0  0.23337  0.05075  0.16808  1.0000
  H   H69       1.0  0.05008  0.20860  0.17045  1.0000
  C   C55       1.0  0.14307  0.09306  0.31530  1.0000
  H   H70       1.0  0.07397  0.22389  0.23007  1.0000
  H   H71       1.0  0.19676  0.19117  0.03213  1.0000
  S   S24       1.0  0.11182  0.22137  0.32811  1.0000
  H   H72       1.0  0.15651  0.15638  0.32642  1.0000
  C   C56       1.0  0.22842  0.05757  0.20640  1.0000
  H   H73       1.0  0.18873  0.07764  0.34510  1.0000
  Fe  Fe12      1.0  0.22826  0.12122  0.33299  1.0000
  C   C57       1.0  0.14894  0.14693  0.29041  1.0000
  H   H74       1.0  0.17049  0.14106  0.31623  1.0000
  H   H75       1.0  0.99763  0.22804  0.17126  1.0000
  H   H76       1.0  0.00586  0.22914  0.12646  1.0000
  C   C58       1.0  0.21684  0.22304  0.01359  1.0000
  H   H77       1.0  0.21278  0.17105  0.39674  1.0000
  C   C59       1.0  0.19208  0.15857  0.27967  1.0000
  H   H78       1.0  0.14179  0.22530  0.00078  1.0000
  C   C60       1.0  0.10887  0.21125  0.23121  1.0000
  H   H79       1.0  0.21965  0.16026  0.35959  1.0000
  C   C61       1.0  0.23069  0.06684  0.28280  1.0000
  C   C62       1.0  0.19542  0.16541  0.38614  1.0000
  H   H80       1.0  0.23486  0.17075  0.99746  1.0000
  H   H81       1.0  0.18724  0.06016  0.32848  1.0000
  C   C63       1.0  0.22010  0.04654  0.31337  1.0000
  S   S25       1.0  0.13516  0.22019  0.36465  1.0000
  C   C64       1.0  0.21247  0.20633  0.97793  1.0000
  H   H82       1.0  0.10050  0.20459  0.22897  1.0000
  H   H83       1.0  0.21163  0.03412  0.29949  1.0000
  H   H84       1.0  0.17217  0.19618  0.27711  1.0000
  C   C65       1.0  0.23617  0.19743  0.02202  1.0000
  N   N3        1.0  0.02993  0.19772  0.18710  1.0000
  C   C66       1.0  0.03562  0.19662  0.20258  1.0000
  C   C67       1.0  0.02200  0.18306  0.19040  1.0000
  C   C68       1.0  0.01736  0.21393  0.18409  1.0000
  C   C69       1.0  0.04494  0.19733  0.17295  1.0000
  H   H85       1.0  0.21546  0.14326  0.28521  1.0000
  C   C70       1.0  0.03369  0.16574  0.19323  1.0000
  H   H86       1.0  0.22120  0.12739  0.39750  1.0000
  H   H87       1.0  0.14615  0.08943  0.30330  1.0000
  H   H88       1.0  0.02531  0.19506  0.21372  1.0000
  H   H89       1.0  0.04579  0.18550  0.20466  1.0000
  H   H90       1.0  0.01630  0.18350  0.18017  1.0000
  H   H91       1.0  0.01151  0.18332  0.20150  1.0000
  H   H92       1.0  0.00958  0.21687  0.19608  1.0000
  H   H93       1.0  0.02375  0.22449  0.17792  1.0000
  H   H94       1.0  0.23523  0.05970  0.21418  1.0000
  H   H95       1.0  0.22449  0.15752  0.99327  1.0000
  H   H96       1.0  0.05543  0.18697  0.17622  1.0000
  H   H97       1.0  0.01012  0.12119  0.21955  1.0000
  H   H98       1.0  0.19263  0.15499  0.38281  1.0000
  H   H99       1.0  0.04438  0.16423  0.18260  1.0000
  H   H100      1.0  0.03823  0.16288  0.20481  1.0000
  H   H101      1.0  0.02664  0.15611  0.19466  1.0000
  H   H102      1.0  0.17109  0.07672  0.29487  1.0000
  H   H103      1.0  0.19675  0.17569  0.37506  1.0000
  C   C71       1.0  0.22789  0.05926  0.31262  1.0000
  H   H104      1.0  0.03338  0.18927  0.15698  1.0000
  N   N4        1.0  0.17335  0.16139  0.28461  1.0000
  H   H105      1.0  0.23891  0.22063  0.32295  1.0000
  H   H106      1.0  0.15366  0.98859  0.22121  1.0000
  H   H107      1.0  0.17473  0.09798  0.34311  1.0000
  H   H108      1.0  0.18441  0.17018  0.39531  1.0000
  H   H109      1.0  0.22350  0.18524  0.37226  1.0000
  C   C72       1.0  0.20686  0.19770  0.02746  1.0000
  C   C73       1.0  0.09954  0.22121  0.24484  1.0000
  H   H110      1.0  0.16621  0.98678  0.19468  1.0000
  H   H111      1.0  0.14632  0.13488  0.29054  1.0000
  C   C74       1.0  0.00516  0.15531  0.23500  1.0000
  H   H112      1.0  0.16854  0.10804  0.28645  1.0000
  H   H113      1.0  0.20113  0.13132  0.28610  1.0000
  H   H114      1.0  0.17835  0.15538  0.32212  1.0000
  H   H115      1.0  0.16875  0.17053  0.25967  1.0000
  H   H116      1.0  0.15354  0.17366  0.30203  1.0000
  H   H117      1.0  0.19107  0.22150  0.01995  1.0000
  C   C75       1.0  0.17956  0.08251  0.29808  1.0000
  H   H118      1.0  0.19077  0.10430  0.28551  1.0000
  H   H119      1.0  0.21245  0.21371  0.33488  1.0000
  H   H120      1.0  0.19039  0.00677  0.21555  1.0000
  C   C76       1.0  0.16831  0.15412  0.31704  1.0000
  H   H121      1.0  0.19669  0.09601  0.33808  1.0000
  C   C77       1.0  0.22939  0.16052  0.36571  1.0000
  H   H122      1.0  0.23899  0.07938  0.29659  1.0000
  H   H123      1.0  0.22941  0.04517  0.10608  1.0000
  C   C78       1.0  0.17318  0.19109  0.26629  1.0000
  H   H124      1.0  0.23030  0.14531  0.41722  1.0000
  C   C79       1.0  0.04229  0.21151  0.20295  1.0000
  C   C80       1.0  0.15810  0.09583  0.31990  1.0000
  H   H125      1.0  0.08863  0.21552  0.25158  1.0000
  H   H126      1.0  0.18339  0.09621  0.27258  1.0000
  C   C81       1.0  0.00484  0.21502  0.17373  1.0000
  C   C82       1.0  0.16785  0.14597  0.28499  1.0000
  H   H127      1.0  0.18742  0.10380  0.31235  1.0000
  H   H128      1.0  0.20186  0.20092  0.97838  1.0000
  H   H129      1.0  0.15907  0.10901  0.31438  1.0000
  H   H130      1.0  0.05401  0.21254  0.19365  1.0000
  H   H131      1.0  0.15425  0.09546  0.33343  1.0000
  H   H132      1.0  0.19646  0.15805  0.26631  1.0000
  H   H133      1.0  0.17365  0.13485  0.29325  1.0000
  H   H134      1.0  0.00047  0.16184  0.18007  1.0000
  H   H135      1.0  0.99426  0.09500  0.28211  1.0000
  Fe  Fe13      1.0  0.13368  0.21945  0.33895  1.0000
  C   C83       1.0  0.22477  0.17076  0.99174  1.0000
  S   S26       1.0  0.08181  0.20952  0.14137  1.0000
  C   C84       1.0  0.16741  0.05483  0.32191  1.0000
  N   N5        1.0  0.13612  0.09524  0.22329  1.0000
  C   C85       1.0  0.14902  0.10261  0.22604  1.0000
  C   C86       1.0  0.14037  0.09470  0.20518  1.0000
  C   C87       1.0  0.13745  0.07781  0.23387  1.0000
  C   C88       1.0  0.11924  0.10603  0.22843  1.0000
  C   C89       1.0  0.14795  0.10299  0.24419  1.0000
  C   C90       1.0  0.13901  0.11173  0.19291  1.0000
  C   C91       1.0  0.13053  0.06548  0.22891  1.0000
  C   C92       1.0  0.10422  0.10228  0.22467  1.0000
  H   H136      1.0  0.16182  0.09571  0.22130  1.0000
  H   H137      1.0  0.14826  0.11572  0.21904  1.0000
  H   H138      1.0  0.13242  0.08809  0.20231  1.0000
  H   H139      1.0  0.15327  0.08730  0.20179  1.0000
  H   H140      1.0  0.15072  0.07169  0.23405  1.0000
  H   H141      1.0  0.13117  0.07817  0.24693  1.0000
  H   H142      1.0  0.11610  0.10513  0.24203  1.0000
  H   H143      1.0  0.11919  0.11949  0.22323  1.0000
  H   H144      1.0  0.14908  0.09044  0.25243  1.0000
  H   H145      1.0  0.15847  0.10799  0.24459  1.0000
  H   H146      1.0  0.13635  0.11131  0.24927  1.0000
  H   H147      1.0  0.19192  0.07391  0.29575  1.0000
  H   H148      1.0  0.12638  0.11974  0.19533  1.0000
  H   H149      1.0  0.14844  0.11842  0.19281  1.0000
  H   H150      1.0  0.11767  0.07040  0.22714  1.0000
  H   H151      1.0  0.13035  0.05412  0.23899  1.0000
  H   H152      1.0  0.13878  0.06145  0.21761  1.0000
  H   H153      1.0  0.09849  0.09327  0.23521  1.0000
  H   H154      1.0  0.10703  0.09786  0.21309  1.0000
  H   H155      1.0  0.09471  0.11401  0.22277  1.0000
  H   H156      1.0  0.18657  0.22272  0.32890  1.0000
  H   H157      1.0  0.21264  0.17662  0.99875  1.0000
  S   S27       1.0  0.22758  0.16712  0.03367  1.0000
  H   H158      1.0  0.23166  0.01918  0.09743  1.0000
  H   H159      1.0  0.11536  0.22260  0.02101  1.0000
  H   H160      1.0  0.23509  0.99559  0.08626  1.0000
  H   H161      1.0  0.99141  0.10762  0.29600  1.0000
  H   H162      1.0  0.01089  0.21189  0.16153  1.0000
  H   H163      1.0  0.08132  0.22889  0.05722  1.0000
  H   H164      1.0  0.23471  0.07485  0.27104  1.0000
  C   C93       1.0  0.23129  0.17866  0.36243  1.0000
  H   H165      1.0  0.99220  0.12671  0.26047  1.0000
  H   H166      1.0  0.23687  0.04396  0.12371  1.0000
  H   H167      1.0  0.17818  0.21356  0.37551  1.0000
  H   H168      1.0  0.01071  0.11319  0.26531  1.0000
  H   H169      1.0  0.23033  0.04228  0.07945  1.0000
  H   H170      1.0  0.03027  0.19734  0.65838  1.0000
  N   N6        1.0  0.19913  0.18828  0.64659  1.0000
  H   H171      1.0  0.20787  0.99771  0.79569  1.0000
  H   H172      1.0  0.05833  0.03446  0.70670  1.0000
  S   S28       1.0  0.20153  0.14555  0.87024  1.0000
  H   H173      1.0  0.15530  0.09221  0.64582  1.0000
  H   H174      1.0  0.11745  0.12016  0.63538  1.0000
  H   H175      1.0  0.16468  0.15529  0.93040  1.0000
  H   H176      1.0  0.03418  0.17266  0.65017  1.0000
  H   H177      1.0  0.18878  0.01681  0.81315  1.0000
  H   H178      1.0  0.18287  0.11467  0.84462  1.0000
  H   H179      1.0  0.20350  0.00202  0.82377  1.0000
  H   H180      1.0  0.18644  0.99829  0.79833  1.0000
  H   H181      1.0  0.19400  0.16027  0.63748  1.0000
  H   H182      1.0  0.15121  0.17429  0.92241  1.0000
  H   H183      1.0  0.22169  0.15780  0.64029  1.0000
  S   S29       1.0  0.15167  0.21681  0.88554  1.0000
  Fe  Fe14      1.0  0.14238  0.00422  0.71118  1.0000
  S   S30       1.0  0.13855  0.99618  0.73877  1.0000
  H   H184      1.0  0.00636  0.15413  0.65320  1.0000
  Fe  Fe15      1.0  0.14285  0.03988  0.71139  1.0000
  S   S31       1.0  0.13865  0.03439  0.73908  1.0000
  S   S32       1.0  0.14493  0.06644  0.69947  1.0000
  Fe  Fe16      1.0  0.15755  0.01089  0.73609  1.0000
  S   S33       1.0  0.17893  0.00101  0.74904  1.0000
  Fe  Fe17      1.0  0.12018  0.02056  0.73873  1.0000
  S   S34       1.0  0.09547  0.02209  0.75659  1.0000
  S   S35       1.0  0.16298  0.01711  0.70838  1.0000
  S   S36       1.0  0.12267  0.02780  0.71122  1.0000
  Fe  Fe18      1.0  0.03119  0.12024  0.74237  1.0000
  S   S37       1.0  0.02660  0.14152  0.72118  1.0000
  S   S38       1.0  0.03145  0.12480  0.76679  1.0000
  Fe  Fe19      1.0  0.03247  0.09488  0.72353  1.0000
  S   S39       1.0  0.02792  0.11389  0.70051  1.0000
  S   S40       1.0  0.03519  0.06762  0.72575  1.0000
  Fe  Fe20      1.0  0.04603  0.12554  0.70550  1.0000
  S   S41       1.0  0.06553  0.13490  0.68405  1.0000
  Fe  Fe21      1.0  0.00879  0.12838  0.71788  1.0000
  H   H185      1.0  0.06681  0.18919  0.74199  1.0000
  S   S42       1.0  0.05238  0.10518  0.72703  1.0000
  S   S43       1.0  0.01163  0.10833  0.74064  1.0000
  C   C94       1.0  0.06902  0.18895  0.67576  1.0000
  H   H186      1.0  0.06480  0.20266  0.72216  1.0000
  H   H187      1.0  0.20473  0.21675  0.54941  1.0000
  C   C95       1.0  0.19941  0.04235  0.75539  1.0000
  C   C96       1.0  0.20587  0.02570  0.76204  1.0000
  N   N7        1.0  0.18953  0.17196  0.91320  1.0000
  H   H188      1.0  0.18923  0.15238  0.93564  1.0000
  H   H189      1.0  0.18859  0.09602  0.66546  1.0000
  H   H190      1.0  0.05764  0.15476  0.78975  1.0000
  C   C97       1.0  0.09917  0.17688  0.71619  1.0000
  H   H191      1.0  0.07861  0.16403  0.84206  1.0000
  C   C98       1.0  0.07889  0.03516  0.74796  1.0000
  C   C99       1.0  0.08169  0.04717  0.73330  1.0000
  C   C100      1.0  0.06822  0.05761  0.72670  1.0000
  C   C101      1.0  0.05197  0.05586  0.73466  1.0000
  C   C102      1.0  0.04918  0.04398  0.74941  1.0000
  C   C103      1.0  0.06262  0.03377  0.75614  1.0000
  H   H192      1.0  0.09418  0.04860  0.72714  1.0000
  H   H193      1.0  0.07038  0.06681  0.71529  1.0000
  H   H194      1.0  0.03662  0.04262  0.75557  1.0000
  H   H195      1.0  0.06040  0.02460  0.76756  1.0000
  C   C104      1.0  0.18479  0.05870  0.66191  1.0000
  C   C105      1.0  0.17086  0.05640  0.67480  1.0000
  C   C106      1.0  0.16315  0.06850  0.68417  1.0000
  C   C107      1.0  0.16965  0.08273  0.68087  1.0000
  H   H196      1.0  0.19057  0.04941  0.65452  1.0000
  H   H197      1.0  0.16583  0.04547  0.67717  1.0000
  H   H198      1.0  0.16382  0.09202  0.68824  1.0000
  C   C108      1.0  0.07758  0.17963  0.66377  1.0000
  C   C109      1.0  0.07632  0.16310  0.66644  1.0000
  C   C110      1.0  0.06679  0.15567  0.68124  1.0000
  C   C111      1.0  0.05844  0.16490  0.69339  1.0000
  H   H199      1.0  0.08507  0.18524  0.65231  1.0000
  H   H200      1.0  0.08272  0.15611  0.65696  1.0000
  H   H201      1.0  0.05154  0.15914  0.70506  1.0000
  C   C112      1.0  0.15768  0.16695  0.61636  1.0000
  C   C113      1.0  0.16667  0.15059  0.61668  1.0000
  C   C114      1.0  0.18401  0.14730  0.61128  1.0000
  C   C115      1.0  0.19236  0.16040  0.60509  1.0000
  C   C116      1.0  0.18332  0.17684  0.60411  1.0000
  C   C117      1.0  0.16599  0.18011  0.60991  1.0000
  H   H202      1.0  0.16030  0.14040  0.62133  1.0000
  H   H203      1.0  0.19092  0.13459  0.61182  1.0000
  H   H204      1.0  0.18969  0.18701  0.59927  1.0000
  H   H205      1.0  0.15904  0.19280  0.60915  1.0000
  C   C118      1.0  0.06996  0.15360  0.76450  1.0000
  C   C119      1.0  0.07003  0.14815  0.75051  1.0000
  C   C120      1.0  0.05792  0.13971  0.75096  1.0000
  C   C121      1.0  0.04605  0.13625  0.76557  1.0000
  C   C122      1.0  0.04600  0.14166  0.77954  1.0000
  C   C123      1.0  0.05775  0.15058  0.77892  1.0000
  H   H206      1.0  0.07948  0.15040  0.73935  1.0000
  H   H207      1.0  0.05803  0.13556  0.74012  1.0000
  H   H208      1.0  0.03682  0.13900  0.79086  1.0000
  C   C124      1.0  0.19837  0.19619  0.88938  1.0000
  H   H209      1.0  0.05801  0.99719  0.71956  1.0000
  H   H210      1.0  0.17442  0.23020  0.80918  1.0000
  H   H211      1.0  0.21601  0.20509  0.59475  1.0000
  H   H212      1.0  0.18114  0.16179  0.89708  1.0000
  C   C125      1.0  0.08967  0.00245  0.71963  1.0000
  C   C126      1.0  0.19739  0.16672  0.86085  1.0000
  H   H213      1.0  0.10903  0.02388  0.67288  1.0000
  C   C127      1.0  0.20731  0.19201  0.84682  1.0000
  C   C128      1.0  0.19099  0.20133  0.84944  1.0000
  C   C129      1.0  0.17778  0.19319  0.85672  1.0000
  C   C130      1.0  0.18098  0.17584  0.86232  1.0000
  S   S44       1.0  0.22177  0.03218  0.79859  1.0000
  H   H214      1.0  0.12626  0.19558  0.86732  1.0000
  H   H215      1.0  0.16510  0.20027  0.85821  1.0000
  H   H216      1.0  0.17076  0.16962  0.86832  1.0000
  H   H217      1.0  0.09663  0.10941  0.70123  1.0000
  H   H218      1.0  0.14813  0.11296  0.63528  1.0000
  H   H219      1.0  0.11702  0.11152  0.70053  1.0000
  C   C131      1.0  0.18692  0.01694  0.75129  1.0000
  C   C132      1.0  0.18065  0.03357  0.74451  1.0000
  C   C133      1.0  0.18686  0.04625  0.74658  1.0000
  H   H220      1.0  0.15635  0.13409  0.65301  1.0000
  H   H221      1.0  0.17116  0.03673  0.73748  1.0000
  H   H222      1.0  0.18195  0.05909  0.74128  1.0000
  H   H223      1.0  0.14081  0.15177  0.65865  1.0000
  S   S45       1.0  0.06920  0.17555  0.80916  1.0000
  H   H224      1.0  0.12558  0.10047  0.65710  1.0000
  H   H225      1.0  0.15517  0.14040  0.67147  1.0000
  H   H226      1.0  0.08739  0.17417  0.86129  1.0000
  H   H227      1.0  0.01388  0.19215  0.68498  1.0000
  H   H228      1.0  0.06547  0.15219  0.85861  1.0000
  Fe  Fe22      1.0  0.22352  0.13192  0.61627  1.0000
  H   H229      1.0  0.22081  0.22548  0.55889  1.0000
  H   H230      1.0  0.04375  0.21722  0.85452  1.0000
  H   H231      1.0  0.00604  0.19521  0.73173  1.0000
  H   H232      1.0  0.01543  0.15860  0.74973  1.0000
  H   H233      1.0  0.20183  0.16371  0.66288  1.0000
  N   N8        1.0  0.21100  0.12445  0.82111  1.0000
  C   C134      1.0  0.20552  0.12475  0.83932  1.0000
  C   C135      1.0  0.22331  0.13559  0.81334  1.0000
  C   C136      1.0  0.21983  0.10687  0.81980  1.0000
  C   C137      1.0  0.19584  0.12994  0.81361  1.0000
  C   C138      1.0  0.19365  0.11324  0.85003  1.0000
  C   C139      1.0  0.19114  0.07303  0.65842  1.0000
  C   C140      1.0  0.22628  0.10338  0.80228  1.0000
  C   C141      1.0  0.19835  0.13822  0.79496  1.0000
  H   H234      1.0  0.21649  0.12162  0.84509  1.0000
  H   H235      1.0  0.19872  0.13744  0.84107  1.0000
  S   S46       1.0  0.11637  0.18783  0.66366  1.0000
  H   H236      1.0  0.19885  0.04944  0.69118  1.0000
  H   H237      1.0  0.23069  0.10297  0.82576  1.0000
  H   H238      1.0  0.21162  0.09795  0.82647  1.0000
  H   H239      1.0  0.19000  0.11921  0.81555  1.0000
  H   H240      1.0  0.21932  0.07432  0.85653  1.0000
  H   H241      1.0  0.20024  0.10003  0.85234  1.0000
  H   H242      1.0  0.18867  0.11650  0.86238  1.0000
  H   H243      1.0  0.23249  0.18311  0.58645  1.0000
  H   H244      1.0  0.12451  0.21910  0.73569  1.0000
  H   H245      1.0  0.11110  0.14209  0.62845  1.0000
  H   H246      1.0  0.00835  0.20379  0.65802  1.0000
  H   H247      1.0  0.21590  0.10321  0.79700  1.0000
  H   H248      1.0  0.23437  0.09070  0.80315  1.0000
  H   H249      1.0  0.00024  0.17954  0.70004  1.0000
  H   H250      1.0  0.22986  0.22144  0.53024  1.0000
  H   H251      1.0  0.17486  0.22855  0.94966  1.0000
  H   H252      1.0  0.08651  0.98812  0.68728  1.0000
  H   H253      1.0  0.11420  0.09547  0.69217  1.0000
  C   C142      1.0  0.23403  0.04341  0.66743  1.0000
  S   S47       1.0  0.13615  0.17064  0.62447  1.0000
  S   S48       1.0  0.20750  0.05839  0.75714  1.0000
  C   C143      1.0  0.19254  0.00335  0.81863  1.0000
  H   H254      1.0  0.10955  0.00231  0.67588  1.0000
  S   S49       1.0  0.21414  0.15616  0.59982  1.0000
  N   N9        1.0  0.22229  0.04852  0.69707  1.0000
  H   H255      1.0  0.00508  0.15230  0.77886  1.0000
  H   H256      1.0  0.10155  0.22964  0.72199  1.0000
  Fe  Fe23      1.0  0.04936  0.19876  0.80498  1.0000
  H   H257      1.0  0.08522  0.02817  0.69496  1.0000
  H   H258      1.0  0.01727  0.22241  0.79124  1.0000
  H   H259      1.0  0.08691  0.21944  0.82958  1.0000
  H   H260      1.0  0.23424  0.16777  0.62195  1.0000
  C   C144      1.0  0.18480  0.16481  0.64800  1.0000
  H   H261      1.0  0.21692  0.18292  0.66204  1.0000
  H   H262      1.0  0.23445  0.10896  0.71671  1.0000
  H   H263      1.0  0.03247  0.16387  0.67822  1.0000
  C   C145      1.0  0.05934  0.18163  0.69055  1.0000
  H   H264      1.0  0.02315  0.20415  0.63925  1.0000
  H   H265      1.0  0.08580  0.17732  0.72143  1.0000
  C   C146      1.0  0.22614  0.16945  0.63417  1.0000
  Fe  Fe24      1.0  0.07765  0.18101  0.78152  1.0000
  H   H266      1.0  0.20552  0.18209  0.62242  1.0000
  H   H267      1.0  0.17057  0.18195  0.89873  1.0000
  H   H268      1.0  0.21445  0.06929  0.67775  1.0000
  H   H269      1.0  0.21681  0.23207  0.96917  1.0000
  H   H270      1.0  0.20421  0.15897  0.81480  1.0000
  H   H271      1.0  0.05427  0.20628  0.87722  1.0000
  C   C147      1.0  0.05550  0.02328  0.71619  1.0000
  C   C148      1.0  0.20203  0.14055  0.91514  1.0000
  C   C149      1.0  0.21894  0.06689  0.68931  1.0000
  N   N10       1.0  0.08209  0.00273  0.70563  1.0000
  H   H272      1.0  0.21804  0.15383  0.82878  1.0000
  S   S50       1.0  0.20867  0.07529  0.64224  1.0000
  H   H273      1.0  0.21839  0.17689  0.96793  1.0000
  H   H274      1.0  0.11451  0.00998  0.69109  1.0000
  S   S51       1.0  0.07108  0.20947  0.67248  1.0000
  H   H275      1.0  0.99449  0.18300  0.82387  1.0000
  H   H276      1.0  0.23396  0.11202  0.79379  1.0000
  C   C150      1.0  0.19735  0.15567  0.92321  1.0000
  C   C151      1.0  0.02077  0.17895  0.65217  1.0000
  H   H277      1.0  0.06749  0.19636  0.84267  1.0000
  S   S52       1.0  0.08553  0.16362  0.76393  1.0000
  H   H278      1.0  0.20902  0.15666  0.92589  1.0000
  H   H279      1.0  0.21581  0.02258  0.76857  1.0000
  C   C152      1.0  0.07318  0.18990  0.88949  1.0000
  Fe  Fe25      1.0  0.12702  0.19270  0.63631  1.0000
  H   H280      1.0  0.99851  0.13920  0.75595  1.0000
  N   N11       1.0  0.99175  0.17159  0.76191  1.0000
  H   H281      1.0  0.01727  0.17889  0.64065  1.0000
  H   H282      1.0  0.15995  0.10879  0.65109  1.0000
  C   C153      1.0  0.18366  0.08499  0.66802  1.0000
  H   H283      1.0  0.08050  0.01868  0.68134  1.0000
  S   S53       1.0  0.02345  0.19594  0.81971  1.0000
  H   H284      1.0  0.09869  0.13185  0.64652  1.0000
  H   H285      1.0  0.21160  0.18721  0.57208  1.0000
  S   S54       1.0  0.05687  0.20308  0.77730  1.0000
  H   H286      1.0  0.17222  0.17957  0.93481  1.0000
  S   S55       1.0  0.20765  0.12309  0.64110  1.0000
  S   S56       1.0  0.23961  0.11286  0.88543  1.0000
  H   H287      1.0  0.23807  0.15292  0.68738  1.0000
  H   H288      1.0  0.08525  0.20169  0.74680  1.0000
  N   N12       1.0  0.08445  0.07979  0.76478  1.0000
  C   C154      1.0  0.06618  0.08716  0.77020  1.0000
  C   C155      1.0  0.09426  0.08750  0.77161  1.0000
  C   C156      1.0  0.08832  0.06123  0.77113  1.0000
  C   C157      1.0  0.08892  0.08337  0.74611  1.0000
  C   C158      1.0  0.05388  0.07808  0.76798  1.0000
  C   C159      1.0  0.09434  0.10600  0.76387  1.0000
  C   C160      1.0  0.08424  0.05524  0.79013  1.0000
  C   C161      1.0  0.10732  0.07705  0.73808  1.0000
  H   H289      1.0  0.06288  0.08800  0.78345  1.0000
  H   H290      1.0  0.06306  0.10024  0.76326  1.0000
  H   H291      1.0  0.10740  0.08053  0.77062  1.0000
  H   H292      1.0  0.08929  0.08669  0.78515  1.0000
  H   H293      1.0  0.08173  0.05511  0.76588  1.0000
  H   H294      1.0  0.10175  0.05586  0.76686  1.0000
  H   H295      1.0  0.08164  0.07755  0.74133  1.0000
  H   H296      1.0  0.08511  0.09685  0.74061  1.0000
  H   H297      1.0  0.05626  0.07633  0.75521  1.0000
  H   H298      1.0  0.05393  0.06584  0.77671  1.0000
  H   H299      1.0  0.04105  0.08569  0.77070  1.0000
  H   H300      1.0  0.10087  0.10800  0.75064  1.0000
  H   H301      1.0  0.08157  0.11375  0.76524  1.0000
  H   H302      1.0  0.10109  0.11055  0.77047  1.0000
  H   H303      1.0  0.09274  0.05840  0.79590  1.0000
  H   H304      1.0  0.08613  0.04146  0.79318  1.0000
  H   H305      1.0  0.07117  0.06025  0.79581  1.0000
  H   H306      1.0  0.10928  0.06434  0.73602  1.0000
  H   H307      1.0  0.11620  0.07682  0.74538  1.0000
  H   H308      1.0  0.11084  0.08548  0.72595  1.0000
  S   S57       1.0  0.22411  0.05843  0.82965  1.0000
  C   C162      1.0  0.07654  0.15762  0.85530  1.0000
  H   H309      1.0  0.03901  0.21080  0.83869  1.0000
  C   C163      1.0  0.11671  0.21036  0.73638  1.0000
  H   H310      1.0  0.08821  0.01524  0.72136  1.0000
  C   C164      1.0  0.08816  0.98639  0.70010  1.0000
  H   H311      1.0  0.20884  0.19871  0.87872  1.0000
  H   H312      1.0  0.19537  0.19993  0.55294  1.0000
  H   H313      1.0  0.23399  0.21658  0.80997  1.0000
  H   H314      1.0  0.19722  0.98713  0.71093  1.0000
  H   H315      1.0  0.19410  0.07377  0.70531  1.0000
  H   H316      1.0  0.23750  0.02899  0.73331  1.0000
  H   H317      1.0  0.02796  0.12897  0.66008  1.0000
  H   H318      1.0  0.18076  0.15372  0.65680  1.0000
  H   H319      1.0  0.18726  0.19829  0.93894  1.0000
  C   C165      1.0  0.23790  0.06617  0.83608  1.0000
  H   H320      1.0  0.17509  0.19602  0.91751  1.0000
  C   C166      1.0  0.21054  0.17477  0.85278  1.0000
  H   H321      1.0  0.21753  0.19814  0.84088  1.0000
  H   H322      1.0  0.11842  0.21741  0.71016  1.0000
  C   C167      1.0  0.11790  0.20097  0.85891  1.0000
  C   C168      1.0  0.20763  0.20356  0.54869  1.0000
  H   H323      1.0  0.19641  0.20534  0.89705  1.0000
  C   C169      1.0  0.06531  0.19630  0.87415  1.0000
  C   C170      1.0  0.08246  0.23113  0.70070  1.0000
  H   H324      1.0  0.20438  0.19331  0.92245  1.0000
  H   H325      1.0  0.17046  0.22501  0.58053  1.0000
  H   H326      1.0  0.22178  0.02276  0.72828  1.0000
  C   C171      1.0  0.20587  0.07823  0.70011  1.0000
  C   C172      1.0  0.21937  0.19208  0.55988  1.0000
  C   C173      1.0  0.10599  0.18852  0.72227  1.0000
  C   C174      1.0  0.17608  0.16992  0.90621  1.0000
  H   H327      1.0  0.22954  0.21659  0.94614  1.0000
  C   C175      1.0  0.15241  0.21990  0.68016  1.0000
  N   N13       1.0  0.06078  0.18344  0.86814  1.0000
  Fe  Fe26      1.0  0.22995  0.12144  0.65065  1.0000
  H   H328      1.0  0.08491  0.20541  0.70155  1.0000
  C   C176      1.0  0.07578  0.16927  0.86648  1.0000
  C   C177      1.0  0.04627  0.17763  0.88085  1.0000
  H   H329      1.0  0.18503  0.98336  0.78246  1.0000
  H   H330      1.0  0.23833  0.05246  0.71052  1.0000
  H   H331      1.0  0.03649  0.18831  0.88470  1.0000
  N   N14       1.0  0.01097  0.16930  0.66735  1.0000
  H   H332      1.0  0.99013  0.11423  0.70127  1.0000
  H   H333      1.0  0.14833  0.22827  0.65530  1.0000
  C   C178      1.0  0.20651  0.04230  0.70044  1.0000
  H   H334      1.0  0.07427  0.20270  0.86422  1.0000
  S   S58       1.0  0.10625  0.21419  0.62982  1.0000
  H   H335      1.0  0.13247  0.23154  0.77534  1.0000
  C   C179      1.0  0.11687  0.19184  0.84805  1.0000
  H   H336      1.0  0.10339  0.99801  0.71647  1.0000
  H   H337      1.0  0.10156  0.17963  0.70246  1.0000
  H   H338      1.0  0.10745  0.21022  0.74822  1.0000
  C   C180      1.0  0.99427  0.19375  0.81369  1.0000
  H   H339      1.0  0.08358  0.99788  0.74659  1.0000
  C   C181      1.0  0.18191  0.18424  0.92424  1.0000
  C   C182      1.0  0.02922  0.14145  0.66039  1.0000
  C   C183      1.0  0.18498  0.20181  0.64129  1.0000
  H   H340      1.0  0.19838  0.04459  0.71249  1.0000
  H   H341      1.0  0.12459  0.17950  0.84807  1.0000
  H   H342      1.0  0.01870  0.18888  0.74686  1.0000
  H   H343      1.0  0.15784  0.21515  0.70427  1.0000
  H   H344      1.0  0.22325  0.16781  0.85142  1.0000
  N   N15       1.0  0.12544  0.12242  0.66508  1.0000
  C   C184      1.0  0.10884  0.12073  0.67661  1.0000
  C   C185      1.0  0.12210  0.13552  0.64987  1.0000
  C   C186      1.0  0.13535  0.12786  0.67402  1.0000
  C   C187      1.0  0.13409  0.10571  0.66097  1.0000
  C   C188      1.0  0.10950  0.10856  0.69354  1.0000
  C   C189      1.0  0.11171  0.13192  0.63970  1.0000
  C   C190      1.0  0.14760  0.13906  0.66349  1.0000
  C   C191      1.0  0.15023  0.10521  0.64747  1.0000
  H   H345      1.0  0.10158  0.13308  0.67912  1.0000
  H   H346      1.0  0.10111  0.11630  0.67095  1.0000
  H   H347      1.0  0.13387  0.13765  0.64105  1.0000
  H   H348      1.0  0.11570  0.14772  0.65329  1.0000
  H   H349      1.0  0.12691  0.13522  0.68314  1.0000
  H   H350      1.0  0.14247  0.11689  0.68151  1.0000
  H   H351      1.0  0.13742  0.09653  0.67214  1.0000
  C   C192      1.0  0.19691  0.99354  0.80483  1.0000
  S   S59       1.0  0.09544  0.19576  0.78173  1.0000
  C   C193      1.0  0.19971  0.01300  0.75986  1.0000
  H   H352      1.0  0.20503  0.00016  0.76465  1.0000
  C   C194      1.0  0.09565  0.21430  0.83762  1.0000
  C   C195      1.0  0.19631  0.20078  0.67162  1.0000
  C   C196      1.0  0.10550  0.19828  0.83763  1.0000
  C   C197      1.0  0.00747  0.20209  0.80855  1.0000
  S   S60       1.0  0.14365  0.20825  0.63751  1.0000
  C   C198      1.0  0.20770  0.19361  0.65679  1.0000
  H   H353      1.0  0.10673  0.18268  0.73540  1.0000
  C   C199      1.0  0.99284  0.17776  0.67135  1.0000
  H   H354      1.0  0.23323  0.08322  0.72461  1.0000
  C   C200      1.0  0.01866  0.16610  0.68208  1.0000
  C   C201      1.0  0.21162  0.18432  0.63125  1.0000
  H   H355      1.0  0.23489  0.13018  0.81821  1.0000
  H   H356      1.0  0.05295  0.18873  0.69997  1.0000
  H   H357      1.0  0.07716  0.16125  0.87885  1.0000
  C   C202      1.0  0.01169  0.15264  0.66405  1.0000
  H   H358      1.0  0.02999  0.20279  0.85965  1.0000
  H   H359      1.0  0.03663  0.14641  0.64810  1.0000
  H   H360      1.0  0.19423  0.22429  0.63931  1.0000
  C   C203      1.0  0.19223  0.17334  0.65701  1.0000
  Fe  Fe27      1.0  0.12214  0.22956  0.63322  1.0000
  H   H361      1.0  0.21449  0.17670  0.90306  1.0000
  H   H362      1.0  0.21897  0.20139  0.94688  1.0000
  H   H363      1.0  0.00090  0.16740  0.73686  1.0000
  H   H364      1.0  0.20650  0.17020  0.88961  1.0000
  H   H365      1.0  0.20935  0.12981  0.92265  1.0000
  H   H366      1.0  0.18877  0.19209  0.68042  1.0000
  S   S61       1.0  0.10559  0.22617  0.87600  1.0000
  H   H367      1.0  0.17362  0.17301  0.64372  1.0000
  H   H368      1.0  0.21744  0.19508  0.62437  1.0000
  S   S62       1.0  0.10288  0.18513  0.82630  1.0000
  H   H369      1.0  0.10582  0.16386  0.72016  1.0000
  H   H370      1.0  0.21753  0.05277  0.72188  1.0000
  H   H371      1.0  0.18205  0.17681  0.66753  1.0000
  H   H372      1.0  0.17457  0.20380  0.65211  1.0000
  N   N16       1.0  0.09667  0.20643  0.72068  1.0000
  H   H373      1.0  0.21499  0.20305  0.64896  1.0000
  H   H374      1.0  0.02530  0.18053  0.72876  1.0000
  C   C204      1.0  0.21719  0.15351  0.81622  1.0000
  C   C205      1.0  0.03766  0.16633  0.87635  1.0000
  H   H375      1.0  0.17768  0.22767  0.62912  1.0000
  H   H376      1.0  0.19940  0.17749  0.94082  1.0000
  C   C206      1.0  0.01307  0.17955  0.69249  1.0000
  C   C207      1.0  0.00553  0.16976  0.74673  1.0000
  H   H377      1.0  0.23602  0.21916  0.57071  1.0000
  H   H378      1.0  0.05830  0.00799  0.69897  1.0000
  C   C208      1.0  0.01422  0.18453  0.73827  1.0000
  H   H379      1.0  0.18197  0.99994  0.82869  1.0000
  C   C209      1.0  0.00719  0.21586  0.79528  1.0000
  C   C210      1.0  0.08171  0.20832  0.73479  1.0000
  C   C211      1.0  0.06333  0.00705  0.70992  1.0000
  Fe  Fe28      1.0  0.22603  0.04898  0.77345  1.0000
  C   C212      1.0  0.20287  0.17803  0.89894  1.0000
  H   H380      1.0  0.08560  0.18157  0.88686  1.0000
  Fe  Fe29      1.0  0.07417  0.21764  0.77936  1.0000
  H   H381      1.0  0.02130  0.17660  0.70132  1.0000
  S   S63       1.0  0.06457  0.21575  0.80685  1.0000
  H   H382      1.0  0.05020  0.17056  0.89258  1.0000
  Fe  Fe30      1.0  0.22019  0.09748  0.63679  1.0000
  H   H383      1.0  0.14572  0.22729  0.60353  1.0000
  H   H384      1.0  0.08746  0.14713  0.85647  1.0000
  H   H385      1.0  0.07527  0.20071  0.89283  1.0000
  H   H386      1.0  0.22746  0.13653  0.79978  1.0000
  C   C213      1.0  0.10825  0.21660  0.72149  1.0000
  Fe  Fe31      1.0  0.08498  0.19280  0.80903  1.0000
  C   C214      1.0  0.04145  0.20645  0.85138  1.0000
  H   H387      1.0  0.17967  0.19803  0.63281  1.0000
  H   H388      1.0  0.04319  0.15301  0.88071  1.0000
  N   N17       1.0  0.22858  0.19719  0.96876  1.0000
  S   S64       1.0  0.23542  0.06654  0.78183  1.0000
  C   C215      1.0  0.23270  0.02855  0.72271  1.0000
  H   H389      1.0  0.03626  0.13954  0.67002  1.0000
  H   H390      1.0  0.00399  0.14534  0.67479  1.0000
  H   H391      1.0  0.07724  0.22148  0.73614  1.0000
  C   C216      1.0  0.18926  0.21881  0.63193  1.0000
  H   H392      1.0  0.21678  0.01513  0.70840  1.0000
  C   C217      1.0  0.02056  0.19698  0.65224  1.0000
  S   S65       1.0  0.18747  0.22307  0.84534  1.0000
  H   H393      1.0  0.22506  0.23082  0.77437  1.0000
  H   H394      1.0  0.23398  0.17143  0.64148  1.0000
  H   H395      1.0  0.22488  0.18084  0.55454  1.0000
  H   H396      1.0  0.05495  0.21017  0.74024  1.0000
  Fe  Fe32      1.0  0.13079  0.20567  0.66420  1.0000
  Fe  Fe33      1.0  0.09686  0.21053  0.65740  1.0000
  H   H397      1.0  0.21266  0.02143  0.68787  1.0000
  H   H398      1.0  0.20822  0.13068  0.78704  1.0000
  H   H399      1.0  0.11911  0.18779  0.71516  1.0000
  S   S66       1.0  0.11052  0.22810  0.66012  1.0000
  C   C218      1.0  0.08767  0.01616  0.69112  1.0000
  C   C219      1.0  0.16125  0.16364  0.91897  1.0000
  H   H400      1.0  0.22622  0.21878  0.84588  1.0000
  H   H401      1.0  0.07077  0.99007  0.73922  1.0000
  H   H402      1.0  0.21276  0.20250  0.53559  1.0000
  H   H403      1.0  0.15624  0.15621  0.91350  1.0000
  H   H404      1.0  0.22131  0.04305  0.66704  1.0000
  C   C220      1.0  0.10625  0.01267  0.68241  1.0000
  H   H405      1.0  0.18601  0.13908  0.82001  1.0000
  H   H406      1.0  0.06500  0.18365  0.90043  1.0000
  S   S67       1.0  0.14527  0.98612  0.69519  1.0000
  C   C221      1.0  0.06646  0.20208  0.73459  1.0000
  C   C222      1.0  0.99348  0.22170  0.78769  1.0000
  C   C223      1.0  0.20842  0.02380  0.70058  1.0000
  H   H407      1.0  0.10380  0.21182  0.69404  1.0000
  C   C224      1.0  0.23646  0.04000  0.68529  1.0000
  H   H408      1.0  0.04174  0.02495  0.71949  1.0000
  H   H409      1.0  0.20078  0.21157  0.58188  1.0000
  S   S68       1.0  0.22746  0.13270  0.67208  1.0000
  H   H410      1.0  0.23391  0.08008  0.74591  1.0000
  H   H411      1.0  0.22532  0.16158  0.80720  1.0000
  C   C225      1.0  0.99851  0.16558  0.77747  1.0000
  H   H412      1.0  0.05943  0.02277  0.72757  1.0000
  S   S69       1.0  0.14314  0.20284  0.68484  1.0000
  H   H413      1.0  0.05427  0.18296  0.84542  1.0000
  H   H414      1.0  0.21071  0.07963  0.71025  1.0000
  H   H415      1.0  0.18729  0.19854  0.88420  1.0000
  C   C226      1.0  0.23475  0.22654  0.84579  1.0000
  H   H416      1.0  0.19607  0.02053  0.70571  1.0000
  C   C227      1.0  0.22764  0.04645  0.71297  1.0000
  C   C228      1.0  0.22808  0.17896  0.97309  1.0000
  H   H417      1.0  0.01375  0.17014  0.79147  1.0000
  H   H418      1.0  0.20989  0.14295  0.90252  1.0000
  H   H419      1.0  0.20284  0.09089  0.69229  1.0000
  C   C229      1.0  0.05662  0.19173  0.85144  1.0000
  H   H420      1.0  0.19801  0.21810  0.61985  1.0000
  Fe  Fe34      1.0  0.22851  0.13753  0.87116  1.0000
  H   H421      1.0  0.23738  0.08830  0.86392  1.0000
  H   H422      1.0  0.23062  0.07163  0.68541  1.0000
  H   H423      1.0  0.02426  0.16867  0.88252  1.0000
  H   H424      1.0  0.00659  0.18828  0.77706  1.0000
  H   H425      1.0  0.23573  0.22072  0.74674  1.0000
  H   H426      1.0  0.18661  0.14000  0.79092  1.0000
  C   C230      1.0  0.19414  0.18843  0.93192  1.0000
  H   H427      1.0  0.19085  0.13669  0.91464  1.0000
  C   C231      1.0  0.21191  0.21420  0.58399  1.0000
  H   H428      1.0  0.03776  0.16876  0.86304  1.0000
  C   C232      1.0  0.23197  0.07405  0.84956  1.0000
  C   C233      1.0  0.08362  0.99170  0.73679  1.0000
  C   C234      1.0  0.22591  0.21499  0.56823  1.0000
  H   H429      1.0  0.23914  0.02630  0.68983  1.0000
  S   S70       1.0  0.23411  0.10643  0.61083  1.0000
  H   H430      1.0  0.02324  0.17159  0.77016  1.0000
  H   H431      1.0  0.20103  0.15074  0.79244  1.0000
  Fe  Fe35      1.0  0.23399  0.04828  0.80622  1.0000
  H   H432      1.0  0.18803  0.21270  0.66744  1.0000
  H   H433      1.0  0.12511  0.19795  0.73639  1.0000
  H   H434      1.0  0.20406  0.20346  0.67860  1.0000
  H   H435      1.0  0.01593  0.15450  0.69099  1.0000
  S   S71       1.0  0.16029  0.22840  0.92338  1.0000
  C   C235      1.0  0.15907  0.22292  0.69190  1.0000
  H   H436      1.0  0.20792  0.22659  0.58728  1.0000
  C   C236      1.0  0.09227  0.21296  0.70393  1.0000
  C   C237      1.0  0.10737  0.21656  0.85965  1.0000
  C   C238      1.0  0.20705  0.22516  0.97105  1.0000
  H   H437      1.0  0.10400  0.22722  0.77978  1.0000
  C   C239      1.0  0.22996  0.20306  0.95031  1.0000
  H   H438      1.0  0.23942  0.10007  0.69417  1.0000
  C   C240      1.0  0.09640  0.22330  0.84880  1.0000
  H   H439      1.0  0.22877  0.12604  0.73571  1.0000
  N   N18       1.0  0.23282  0.19913  0.56191  1.0000
  H   H440      1.0  0.99103  0.18961  0.67513  1.0000
  C   C241      1.0  0.01116  0.17465  0.77883  1.0000
  H   H441      1.0  0.20280  0.22763  0.95936  1.0000
  C   C242      1.0  0.15381  0.23015  0.66430  1.0000
  H   H442      1.0  0.23666  0.05571  0.66026  1.0000
  H   H443      1.0  0.23843  0.98290  0.74636  1.0000
  H   H444      1.0  0.21682  0.28714  0.17847  1.0000
  S   S72       1.0  0.22815  0.31688  0.04731  1.0000
  C   C243      1.0  0.13050  0.23547  0.00041  1.0000
  H   H445      1.0  0.18437  0.32625  0.16246  1.0000
  Fe  Fe36      1.0  0.20063  0.30044  0.38014  1.0000
  S   S73       1.0  0.17711  0.29875  0.39960  1.0000
  S   S74       1.0  0.21015  0.32395  0.36806  1.0000
  Fe  Fe37      1.0  0.20930  0.26365  0.38035  1.0000
  S   S75       1.0  0.18672  0.25881  0.39992  1.0000
  C   C244      1.0  0.19542  0.27034  0.46943  1.0000
  Fe  Fe38      1.0  0.17335  0.28197  0.38538  1.0000
  S   S76       1.0  0.14958  0.28399  0.37760  1.0000
  Fe  Fe39      1.0  0.19268  0.27568  0.41250  1.0000
  S   S77       1.0  0.19193  0.26626  0.44008  1.0000
  S   S78       1.0  0.19559  0.28575  0.36487  1.0000
  S   S79       1.0  0.21655  0.27849  0.39399  1.0000
  Fe  Fe40      1.0  0.17511  0.39947  0.30817  1.0000
  S   S80       1.0  0.16098  0.42155  0.29250  1.0000
  S   S81       1.0  0.16214  0.38465  0.33186  1.0000
  Fe  Fe41      1.0  0.20723  0.39941  0.28263  1.0000
  S   S82       1.0  0.19583  0.42146  0.26543  1.0000
  H   H446      1.0  0.22980  0.27657  0.16271  1.0000
  Fe  Fe42      1.0  0.18358  0.43237  0.28789  1.0000
  S   S83       1.0  0.18232  0.46023  0.28385  1.0000
  Fe  Fe43      1.0  0.17459  0.40867  0.27146  1.0000
  S   S84       1.0  0.16703  0.40672  0.24880  1.0000
  S   S85       1.0  0.19686  0.41101  0.30489  1.0000
  S   S86       1.0  0.18680  0.38595  0.28752  1.0000
  Fe  Fe44      1.0  0.16691  0.28999  0.01489  1.0000
  S   S87       1.0  0.17572  0.26539  0.03082  1.0000
  S   S88       1.0  0.16571  0.31296  0.02359  1.0000
  Fe  Fe45      1.0  0.15676  0.27384  0.99222  1.0000
  H   H447      1.0  0.23712  0.34450  0.01925  1.0000
  Fe  Fe46      1.0  0.15265  0.25901  0.02919  1.0000
  H   H448      1.0  0.23862  0.35927  0.30005  1.0000
  H   H449      1.0  0.12625  0.28436  0.41500  1.0000
  C   C245      1.0  0.14931  0.25057  0.38457  1.0000
  S   S89       1.0  0.14292  0.28420  0.01482  1.0000
  S   S90       1.0  0.17987  0.28250  0.99064  1.0000
  H   H450      1.0  0.13442  0.30538  0.07933  1.0000
  H   H451      1.0  0.19322  0.42068  0.19388  1.0000
  C   C246      1.0  0.22117  0.38011  0.23381  1.0000
  Fe  Fe47      1.0  0.07352  0.27085  0.12555  1.0000
  S   S91       1.0  0.05670  0.28211  0.14671  1.0000
  S   S92       1.0  0.08516  0.28661  0.10170  1.0000
  Fe  Fe48      1.0  0.07247  0.26226  0.16257  1.0000
  S   S93       1.0  0.08601  0.26443  0.18108  1.0000
  Fe  Fe49      1.0  0.04186  0.26276  0.14993  1.0000
  H   H452      1.0  0.21861  0.35341  0.04526  1.0000
  H   H453      1.0  0.07279  0.24631  0.27909  1.0000
  H   H454      1.0  0.13282  0.30431  0.05951  1.0000
  H   H455      1.0  0.02272  0.24057  0.13824  1.0000
  S   S94       1.0  0.20927  0.30342  0.09306  1.0000
  C   C247      1.0  0.08713  0.24458  0.22371  1.0000
  C   C248      1.0  0.22035  0.38317  0.24920  1.0000
  Fe  Fe50      1.0  0.19364  0.32584  0.10240  1.0000
  S   S95       1.0  0.16614  0.32903  0.11157  1.0000
  S   S96       1.0  0.20475  0.34420  0.08128  1.0000
  H   H456      1.0  0.22783  0.29086  0.33703  1.0000
  C   C249      1.0  0.18700  0.23347  0.35597  1.0000
  C   C250      1.0  0.21755  0.31568  0.32412  1.0000
  H   H457      1.0  0.09130  0.28803  0.13964  1.0000
  S   S97       1.0  0.11306  0.25827  0.28935  1.0000
  H   H458      1.0  0.16673  0.27031  0.10454  1.0000
  Fe  Fe51      1.0  0.12814  0.34401  0.22894  1.0000
  S   S98       1.0  0.15388  0.33410  0.21564  1.0000
  S   S99       1.0  0.12569  0.35403  0.25153  1.0000
  Fe  Fe52      1.0  0.11199  0.33224  0.20728  1.0000
  S   S100      1.0  0.13672  0.32189  0.19247  1.0000
  S   S101      1.0  0.08899  0.33011  0.20037  1.0000
  Fe  Fe53      1.0  0.14427  0.31192  0.21674  1.0000
  S   S102      1.0  0.15937  0.28594  0.22294  1.0000
  Fe  Fe54      1.0  0.14355  0.34530  0.19284  1.0000
  S   S103      1.0  0.15856  0.36027  0.17122  1.0000
  S   S104      1.0  0.11904  0.32081  0.23188  1.0000
  S   S105      1.0  0.11824  0.35668  0.20588  1.0000
  C   C251      1.0  0.12614  0.26344  0.26999  1.0000
  C   C252      1.0  0.14343  0.25801  0.26781  1.0000
  C   C253      1.0  0.15382  0.26406  0.25283  1.0000
  C   C254      1.0  0.14687  0.27527  0.24002  1.0000
  C   C255      1.0  0.12962  0.27947  0.24174  1.0000
  C   C256      1.0  0.11924  0.27391  0.25684  1.0000
  H   H459      1.0  0.18667  0.26954  0.18787  1.0000
  H   H460      1.0  0.16718  0.26071  0.25150  1.0000
  H   H461      1.0  0.12423  0.28745  0.23157  1.0000
  H   H462      1.0  0.10589  0.27805  0.25843  1.0000
  C   C257      1.0  0.16159  0.34097  0.12636  1.0000
  C   C258      1.0  0.17236  0.35099  0.12555  1.0000
  C   C259      1.0  0.17068  0.35800  0.13898  1.0000
  C   C260      1.0  0.15817  0.35505  0.15311  1.0000
  C   C261      1.0  0.14649  0.34637  0.15324  1.0000
  C   C262      1.0  0.14835  0.33907  0.13996  1.0000
  H   H463      1.0  0.18228  0.35299  0.11478  1.0000
  H   H464      1.0  0.17940  0.36518  0.13863  1.0000
  H   H465      1.0  0.13615  0.34508  0.16367  1.0000
  H   H466      1.0  0.14009  0.33132  0.14063  1.0000
  H   H467      1.0  0.13730  0.28645  0.46904  1.0000
  C   C263      1.0  0.08692  0.28311  0.18555  1.0000
  C   C264      1.0  0.07416  0.29731  0.18401  1.0000
  C   C265      1.0  0.07495  0.31163  0.18860  1.0000
  C   C266      1.0  0.08849  0.31188  0.19470  1.0000
  C   C267      1.0  0.10134  0.29772  0.19606  1.0000
  C   C268      1.0  0.10048  0.28339  0.19159  1.0000
  H   H468      1.0  0.06351  0.29715  0.17966  1.0000
  H   H469      1.0  0.06493  0.32251  0.18758  1.0000
  H   H470      1.0  0.11180  0.29774  0.20077  1.0000
  H   H471      1.0  0.11040  0.27247  0.19280  1.0000
  H   H472      1.0  0.21613  0.40895  0.21021  1.0000
  C   C269      1.0  0.21077  0.31565  0.04087  1.0000
  C   C270      1.0  0.19504  0.32528  0.04608  1.0000
  C   C271      1.0  0.18140  0.32464  0.04038  1.0000
  C   C272      1.0  0.18324  0.31389  0.02998  1.0000
  C   C273      1.0  0.19889  0.30396  0.02508  1.0000
  C   C274      1.0  0.21268  0.30507  0.03027  1.0000
  H   H473      1.0  0.19344  0.33347  0.05425  1.0000
  H   H474      1.0  0.16933  0.33234  0.04422  1.0000
  H   H475      1.0  0.20041  0.29564  0.01705  1.0000
  C   C275      1.0  0.19269  0.39903  0.17157  1.0000
  H   H476      1.0  0.14747  0.24912  0.08159  1.0000
  C   C276      1.0  0.16967  0.25821  0.07999  1.0000
  H   H477      1.0  0.08657  0.28133  0.01890  1.0000
  C   C277      1.0  0.09867  0.27502  0.08735  1.0000
  C   C278      1.0  0.10616  0.28330  0.07173  1.0000
  C   C279      1.0  0.11766  0.27426  0.06046  1.0000
  H   H478      1.0  0.14335  0.47741  0.32460  1.0000
  C   C280      1.0  0.07203  0.23746  0.22484  1.0000
  H   H479      1.0  0.10320  0.29675  0.06843  1.0000
  H   H480      1.0  0.12357  0.28078  0.04860  1.0000
  S   S106      1.0  0.05618  0.24382  0.16781  1.0000
  H   H481      1.0  0.21344  0.34907  0.46973  1.0000
  H   H482      1.0  0.20870  0.31843  0.33576  1.0000
  H   H483      1.0  0.17021  0.30532  0.18480  1.0000
  C   C281      1.0  0.15645  0.39119  0.24984  1.0000
  C   C282      1.0  0.15538  0.38788  0.23507  1.0000
  C   C283      1.0  0.14642  0.37617  0.23543  1.0000
  C   C284      1.0  0.13813  0.36790  0.25059  1.0000
  C   C285      1.0  0.13936  0.37106  0.26536  1.0000
  C   C286      1.0  0.14861  0.38252  0.26501  1.0000
  H   H484      1.0  0.16131  0.39458  0.22329  1.0000
  H   H485      1.0  0.14549  0.37391  0.22398  1.0000
  H   H486      1.0  0.13294  0.36481  0.27713  1.0000
  H   H487      1.0  0.14926  0.38503  0.27645  1.0000
  C   C287      1.0  0.14615  0.26607  0.37381  1.0000
  H   H488      1.0  0.22750  0.24911  0.45338  1.0000
  H   H489      1.0  0.12368  0.33677  0.09944  1.0000
  H   H490      1.0  0.19461  0.31744  0.45426  1.0000
  C   C288      1.0  0.13645  0.25342  0.35701  1.0000
  C   C289      1.0  0.13958  0.26748  0.36010  1.0000
  Fe  Fe55      1.0  0.22706  0.30440  0.10732  1.0000
  H   H491      1.0  0.09269  0.23835  0.00825  1.0000
  H   H492      1.0  0.21422  0.34219  0.17212  1.0000
  H   H493      1.0  0.13689  0.27947  0.35187  1.0000
  C   C290      1.0  0.19611  0.34115  0.35932  1.0000
  C   C291      1.0  0.20133  0.35612  0.35148  1.0000
  C   C292      1.0  0.19098  0.36952  0.34300  1.0000
  C   C293      1.0  0.17515  0.36818  0.34274  1.0000
  C   C294      1.0  0.16968  0.35343  0.35111  1.0000
  C   C295      1.0  0.18022  0.33985  0.35921  1.0000
  H   H494      1.0  0.21354  0.35726  0.35170  1.0000
  H   H495      1.0  0.19518  0.38094  0.33677  1.0000
  H   H496      1.0  0.15740  0.35239  0.35100  1.0000
  H   H497      1.0  0.17607  0.32837  0.36526  1.0000
  H   H498      1.0  0.18278  0.43645  0.23458  1.0000
  H   H499      1.0  0.20690  0.36587  0.13914  1.0000
  H   H500      1.0  0.22691  0.38241  0.16949  1.0000
  H   H501      1.0  0.19308  0.23571  0.36485  1.0000
  H   H502      1.0  0.16155  0.25691  0.43914  1.0000
  H   H503      1.0  0.15608  0.27841  0.17235  1.0000
  C   C296      1.0  0.17667  0.30009  0.15423  1.0000
  H   H504      1.0  0.16270  0.23432  0.09146  1.0000
  C   C297      1.0  0.20024  0.46980  0.31892  1.0000
  C   C298      1.0  0.19503  0.46136  0.30994  1.0000
  C   C299      1.0  0.18911  0.47008  0.29565  1.0000
  H   H505      1.0  0.17889  0.42471  0.21296  1.0000
  H   H506      1.0  0.22457  0.35381  0.28190  1.0000
  H   H507      1.0  0.20469  0.46296  0.33003  1.0000
  H   H508      1.0  0.19549  0.44814  0.31414  1.0000
  H   H509      1.0  0.20383  0.31556  0.16856  1.0000
  H   H510      1.0  0.12964  0.32772  0.11877  1.0000
  C   C300      1.0  0.19499  0.44949  0.20986  1.0000
  H   H511      1.0  0.22480  0.24037  0.43773  1.0000
  Fe  Fe56      1.0  0.22273  0.34188  0.09706  1.0000
  H   H512      1.0  0.18975  0.28965  0.13222  1.0000
  H   H513      1.0  0.15101  0.30924  0.06105  1.0000
  H   H514      1.0  0.12214  0.34960  0.11339  1.0000
  C   C301      1.0  0.19398  0.29512  0.44757  1.0000
  C   C302      1.0  0.19414  0.27811  0.45302  1.0000
  H   H515      1.0  0.22481  0.29758  0.02621  1.0000
  C   C303      1.0  0.10103  0.29146  0.44186  1.0000
  N   N19       1.0  0.22172  0.33152  0.31245  1.0000
  H   H516      1.0  0.19295  0.30128  0.43498  1.0000
  N   N20       1.0  0.18660  0.29091  0.16726  1.0000
  H   H517      1.0  0.11045  0.27913  0.12750  1.0000
  H   H518      1.0  0.21541  0.38990  0.06898  1.0000
  H   H519      1.0  0.15629  0.28551  0.19017  1.0000
  H   H520      1.0  0.18225  0.34964  0.30347  1.0000
  C   C304      1.0  0.19499  0.27768  0.07299  1.0000
  C   C305      1.0  0.21693  0.38518  0.05771  1.0000
  H   H521      1.0  0.09978  0.27838  0.44461  1.0000
  H   H522      1.0  0.21736  0.46451  0.18260  1.0000
  H   H523      1.0  0.09660  0.25111  0.10344  1.0000
  H   H524      1.0  0.13493  0.24721  0.99532  1.0000
  S   S107      1.0  0.09011  0.25222  0.14111  1.0000
  C   C306      1.0  0.18131  0.27482  0.17662  1.0000
  H   H525      1.0  0.21667  0.35504  0.01701  1.0000
  H   H526      1.0  0.23348  0.45241  0.16996  1.0000
  H   H527      1.0  0.09328  0.27536  0.99279  1.0000
  Fe  Fe57      1.0  0.18705  0.25733  0.00680  1.0000
  C   C307      1.0  0.22088  0.43633  0.21930  1.0000
  H   H528      1.0  0.20094  0.38809  0.15031  1.0000
  H   H529      1.0  0.21442  0.37399  0.03404  1.0000
  C   C308      1.0  0.19351  0.33941  0.30371  1.0000
  H   H530      1.0  0.19872  0.46167  0.20618  1.0000
  C   C309      1.0  0.15648  0.24770  0.08923  1.0000
  H   H531      1.0  0.11917  0.31505  0.41621  1.0000
  H   H532      1.0  0.08338  0.25839  0.21990  1.0000
  H   H533      1.0  0.18539  0.39672  0.18452  1.0000
  S   S108      1.0  0.05743  0.25342  0.12740  1.0000
  H   H534      1.0  0.15028  0.24151  0.44130  1.0000
  H   H535      1.0  0.21089  0.43770  0.18259  1.0000
  H   H536      1.0  0.18495  0.40969  0.16443  1.0000
  H   H537      1.0  0.21434  0.43396  0.23255  1.0000
  H   H538      1.0  0.15913  0.28484  0.43383  1.0000
  C   C310      1.0  0.20536  0.41878  0.21413  1.0000
  H   H539      1.0  0.14514  0.30274  0.43948  1.0000
  C   C311      1.0  0.07972  0.24595  0.25276  1.0000
  C   C312      1.0  0.09842  0.27961  0.02264  1.0000
  H   H540      1.0  0.13123  0.25459  0.34655  1.0000
  Fe  Fe58      1.0  0.22194  0.32163  0.07303  1.0000
  H   H541      1.0  0.08486  0.25517  0.04122  1.0000
  H   H542      1.0  0.18788  0.45546  0.23460  1.0000
  H   H543      1.0  0.11494  0.28815  0.46012  1.0000
  H   H544      1.0  0.14975  0.25066  0.10142  1.0000
  H   H545      1.0  0.13382  0.31042  0.39800  1.0000
  H   H546      1.0  0.15296  0.25645  0.42228  1.0000
  C   C313      1.0  0.15077  0.25478  0.43589  1.0000
  C   C314      1.0  0.23101  0.32748  0.29589  1.0000
  N   N21       1.0  0.09378  0.23978  0.23929  1.0000
  H   H547      1.0  0.22951  0.42620  0.18877  1.0000
  H   H548      1.0  0.20121  0.26587  0.06883  1.0000
  H   H549      1.0  0.14106  0.31406  0.41391  1.0000
  H   H550      1.0  0.08981  0.29823  0.44936  1.0000
  C   C315      1.0  0.00987  0.24661  0.13818  1.0000
  C   C316      1.0  0.08432  0.24479  0.26927  1.0000
  S   S109      1.0  0.14644  0.23600  0.31693  1.0000
  H   H551      1.0  0.23193  0.36188  0.06656  1.0000
  H   H552      1.0  0.17065  0.45544  0.22623  1.0000
  H   H553      1.0  0.20580  0.25611  0.34440  1.0000
  H   H554      1.0  0.18966  0.40405  0.21146  1.0000
  S   S110      1.0  0.22518  0.24230  0.36890  1.0000
  H   H555      1.0  0.18632  0.28130  0.33233  1.0000
  S   S111      1.0  0.22711  0.36565  0.10024  1.0000
  N   N22       1.0  0.09959  0.32014  0.13301  1.0000
  C   C317      1.0  0.08120  0.32136  0.14010  1.0000
  C   C318      1.0  0.10795  0.31748  0.14714  1.0000
  C   C319      1.0  0.10695  0.30578  0.12443  1.0000
  C   C320      1.0  0.10209  0.33593  0.12043  1.0000
  C   C321      1.0  0.07054  0.32226  0.12793  1.0000
  C   C322      1.0  0.10480  0.33266  0.15481  1.0000
  C   C323      1.0  0.10460  0.28859  0.13519  1.0000
  C   C324      1.0  0.12039  0.33743  0.11272  1.0000
  H   H556      1.0  0.07890  0.31069  0.15060  1.0000
  H   H557      1.0  0.07570  0.33256  0.14553  1.0000
  H   H558      1.0  0.12162  0.31297  0.14350  1.0000
  H   H559      1.0  0.10381  0.30736  0.15751  1.0000
  H   H560      1.0  0.10195  0.30787  0.11320  1.0000
  H   H561      1.0  0.12059  0.30467  0.11966  1.0000
  H   H562      1.0  0.09638  0.33732  0.10984  1.0000
  H   H563      1.0  0.09532  0.34708  0.12568  1.0000
  H   H564      1.0  0.07424  0.31101  0.12267  1.0000
  H   H565      1.0  0.05740  0.32288  0.13479  1.0000
  H   H566      1.0  0.07066  0.33353  0.11782  1.0000
  H   H567      1.0  0.09142  0.33704  0.16005  1.0000
  H   H568      1.0  0.11127  0.32901  0.16525  1.0000
  H   H569      1.0  0.10988  0.34311  0.14591  1.0000
  S   S112      1.0  0.13691  0.24517  0.05144  1.0000
  H   H570      1.0  0.11064  0.28489  0.14590  1.0000
  C   C325      1.0  0.13197  0.30834  0.41166  1.0000
  N   N23       1.0  0.16396  0.27674  0.07899  1.0000
  S   S113      1.0  0.16495  0.24811  0.00669  1.0000
  C   C326      1.0  0.17800  0.28479  0.06806  1.0000
  C   C327      1.0  0.14926  0.28272  0.07084  1.0000
  C   C328      1.0  0.15908  0.27988  0.09633  1.0000
  H   H571      1.0  0.18019  0.25291  0.08643  1.0000
  C   C329      1.0  0.22838  0.35676  0.01890  1.0000
  C   C330      1.0  0.14173  0.30153  0.06766  1.0000
  C   C331      1.0  0.16055  0.29681  0.09822  1.0000
  H   H572      1.0  0.10345  0.29101  0.01664  1.0000
  C   C332      1.0  0.19383  0.24148  0.30825  1.0000
  H   H573      1.0  0.17509  0.29833  0.06748  1.0000
  H   H574      1.0  0.17990  0.28373  0.05500  1.0000
  H   H575      1.0  0.15255  0.27898  0.05872  1.0000
  H   H576      1.0  0.13878  0.27681  0.07851  1.0000
  H   H577      1.0  0.14602  0.27859  0.10215  1.0000
  H   H578      1.0  0.20703  0.25909  0.32312  1.0000
  H   H579      1.0  0.17451  0.25553  0.06735  1.0000
  H   H580      1.0  0.23793  0.47182  0.26440  1.0000
  H   H581      1.0  0.19389  0.27558  0.08651  1.0000
  H   H582      1.0  0.20328  0.28657  0.06666  1.0000
  C   C333      1.0  0.22693  0.45279  0.18300  1.0000
  H   H583      1.0  0.14742  0.28397  0.41259  1.0000
  C   C334      1.0  0.13934  0.23799  0.36791  1.0000
  H   H584      1.0  0.11628  0.30651  0.44453  1.0000
  C   C335      1.0  0.11666  0.29301  0.44650  1.0000
  H   H585      1.0  0.17371  0.29762  0.09601  1.0000
  H   H586      1.0  0.15471  0.29816  0.11115  1.0000
  H   H587      1.0  0.15422  0.30761  0.09007  1.0000
  H   H588      1.0  0.18661  0.32480  0.18279  1.0000
  C   C336      1.0  0.10241  0.25764  0.09148  1.0000
  H   H589      1.0  0.20837  0.38640  0.25713  1.0000
  C   C337      1.0  0.00270  0.26070  0.14498  1.0000
  H   H590      1.0  0.17522  0.27772  0.14665  1.0000
  H   H591      1.0  0.17584  0.26825  0.34948  1.0000
  C   C338      1.0  0.11384  0.24860  0.08018  1.0000
  H   H592      1.0  0.19410  0.35247  0.16901  1.0000
  C   C339      1.0  0.20472  0.28703  0.15883  1.0000
  C   C340      1.0  0.18367  0.30164  0.17949  1.0000
  C   C341      1.0  0.21697  0.27894  0.17044  1.0000
  C   C342      1.0  0.19010  0.31791  0.17269  1.0000
  H   H593      1.0  0.22673  0.35308  0.14250  1.0000
  H   H594      1.0  0.20870  0.29838  0.15048  1.0000
  H   H595      1.0  0.20692  0.27833  0.15055  1.0000
  H   H596      1.0  0.18919  0.29459  0.19037  1.0000
  H   H597      1.0  0.12051  0.24672  0.21098  1.0000
  H   H598      1.0  0.20614  0.37943  0.05992  1.0000
  H   H599      1.0  0.23628  0.41090  0.22153  1.0000
  H   H600      1.0  0.20998  0.34378  0.14407  1.0000
  N   N24       1.0  0.20850  0.36876  0.17085  1.0000
  C   C343      1.0  0.19637  0.38378  0.16388  1.0000
  C   C344      1.0  0.20722  0.35392  0.16548  1.0000
  C   C345      1.0  0.20467  0.36517  0.18951  1.0000
  H   H601      1.0  0.12451  0.26233  0.43879  1.0000
  C   C346      1.0  0.18724  0.36163  0.19829  1.0000
  H   H602      1.0  0.18423  0.38075  0.16493  1.0000
  S   S114      1.0  0.23860  0.28080  0.12288  1.0000
  H   H603      1.0  0.21363  0.35403  0.19445  1.0000
  C   C347      1.0  0.10751  0.24874  0.23675  1.0000
  C   C348      1.0  0.20546  0.34389  0.31149  1.0000
  S   S115      1.0  0.23688  0.37703  0.20230  1.0000
  H   H604      1.0  0.10074  0.29713  0.42868  1.0000
  H   H605      1.0  0.18735  0.34821  0.20036  1.0000
  H   H606      1.0  0.17745  0.36887  0.19143  1.0000
  H   H607      1.0  0.22532  0.23613  0.31128  1.0000
  N   N25       1.0  0.12950  0.30574  0.28665  1.0000
  C   C349      1.0  0.13669  0.30667  0.26836  1.0000
  C   C350      1.0  0.11115  0.30638  0.28948  1.0000
  C   C351      1.0  0.13799  0.28934  0.29594  1.0000
  C   C352      1.0  0.13290  0.32017  0.29110  1.0000
  C   C353      1.0  0.15581  0.30384  0.26279  1.0000
  C   C354      1.0  0.10086  0.32267  0.28095  1.0000
  C   C355      1.0  0.12887  0.28251  0.31365  1.0000
  C   C356      1.0  0.12477  0.32321  0.30869  1.0000
  H   H608      1.0  0.13285  0.29747  0.26405  1.0000
  H   H609      1.0  0.13183  0.31900  0.26097  1.0000
  H   H610      1.0  0.10502  0.30439  0.30280  1.0000
  H   H611      1.0  0.10926  0.29595  0.28526  1.0000
  H   H612      1.0  0.14011  0.27933  0.28912  1.0000
  H   H613      1.0  0.15054  0.29000  0.29673  1.0000
  H   H614      1.0  0.14647  0.31872  0.28978  1.0000
  H   H615      1.0  0.12963  0.33203  0.28213  1.0000
  H   H616      1.0  0.16070  0.31340  0.26530  1.0000
  H   H617      1.0  0.16209  0.29118  0.26833  1.0000
  H   H618      1.0  0.15927  0.30494  0.24915  1.0000
  H   H619      1.0  0.10432  0.32457  0.26727  1.0000
  H   H620      1.0  0.08753  0.32200  0.28466  1.0000
  H   H621      1.0  0.10187  0.33371  0.28468  1.0000
  H   H622      1.0  0.12451  0.29164  0.32163  1.0000
  H   H623      1.0  0.13759  0.27190  0.31962  1.0000
  H   H624      1.0  0.11823  0.27756  0.31342  1.0000
  H   H625      1.0  0.13292  0.31611  0.31748  1.0000
  H   H626      1.0  0.11225  0.32043  0.31358  1.0000
  H   H627      1.0  0.12281  0.33668  0.30835  1.0000
  H   H628      1.0  0.18730  0.45055  0.20093  1.0000
  H   H629      1.0  0.07380  0.25922  0.24838  1.0000
  H   H630      1.0  0.20726  0.35644  0.30454  1.0000
  H   H631      1.0  0.17493  0.26860  0.32854  1.0000
  H   H632      1.0  0.09586  0.27857  0.03624  1.0000
  H   H633      1.0  0.20213  0.41493  0.22789  1.0000
  H   H634      1.0  0.15861  0.28753  0.46181  1.0000
  S   S116      1.0  0.23371  0.38743  0.27289  1.0000
  H   H635      1.0  0.23227  0.24093  0.32721  1.0000
  H   H636      1.0  0.17441  0.24166  0.35749  1.0000
  H   H637      1.0  0.22323  0.44905  0.21671  1.0000
  C   C357      1.0  0.19095  0.41722  0.20755  1.0000
  H   H638      1.0  0.06053  0.24392  0.23223  1.0000
  C   C358      1.0  0.23406  0.34220  0.28110  1.0000
  H   H639      1.0  0.23165  0.38983  0.11491  1.0000
  H   H640      1.0  0.18911  0.32802  0.31117  1.0000
  H   H641      1.0  0.16788  0.29719  0.13402  1.0000
  C   C359      1.0  0.22575  0.37225  0.16442  1.0000
  H   H642      1.0  0.13143  0.26171  0.45658  1.0000
  H   H643      1.0  0.22181  0.36471  0.31708  1.0000
  H   H644      1.0  0.14881  0.24983  0.27793  1.0000
  S   S117      1.0  0.21013  0.32503  0.11894  1.0000
  C   C360      1.0  0.13477  0.28944  0.41905  1.0000
  C   C361      1.0  0.18297  0.26893  0.33652  1.0000
  C   C362      1.0  0.18362  0.44915  0.22733  1.0000
  H   H645      1.0  0.09048  0.25497  0.26827  1.0000
  C   C363      1.0  0.23377  0.35603  0.31352  1.0000
  C   C364      1.0  0.18712  0.23595  0.32700  1.0000
  S   S118      1.0  0.21366  0.24360  0.00225  1.0000
  C   C365      1.0  0.14689  0.28899  0.44190  1.0000
  H   H646      1.0  0.23452  0.46207  0.30175  1.0000
  S   S119      1.0  0.01352  0.26814  0.15536  1.0000
  C   C366      1.0  0.23711  0.47590  0.27588  1.0000
  C   C367      1.0  0.11144  0.26436  0.01760  1.0000
  H   H647      1.0  0.10420  0.24509  0.04683  1.0000
  H   H648      1.0  0.22769  0.33603  0.33350  1.0000
  H   H649      1.0  0.22484  0.31966  0.29210  1.0000
  C   C368      1.0  0.12171  0.25688  0.06477  1.0000
  N   N26       1.0  0.10496  0.24886  0.02061  1.0000
  C   C369      1.0  0.17757  0.29038  0.14119  1.0000
  H   H650      1.0  0.16336  0.30443  0.15999  1.0000
  H   H651      1.0  0.18327  0.36537  0.21043  1.0000
  C   C370      1.0  0.09609  0.24522  0.03861  1.0000
  H   H652      1.0  0.18098  0.31164  0.14702  1.0000
  N   N27       1.0  0.21011  0.43550  0.20848  1.0000
  C   C371      1.0  0.19905  0.25527  0.33541  1.0000
  H   H653      1.0  0.11762  0.26830  0.00444  1.0000
  N   N28       1.0  0.13311  0.28430  0.43756  1.0000
  H   H654      1.0  0.19859  0.34569  0.32406  1.0000
  C   C372      1.0  0.16236  0.27594  0.18272  1.0000
  C   C373      1.0  0.19490  0.30426  0.45853  1.0000
  H   H655      1.0  0.20664  0.37518  0.19426  1.0000
  C   C374      1.0  0.21309  0.35440  0.14673  1.0000
  H   H656      1.0  0.18633  0.26510  0.16913  1.0000
  H   H657      1.0  0.22826  0.37690  0.15075  1.0000
  H   H658      1.0  0.19912  0.33821  0.29072  1.0000
  H   H659      1.0  0.17375  0.24216  0.33011  1.0000
  C   C375      1.0  0.23781  0.42391  0.21817  1.0000
  H   H660      1.0  0.23854  0.44959  0.28676  1.0000
  H   H661      1.0  0.15423  0.24937  0.39524  1.0000
  H   H662      1.0  0.10268  0.26248  0.23377  1.0000
  H   H663      1.0  0.12131  0.26183  0.02459  1.0000
  C   C376      1.0  0.22451  0.36273  0.03520  1.0000
  H   H664      1.0  0.19544  0.25722  0.47381  1.0000
  H   H665      1.0  0.21110  0.30963  0.31861  1.0000
  H   H666      1.0  0.20978  0.38100  0.23013  1.0000
  H   H667      1.0  0.23656  0.23358  0.40771  1.0000
  H   H668      1.0  0.06967  0.23891  0.25604  1.0000
  C   C377      1.0  0.21928  0.43728  0.19059  1.0000
  H   H669      1.0  0.16012  0.26385  0.19087  1.0000
  H   H670      1.0  0.21639  0.39604  0.04724  1.0000
  H   H671      1.0  0.08000  0.25588  0.01590  1.0000
  H   H672      1.0  0.22356  0.48050  0.28006  1.0000
  H   H673      1.0  0.22565  0.39429  0.01881  1.0000
  Fe  Fe59      1.0  0.12602  0.23596  0.30530  1.0000
  C   C378      1.0  0.23490  0.38249  0.25401  1.0000
  C   C379      1.0  0.14559  0.23666  0.38180  1.0000
  C   C380      1.0  0.13414  0.26579  0.44283  1.0000
  H   H674      1.0  0.20419  0.40282  0.17116  1.0000
  C   C381      1.0  0.14878  0.28241  0.46005  1.0000
  H   H675      1.0  0.15291  0.26868  0.46311  1.0000
  C   C382      1.0  0.12319  0.24464  0.22334  1.0000
  C   C383      1.0  0.00025  0.24010  0.13159  1.0000
  H   H676      1.0  0.23364  0.33907  0.26954  1.0000
  H   H677      1.0  0.13155  0.25304  0.22209  1.0000
  H   H678      1.0  0.23802  0.30614  0.33755  1.0000
  C   C384      1.0  0.09300  0.25074  0.00983  1.0000
  H   H679      1.0  0.11684  0.23515  0.08358  1.0000
  C   C385      1.0  0.23349  0.37224  0.05551  1.0000
  C   C386      1.0  0.09609  0.26205  0.99230  1.0000
  H   H680      1.0  0.19860  0.25300  0.30472  1.0000
  H   H681      1.0  0.23316  0.36600  0.00801  1.0000
  H   H682      1.0  0.08759  0.26079  0.98524  1.0000
  H   H683      1.0  0.06987  0.23962  0.21218  1.0000
  H   H684      1.0  0.21464  0.26675  0.17813  1.0000
  H   H685      1.0  0.18344  0.24448  0.30179  1.0000
  N   N29       1.0  0.19679  0.23771  0.33843  1.0000
  H   H686      1.0  0.23640  0.45308  0.18941  1.0000
  H   H687      1.0  0.11217  0.24598  0.24829  1.0000
  C   C387      1.0  0.11955  0.23449  0.01802  1.0000
  H   H688      1.0  0.12403  0.23340  0.99185  1.0000
  H   H689      1.0  0.10889  0.25886  0.98498  1.0000
  C   C388      1.0  0.23239  0.30218  0.32947  1.0000
  C   C389      1.0  0.23650  0.37708  0.22279  1.0000
  H   H690      1.0  0.09668  0.24097  0.21294  1.0000
  Fe  Fe60      1.0  0.07265  0.23569  0.14497  1.0000
  C   C390      1.0  0.23238  0.33767  0.31985  1.0000
  C   C391      1.0  0.23053  0.23766  0.44847  1.0000
  C   C392      1.0  0.23850  0.39426  0.01902  1.0000
  H   H691      1.0  0.23825  0.40350  0.02601  1.0000
  H   H692      1.0  0.09239  0.23269  0.27359  1.0000
  H   H693      1.0  0.12783  0.23278  0.02662  1.0000
  H   H694      1.0  0.24002  0.35355  0.18174  1.0000
  N   N30       1.0  0.23911  0.36566  0.03979  1.0000
  Fe  Fe61      1.0  0.19933  0.27167  0.54653  1.0000
  S   S120      1.0  0.18441  0.29710  0.53788  1.0000
  S   S121      1.0  0.18953  0.24855  0.55965  1.0000
  Fe  Fe62      1.0  0.20243  0.30619  0.54633  1.0000
  H   H695      1.0  0.22628  0.44116  0.65773  1.0000
  C   C393      1.0  0.12510  0.23806  0.76618  1.0000
  H   H696      1.0  0.12336  0.30920  0.89379  1.0000
  S   S122      1.0  0.22848  0.33847  0.79964  1.0000
  S   S123      1.0  0.20971  0.38914  0.61012  1.0000
  C   C394      1.0  0.09449  0.27576  0.65302  1.0000
  S   S124      1.0  0.21577  0.28061  0.55697  1.0000
  S   S125      1.0  0.21583  0.39402  0.64456  1.0000
  H   H697      1.0  0.23131  0.24678  0.75701  1.0000
  Fe  Fe63      1.0  0.20054  0.38091  0.63752  1.0000
  S   S126      1.0  0.17313  0.38627  0.64825  1.0000
  C   C395      1.0  0.20569  0.33313  0.56928  1.0000
  H   H698      1.0  0.18399  0.25931  0.91197  1.0000
  H   H699      1.0  0.20584  0.33542  0.62094  1.0000
  C   C396      1.0  0.23748  0.44490  0.68643  1.0000
  H   H700      1.0  0.20448  0.36205  0.59057  1.0000
  C   C397      1.0  0.12315  0.26004  0.69339  1.0000
  H   H701      1.0  0.23670  0.45858  0.73210  1.0000
  C   C398      1.0  0.22790  0.47462  0.70332  1.0000
  H   H702      1.0  0.13697  0.30823  0.93363  1.0000
  C   C399      1.0  0.20938  0.25687  0.83343  1.0000
  C   C400      1.0  0.20308  0.35768  0.51570  1.0000
  C   C401      1.0  0.13119  0.31256  0.90021  1.0000
  H   H703      1.0  0.12255  0.31630  0.91146  1.0000
  Fe  Fe64      1.0  0.15109  0.23597  0.89934  1.0000
  Fe  Fe65      1.0  0.14138  0.26463  0.87154  1.0000
  S   S127      1.0  0.13296  0.29234  0.86539  1.0000
  S   S128      1.0  0.12634  0.25097  0.89429  1.0000
  H   H704      1.0  0.15097  0.45030  0.62065  1.0000
  S   S129      1.0  0.19279  0.32772  0.55958  1.0000
  H   H705      1.0  0.12046  0.24833  0.70199  1.0000
  C   C402      1.0  0.17157  0.28489  0.91310  1.0000
  S   S130      1.0  0.18788  0.33512  0.83437  1.0000
  H   H706      1.0  0.10080  0.29275  0.69800  1.0000
  H   H707      1.0  0.16984  0.29731  0.87934  1.0000
  S   S131      1.0  0.22477  0.47581  0.65099  1.0000
  Fe  Fe66      1.0  0.22913  0.36544  0.61293  1.0000
  H   H708      1.0  0.18853  0.31789  0.88946  1.0000
  H   H709      1.0  0.15692  0.35760  0.62689  1.0000
  C   C403      1.0  0.16722  0.34849  0.63208  1.0000
  H   H710      1.0  0.16952  0.28778  0.78626  1.0000
  C   C404      1.0  0.16773  0.45740  0.65108  1.0000
  H   H711      1.0  0.13692  0.28213  0.76255  1.0000
  H   H712      1.0  0.20066  0.35230  0.69755  1.0000
  C   C405      1.0  0.14931  0.31093  0.93201  1.0000
  H   H713      1.0  0.18353  0.41582  0.65078  1.0000
  C   C406      1.0  0.17952  0.37295  0.50188  1.0000
  C   C407      1.0  0.21529  0.31310  0.63753  1.0000
  Fe  Fe67      1.0  0.21536  0.30232  0.79084  1.0000
  S   S132      1.0  0.20723  0.28050  0.78822  1.0000
  H   H714      1.0  0.17294  0.35015  0.53277  1.0000
  S   S133      1.0  0.19885  0.32781  0.78948  1.0000
  Fe  Fe68      1.0  0.16098  0.30147  0.70162  1.0000
  S   S134      1.0  0.18591  0.29413  0.68543  1.0000
  S   S135      1.0  0.14318  0.32559  0.69510  1.0000
  Fe  Fe69      1.0  0.16319  0.26758  0.72528  1.0000
  S   S136      1.0  0.18832  0.25709  0.71083  1.0000
  S   S137      1.0  0.15203  0.25165  0.74923  1.0000
  Fe  Fe70      1.0  0.19409  0.28151  0.70922  1.0000
  S   S138      1.0  0.21876  0.28279  0.71244  1.0000
  Fe  Fe71      1.0  0.17786  0.27061  0.68842  1.0000
  S   S139      1.0  0.18025  0.26173  0.66565  1.0000
  S   S140      1.0  0.16976  0.29122  0.72541  1.0000
  S   S141      1.0  0.15222  0.27874  0.70286  1.0000
  H   H715      1.0  0.20531  0.36880  0.47534  1.0000
  C   C408      1.0  0.21170  0.27946  0.76738  1.0000
  C   C409      1.0  0.20151  0.27288  0.76185  1.0000
  C   C410      1.0  0.20408  0.27331  0.74496  1.0000
  C   C411      1.0  0.21702  0.28008  0.73366  1.0000
  C   C412      1.0  0.22799  0.28548  0.73932  1.0000
  C   C413      1.0  0.22527  0.28524  0.75620  1.0000
  H   H716      1.0  0.19143  0.26780  0.77052  1.0000
  H   H717      1.0  0.19597  0.26849  0.74071  1.0000
  C   C414      1.0  0.18271  0.42768  0.65419  1.0000
  C   C415      1.0  0.19767  0.34726  0.49443  1.0000
  H   H718      1.0  0.09004  0.24000  0.70000  1.0000
  H   H719      1.0  0.15660  0.33540  0.52691  1.0000
  C   C416      1.0  0.21217  0.33284  0.72647  1.0000
  S   S142      1.0  0.23784  0.31188  0.77528  1.0000
  C   C417      1.0  0.10445  0.30221  0.68677  1.0000
  H   H720      1.0  0.14121  0.27266  0.66026  1.0000
  C   C418      1.0  0.20931  0.35135  0.58494  1.0000
  H   H721      1.0  0.22704  0.39014  0.76550  1.0000
  H   H722      1.0  0.16605  0.37698  0.52750  1.0000
  H   H723      1.0  0.19242  0.31207  0.87019  1.0000
  H   H724      1.0  0.15166  0.31718  0.65301  1.0000
  C   C419      1.0  0.19588  0.32792  0.72735  1.0000
  S   S143      1.0  0.14310  0.27824  0.97167  1.0000
  H   H725      1.0  0.17106  0.31608  0.91399  1.0000
  C   C420      1.0  0.19622  0.29648  0.47495  1.0000
  C   C421      1.0  0.15127  0.23794  0.59754  1.0000
  H   H726      1.0  0.20351  0.31666  0.60515  1.0000
  C   C422      1.0  0.14170  0.25582  0.93628  1.0000
  C   C423      1.0  0.13793  0.26652  0.94728  1.0000
  C   C424      1.0  0.22701  0.46265  0.63760  1.0000
  H   H727      1.0  0.13419  0.25811  0.92730  1.0000
  H   H728      1.0  0.12751  0.27703  0.94669  1.0000
  C   C425      1.0  0.14836  0.30390  0.85587  1.0000
  C   C426      1.0  0.16460  0.29641  0.84903  1.0000
  C   C427      1.0  0.17674  0.30605  0.84192  1.0000
  C   C428      1.0  0.17272  0.32304  0.84204  1.0000
  C   C429      1.0  0.15648  0.33043  0.84890  1.0000
  C   C430      1.0  0.14429  0.32094  0.85557  1.0000
  H   H729      1.0  0.16777  0.28326  0.84917  1.0000
  H   H730      1.0  0.18926  0.30025  0.83670  1.0000
  H   H731      1.0  0.15331  0.34356  0.84894  1.0000
  H   H732      1.0  0.13170  0.32677  0.86073  1.0000
  H   H733      1.0  0.20962  0.34104  0.73535  1.0000
  C   C431      1.0  0.23602  0.34545  0.71189  1.0000
  C   C432      1.0  0.22839  0.43479  0.63463  1.0000
  C   C433      1.0  0.13170  0.24891  0.75193  1.0000
  C   C434      1.0  0.12199  0.25739  0.74023  1.0000
  C   C435      1.0  0.10585  0.25485  0.74271  1.0000
  H   H734      1.0  0.21053  0.34513  0.52021  1.0000
  H   H735      1.0  0.16439  0.39484  0.51116  1.0000
  H   H736      1.0  0.12685  0.26599  0.72939  1.0000
  H   H737      1.0  0.09840  0.26142  0.73364  1.0000
  H   H738      1.0  0.16740  0.30144  0.80825  1.0000
  H   H739      1.0  0.12981  0.26199  0.65412  1.0000
  H   H740      1.0  0.13268  0.29852  0.63813  1.0000
  H   H741      1.0  0.12055  0.30520  0.66269  1.0000
  H   H742      1.0  0.18727  0.35447  0.57587  1.0000
  H   H743      1.0  0.18313  0.28730  0.91463  1.0000
  H   H744      1.0  0.20493  0.32287  0.69668  1.0000
  H   H745      1.0  0.22169  0.39132  0.78669  1.0000
  C   C436      1.0  0.17896  0.34507  0.52152  1.0000
  N   N31       1.0  0.15219  0.27156  0.79891  1.0000
  C   C437      1.0  0.22926  0.45742  0.61058  1.0000
  C   C438      1.0  0.12982  0.27453  0.65556  1.0000
  C   C439      1.0  0.09967  0.28807  0.65985  1.0000
  H   H746      1.0  0.15357  0.23629  0.80638  1.0000
  H   H747      1.0  0.19288  0.45396  0.65573  1.0000
  Fe  Fe72      1.0  0.23203  0.28195  0.53145  1.0000
  H   H748      1.0  0.11281  0.26368  0.81885  1.0000
  H   H749      1.0  0.19447  0.42046  0.62306  1.0000
  H   H750      1.0  0.12355  0.28571  0.63110  1.0000
  C   C440      1.0  0.16535  0.36938  0.66197  1.0000
  C   C441      1.0  0.17594  0.35471  0.66823  1.0000
  C   C442      1.0  0.16929  0.34116  0.67861  1.0000
  C   C443      1.0  0.15206  0.34233  0.68270  1.0000
  C   C444      1.0  0.14154  0.35710  0.67665  1.0000
  C   C445      1.0  0.14816  0.37058  0.66634  1.0000
  H   H751      1.0  0.18919  0.35383  0.66518  1.0000
  H   H752      1.0  0.17745  0.32991  0.68352  1.0000
  H   H753      1.0  0.12822  0.35807  0.67987  1.0000
  H   H754      1.0  0.13992  0.38189  0.66157  1.0000
  C   C446      1.0  0.17220  0.25056  0.57616  1.0000
  C   C447      1.0  0.16523  0.26571  0.58110  1.0000
  C   C448      1.0  0.15120  0.26697  0.59422  1.0000
  C   C449      1.0  0.14421  0.25308  0.60245  1.0000
  H   H755      1.0  0.17277  0.27966  0.81616  1.0000
  H   H756      1.0  0.19278  0.38040  0.52559  1.0000
  H   H757      1.0  0.17058  0.27645  0.57473  1.0000
  H   H758      1.0  0.14574  0.27871  0.59795  1.0000
  S   S144      1.0  0.22143  0.30065  0.81500  1.0000
  C   C450      1.0  0.18631  0.43166  0.61721  1.0000
  H   H759      1.0  0.22551  0.25307  0.81005  1.0000
  C   C451      1.0  0.19658  0.27943  0.48032  1.0000
  H   H760      1.0  0.22003  0.32126  0.73230  1.0000
  C   C452      1.0  0.15884  0.31408  0.91375  1.0000
  H   H761      1.0  0.12984  0.29023  0.67803  1.0000
  H   H762      1.0  0.12717  0.28485  0.80837  1.0000
  H   H763      1.0  0.19563  0.36550  0.72236  1.0000
  C   C453      1.0  0.22717  0.44578  0.64455  1.0000
  C   C454      1.0  0.18775  0.30807  0.88376  1.0000
  H   H764      1.0  0.14714  0.32226  0.93689  1.0000
  H   H765      1.0  0.17790  0.25930  0.79970  1.0000
  N   N32       1.0  0.18948  0.35610  0.50856  1.0000
  H   H766      1.0  0.14520  0.28035  0.63086  1.0000
  H   H767      1.0  0.23990  0.33002  0.68967  1.0000
  H   H768      1.0  0.15906  0.45603  0.66346  1.0000
  H   H769      1.0  0.19856  0.26193  0.82741  1.0000
  H   H770      1.0  0.14720  0.25887  0.78254  1.0000
  H   H771      1.0  0.22322  0.31402  0.68343  1.0000
  C   C455      1.0  0.13280  0.28561  0.63799  1.0000
  S   S145      1.0  0.16602  0.25089  0.87749  1.0000
  C   C456      1.0  0.17645  0.27001  0.90467  1.0000
  C   C457      1.0  0.23441  0.23869  0.76867  1.0000
  S   S146      1.0  0.22010  0.30821  0.52149  1.0000
  C   C458      1.0  0.13759  0.28474  0.77428  1.0000
  C   C459      1.0  0.20324  0.36962  0.70990  1.0000
  H   H772      1.0  0.19338  0.43589  0.60446  1.0000
  C   C460      1.0  0.11816  0.29465  0.67331  1.0000
  H   H773      1.0  0.10986  0.25620  0.67749  1.0000
  S   S147      1.0  0.12666  0.25472  0.61883  1.0000
  H   H774      1.0  0.09809  0.27047  0.69000  1.0000
  H   H775      1.0  0.23398  0.40513  0.77124  1.0000
  H   H776      1.0  0.13952  0.29031  0.91747  1.0000
  H   H777      1.0  0.16271  0.31822  0.88110  1.0000
  H   H778      1.0  0.21196  0.36452  0.50612  1.0000
  H   H779      1.0  0.15170  0.29128  0.82214  1.0000
  C   C461      1.0  0.09935  0.24382  0.75689  1.0000
  S   S148      1.0  0.21881  0.35646  0.64004  1.0000
  H   H780      1.0  0.21683  0.23583  0.82234  1.0000
  H   H781      1.0  0.16440  0.25014  0.64727  1.0000
  H   H782      1.0  0.12219  0.26881  0.70114  1.0000
  C   C462      1.0  0.14478  0.29710  0.90494  1.0000
  H   H783      1.0  0.23376  0.28940  0.76051  1.0000
  H   H784      1.0  0.10932  0.31090  0.69079  1.0000
  H   H785      1.0  0.20426  0.33438  0.49905  1.0000
  H   H786      1.0  0.19839  0.31512  0.72530  1.0000
  N   N33       1.0  0.11452  0.28104  0.66770  1.0000
  H   H787      1.0  0.18823  0.34587  0.48852  1.0000
  Fe  Fe73      1.0  0.20330  0.29697  0.51375  1.0000
  H   H788      1.0  0.19481  0.37937  0.70270  1.0000
  H   H789      1.0  0.15244  0.32625  0.90720  1.0000
  S   S149      1.0  0.21683  0.27080  0.52179  1.0000
  H   H790      1.0  0.07895  0.23412  0.68854  1.0000
  H   H791      1.0  0.10127  0.29939  0.64992  1.0000
  N   N34       1.0  0.16123  0.30053  0.90469  1.0000
  C   C463      1.0  0.19960  0.34705  0.57657  1.0000
  H   H792      1.0  0.16270  0.27039  0.77316  1.0000
  H   H793      1.0  0.19391  0.44862  0.62633  1.0000
  H   H794      1.0  0.08925  0.28252  0.64194  1.0000
  H   H795      1.0  0.13599  0.32333  0.89172  1.0000
  H   H796      1.0  0.12493  0.28551  0.78229  1.0000
  H   H797      1.0  0.08812  0.23529  0.84940  1.0000
  H   H798      1.0  0.22220  0.35388  0.48383  1.0000
  C   C464      1.0  0.16290  0.24260  0.65974  1.0000
  H   H799      1.0  0.17260  0.23833  0.69667  1.0000
  H   H800      1.0  0.13390  0.44344  0.63572  1.0000
  H   H801      1.0  0.23314  0.24721  0.77685  1.0000
  H   H802      1.0  0.16532  0.26588  0.90453  1.0000
  C   C465      1.0  0.21109  0.35529  0.70066  1.0000
  H   H803      1.0  0.12703  0.25452  0.80317  1.0000
  H   H804      1.0  0.08507  0.26955  0.66253  1.0000
  H   H805      1.0  0.23921  0.44175  0.71157  1.0000
  C   C466      1.0  0.13581  0.27263  0.81134  1.0000
  H   H806      1.0  0.10503  0.26600  0.64875  1.0000
  H   H807      1.0  0.14644  0.28874  0.89644  1.0000
  H   H808      1.0  0.18787  0.38186  0.49569  1.0000
  H   H809      1.0  0.23896  0.25650  0.84169  1.0000
  H   H810      1.0  0.17527  0.45714  0.61928  1.0000
  H   H811      1.0  0.22127  0.47757  0.69303  1.0000
  H   H812      1.0  0.08850  0.29263  0.66901  1.0000
  C   C467      1.0  0.22807  0.46850  0.62054  1.0000
  H   H813      1.0  0.19628  0.29626  0.88794  1.0000
  H   H814      1.0  0.18737  0.47187  0.63991  1.0000
  C   C468      1.0  0.11060  0.26691  0.68205  1.0000
  N   N35       1.0  0.22156  0.34008  0.70958  1.0000
  C   C469      1.0  0.22525  0.34179  0.58599  1.0000
  H   H815      1.0  0.13607  0.25715  0.68628  1.0000
  H   H816      1.0  0.23170  0.35460  0.71995  1.0000
  H   H817      1.0  0.21864  0.36044  0.68844  1.0000
  S   S150      1.0  0.14160  0.24837  0.85508  1.0000
  H   H818      1.0  0.19581  0.42908  0.65120  1.0000
  N   N36       1.0  0.17219  0.44192  0.64429  1.0000
  H   H819      1.0  0.18696  0.33296  0.52616  1.0000
  C   C470      1.0  0.16504  0.38122  0.51441  1.0000
  N   N37       1.0  0.23885  0.23781  0.82902  1.0000
  H   H820      1.0  0.20469  0.24992  0.84605  1.0000
  H   H821      1.0  0.22360  0.30775  0.62699  1.0000
  C   C471      1.0  0.15639  0.43679  0.64519  1.0000
  C   C472      1.0  0.16512  0.25697  0.80532  1.0000
  C   C473      1.0  0.18250  0.46397  0.65197  1.0000
  H   H822      1.0  0.18484  0.41332  0.67888  1.0000
  H   H823      1.0  0.22654  0.31297  0.56457  1.0000
  C   C474      1.0  0.16269  0.28978  0.81178  1.0000
  S   S151      1.0  0.23066  0.42679  0.60506  1.0000
  Fe  Fe74      1.0  0.22225  0.33719  0.77642  1.0000
  S   S152      1.0  0.22678  0.35695  0.75331  1.0000
  C   C475      1.0  0.15052  0.27061  0.78219  1.0000
  C   C476      1.0  0.22934  0.44052  0.61763  1.0000
  H   H824      1.0  0.17844  0.47142  0.66167  1.0000
  H   H825      1.0  0.21273  0.37567  0.71090  1.0000
  H   H826      1.0  0.18775  0.32825  0.73985  1.0000
  H   H827      1.0  0.19222  0.29689  0.59906  1.0000
  H   H828      1.0  0.17623  0.35572  0.63196  1.0000
  H   H829      1.0  0.09331  0.30962  0.68194  1.0000
  H   H830      1.0  0.16381  0.42228  0.67720  1.0000
  C   C477      1.0  0.23141  0.32802  0.57848  1.0000
  H   H831      1.0  0.16482  0.28039  0.92592  1.0000
  H   H832      1.0  0.14876  0.29852  0.79284  1.0000
  H   H833      1.0  0.19748  0.27331  0.49294  1.0000
  C   C478      1.0  0.22168  0.32369  0.57017  1.0000
  H   H834      1.0  0.17720  0.43503  0.67817  1.0000
  H   H835      1.0  0.21120  0.30309  0.64795  1.0000
  S   S153      1.0  0.19679  0.30860  0.48847  1.0000
  H   H836      1.0  0.15667  0.30073  0.93992  1.0000
  H   H837      1.0  0.20405  0.29837  0.62117  1.0000
  H   H838      1.0  0.18838  0.33661  0.71868  1.0000
  H   H839      1.0  0.14118  0.29693  0.77087  1.0000
  H   H840      1.0  0.21535  0.33591  0.67856  1.0000
  C   C479      1.0  0.15825  0.28725  0.79653  1.0000
  H   H841      1.0  0.18853  0.36157  0.54057  1.0000
  H   H842      1.0  0.16852  0.24782  0.96866  1.0000
  C   C480      1.0  0.22290  0.24552  0.82294  1.0000
  C   C481      1.0  0.14488  0.44877  0.63398  1.0000
  C   C482      1.0  0.12629  0.25876  0.81443  1.0000
  H   H843      1.0  0.15915  0.42429  0.64224  1.0000
  Fe  Fe75      1.0  0.20658  0.32675  0.81272  1.0000
  H   H844      1.0  0.22054  0.46680  0.71374  1.0000
  H   H845      1.0  0.18406  0.27265  0.89192  1.0000
  H   H846      1.0  0.17379  0.37207  0.49206  1.0000
  C   C483      1.0  0.18190  0.44571  0.62669  1.0000
  C   C484      1.0  0.17657  0.42463  0.67317  1.0000
  C   C485      1.0  0.16972  0.30603  0.88687  1.0000
  H   H847      1.0  0.07074  0.23312  0.71015  1.0000
  C   C486      1.0  0.21713  0.32505  0.68900  1.0000
  N   N38       1.0  0.18715  0.32040  0.62857  1.0000
  C   C487      1.0  0.20052  0.32657  0.63205  1.0000
  C   C488      1.0  0.17534  0.33549  0.62127  1.0000
  C   C489      1.0  0.19555  0.30979  0.61593  1.0000
  C   C490      1.0  0.17881  0.31041  0.64459  1.0000
  Fe  Fe76      1.0  0.22669  0.40060  0.61739  1.0000
  C   C491      1.0  0.18427  0.30353  0.60890  1.0000
  C   C492      1.0  0.16104  0.30849  0.64579  1.0000
  S   S154      1.0  0.23777  0.34633  0.59678  1.0000
  H   H848      1.0  0.16509  0.33221  0.61822  1.0000
  H   H849      1.0  0.18189  0.34202  0.60920  1.0000
  C   C493      1.0  0.19764  0.36694  0.52998  1.0000
  H   H850      1.0  0.16054  0.46790  0.64323  1.0000
  H   H851      1.0  0.18662  0.29767  0.64752  1.0000
  H   H852      1.0  0.17767  0.31627  0.65503  1.0000
  H   H853      1.0  0.22870  0.42186  0.64018  1.0000
  C   C494      1.0  0.16575  0.23989  0.80218  1.0000
  H   H854      1.0  0.19526  0.33370  0.64205  1.0000
  H   H855      1.0  0.14874  0.43530  0.65805  1.0000
  H   H856      1.0  0.17534  0.31374  0.60280  1.0000
  H   H857      1.0  0.17789  0.29430  0.61846  1.0000
  H   H858      1.0  0.15969  0.29583  0.65305  1.0000
  H   H859      1.0  0.15780  0.30991  0.63386  1.0000
  H   H860      1.0  0.21363  0.26770  0.83415  1.0000
  H   H861      1.0  0.16190  0.34281  0.64502  1.0000
  H   H862      1.0  0.23827  0.29031  0.73065  1.0000
  H   H863      1.0  0.17071  0.23956  0.78886  1.0000
  Fe  Fe77      1.0  0.12836  0.23343  0.87812  1.0000
  H   H864      1.0  0.14006  0.46109  0.63730  1.0000
  Fe  Fe78      1.0  0.16475  0.23303  0.86333  1.0000
  C   C495      1.0  0.16521  0.34102  0.51584  1.0000
  H   H865      1.0  0.23001  0.46198  0.59740  1.0000
  C   C496      1.0  0.14767  0.26382  0.95888  1.0000
  C   C497      1.0  0.16096  0.25003  0.95975  1.0000
  H   H866      1.0  0.16366  0.25530  0.81892  1.0000
  H   H867      1.0  0.23715  0.43153  0.68900  1.0000
  Fe  Fe79      1.0  0.23530  0.37049  0.64438  1.0000
  H   H868      1.0  0.22298  0.31892  0.64184  1.0000
  H   H869      1.0  0.23264  0.31466  0.70678  1.0000
  H   H870      1.0  0.15292  0.37978  0.51330  1.0000
  H   H871      1.0  0.20870  0.36585  0.53490  1.0000
  H   H872      1.0  0.22452  0.45216  0.68718  1.0000
  H   H873      1.0  0.17518  0.42826  0.61600  1.0000
  C   C498      1.0  0.16456  0.23917  0.94893  1.0000
  C   C499      1.0  0.22854  0.32715  0.69906  1.0000
  H   H874      1.0  0.15779  0.35216  0.50902  1.0000
  C   C500      1.0  0.16969  0.24557  0.67137  1.0000
  H   H875      1.0  0.22732  0.23397  0.85517  1.0000
  H   H876      1.0  0.23385  0.38798  0.80730  1.0000
  C   C501      1.0  0.21032  0.35548  0.48016  1.0000
  H   H877      1.0  0.13761  0.27249  0.82369  1.0000
  C   C502      1.0  0.10899  0.23551  0.76866  1.0000
  C   C503      1.0  0.16750  0.23596  0.68757  1.0000
  S   S155      1.0  0.07935  0.24027  0.75952  1.0000
  C   C504      1.0  0.15507  0.24211  0.93703  1.0000
  C   C505      1.0  0.16524  0.23669  0.58444  1.0000
  H   H878      1.0  0.17051  0.33158  0.50808  1.0000
  C   C506      1.0  0.23175  0.39233  0.77537  1.0000
  H   H879      1.0  0.13050  0.24793  0.82404  1.0000
  H   H880      1.0  0.22786  0.48153  0.61506  1.0000
  H   H881      1.0  0.99314  0.23269  0.77777  1.0000
  H   H882      1.0  0.18270  0.63107  0.07012  1.0000
  Fe  Fe80      1.0  0.18492  0.55921  0.31717  1.0000
  S   S156      1.0  0.19792  0.54130  0.33651  1.0000
  S   S157      1.0  0.15844  0.57135  0.32640  1.0000
  H   H883      1.0  0.14065  0.52055  0.30068  1.0000
  H   H884      1.0  0.12675  0.65785  0.28764  1.0000
  H   H885      1.0  0.15327  0.70930  0.13908  1.0000
  S   S158      1.0  0.19221  0.54215  0.29954  1.0000
  H   H886      1.0  0.11576  0.64110  0.29477  1.0000
  C   C507      1.0  0.20274  0.62654  0.42586  1.0000
  C   C508      1.0  0.01442  0.68432  0.08406  1.0000
  H   H887      1.0  0.15902  0.53537  0.32813  1.0000
  H   H888      1.0  0.10893  0.69460  0.07067  1.0000
  H   H889      1.0  0.16225  0.51856  0.29894  1.0000
  H   H890      1.0  0.16906  0.52045  0.35195  1.0000
  H   H891      1.0  0.18729  0.59132  0.18531  1.0000
  C   C509      1.0  0.20180  0.59699  0.45500  1.0000
  C   C510      1.0  0.15472  0.70472  0.15217  1.0000
  S   S159      1.0  0.22629  0.64801  0.38440  1.0000
  C   C511      1.0  0.18854  0.48726  0.29043  1.0000
  C   C512      1.0  0.14534  0.70140  0.18800  1.0000
  Fe  Fe81      1.0  0.12444  0.62542  0.25212  1.0000
  S   S160      1.0  0.15150  0.62056  0.24001  1.0000
  S   S161      1.0  0.11338  0.60783  0.27444  1.0000
  Fe  Fe82      1.0  0.11668  0.65948  0.22948  1.0000
  S   S162      1.0  0.14319  0.65770  0.21599  1.0000
  S   S163      1.0  0.09906  0.68353  0.22118  1.0000
  Fe  Fe83      1.0  0.14278  0.63157  0.21632  1.0000
  S   S164      1.0  0.15504  0.62174  0.19324  1.0000
  Fe  Fe84      1.0  0.14956  0.64689  0.24079  1.0000
  S   S165      1.0  0.16945  0.65156  0.25008  1.0000
  S   S166      1.0  0.11564  0.63392  0.22822  1.0000
  S   S167      1.0  0.12303  0.65121  0.25457  1.0000
  C   C513      1.0  0.14283  0.68838  0.18005  1.0000
  Fe  Fe85      1.0  0.17632  0.71670  0.29630  1.0000
  H   H892      1.0  0.04525  0.68830  0.06157  1.0000
  S   S168      1.0  0.17882  0.69357  0.31647  1.0000
  H   H893      1.0  0.22351  0.71942  0.41971  1.0000
  H   H894      1.0  0.09907  0.68706  0.09884  1.0000
  H   H895      1.0  0.15819  0.66200  0.08945  1.0000
  Fe  Fe86      1.0  0.02598  0.71906  0.14039  1.0000
  S   S169      1.0  0.23863  0.56205  0.33071  1.0000
  Fe  Fe87      1.0  0.06235  0.70708  0.14396  1.0000
  C   C514      1.0  0.23021  0.57318  0.43829  1.0000
  S   S170      1.0  0.08174  0.68576  0.15357  1.0000
  C   C515      1.0  0.12548  0.64611  0.29696  1.0000
  H   H896      1.0  0.19368  0.50878  0.29493  1.0000
  H   H897      1.0  0.20664  0.57806  0.17647  1.0000
  S   S171      1.0  0.03964  0.72157  0.15825  1.0000
  S   S172      1.0  0.04820  0.70236  0.12797  1.0000
  Fe  Fe88      1.0  0.16316  0.70733  0.02025  1.0000
  H   H898      1.0  0.23487  0.71157  0.46356  1.0000
  S   S173      1.0  0.16394  0.68008  0.02981  1.0000
  S   S174      1.0  0.20863  0.66358  0.15173  1.0000
  H   H899      1.0  0.15014  0.54614  0.28570  1.0000
  H   H900      1.0  0.23580  0.70074  0.41311  1.0000
  C   C516      1.0  0.22593  0.70565  0.42300  1.0000
  C   C517      1.0  0.01733  0.67562  0.11916  1.0000
  H   H901      1.0  0.13385  0.54916  0.32965  1.0000
  H   H902      1.0  0.09624  0.69823  0.11469  1.0000
  H   H903      1.0  0.15599  0.70300  0.97749  1.0000
  H   H904      1.0  0.99344  0.67277  0.08793  1.0000
  H   H905      1.0  0.16468  0.49352  0.32225  1.0000
  H   H906      1.0  0.21975  0.51979  0.27115  1.0000
  S   S175      1.0  0.22777  0.60294  0.38604  1.0000
  H   H907      1.0  0.13387  0.54936  0.30323  1.0000
  H   H908      1.0  0.20685  0.58523  0.37975  1.0000
  H   H909      1.0  0.11128  0.71446  0.20831  1.0000
  H   H910      1.0  0.22921  0.68199  0.47232  1.0000
  H   H911      1.0  0.21064  0.62819  0.44700  1.0000
  H   H912      1.0  0.18829  0.67919  0.98362  1.0000
  H   H913      1.0  0.04380  0.68056  0.09169  1.0000
  H   H914      1.0  0.22583  0.64956  0.29216  1.0000
  H   H915      1.0  0.13875  0.66826  0.30253  1.0000
  H   H916      1.0  0.15531  0.54845  0.30341  1.0000
  H   H917      1.0  0.21793  0.65974  0.31896  1.0000
  H   H918      1.0  0.01859  0.68663  0.07034  1.0000
  S   S176      1.0  0.22456  0.55994  0.26155  1.0000
  C   C518      1.0  0.09402  0.68432  0.20243  1.0000
  C   C519      1.0  0.09918  0.67031  0.19549  1.0000
  C   C520      1.0  0.09497  0.67082  0.18071  1.0000
  C   C521      1.0  0.08568  0.68540  0.17265  1.0000
  C   C522      1.0  0.08064  0.69958  0.17942  1.0000
  C   C523      1.0  0.08493  0.69906  0.19423  1.0000
  H   H919      1.0  0.10640  0.65899  0.20149  1.0000
  H   H920      1.0  0.09896  0.65985  0.17550  1.0000
  H   H921      1.0  0.07372  0.71097  0.17308  1.0000
  H   H922      1.0  0.08141  0.71012  0.19920  1.0000
  C   C524      1.0  0.16904  0.67278  0.24645  1.0000
  C   C525      1.0  0.17596  0.67835  0.25632  1.0000
  C   C526      1.0  0.17519  0.69533  0.25401  1.0000
  C   C527      1.0  0.16820  0.70673  0.24135  1.0000
  C   C528      1.0  0.16168  0.70113  0.23114  1.0000
  C   C529      1.0  0.16179  0.68417  0.23392  1.0000
  H   H923      1.0  0.18180  0.66958  0.26584  1.0000
  H   H924      1.0  0.18024  0.69956  0.26192  1.0000
  H   H925      1.0  0.03082  0.67000  0.11695  1.0000
  H   H926      1.0  0.15662  0.67989  0.22617  1.0000
  C   C530      1.0  0.21791  0.56486  0.20630  1.0000
  C   C531      1.0  0.19370  0.66811  0.06299  1.0000
  C   C532      1.0  0.18498  0.67716  0.05042  1.0000
  C   C533      1.0  0.17557  0.66945  0.04500  1.0000
  H   H927      1.0  0.17855  0.68921  0.14221  1.0000
  Fe  Fe89      1.0  0.21961  0.55340  0.32289  1.0000
  H   H928      1.0  0.20755  0.62121  0.41463  1.0000
  H   H929      1.0  0.18563  0.68999  0.04491  1.0000
  H   H930      1.0  0.16106  0.69026  0.99612  1.0000
  H   H931      1.0  0.20099  0.67398  0.06720  1.0000
  H   H932      1.0  0.04235  0.71082  0.23482  1.0000
  C   C534      1.0  0.18854  0.65074  0.18001  1.0000
  C   C535      1.0  0.17684  0.64125  0.18931  1.0000
  C   C536      1.0  0.17021  0.63299  0.18157  1.0000
  C   C537      1.0  0.17577  0.63375  0.16453  1.0000
  C   C538      1.0  0.18768  0.64311  0.15521  1.0000
  H   H933      1.0  0.19355  0.65720  0.18607  1.0000
  H   H934      1.0  0.17334  0.63995  0.20258  1.0000
  H   H935      1.0  0.17074  0.62726  0.15853  1.0000
  C   C539      1.0  0.10962  0.71867  0.23258  1.0000
  H   H936      1.0  0.09079  0.72239  0.21818  1.0000
  C   C540      1.0  0.04646  0.69732  0.06803  1.0000
  H   H937      1.0  0.15272  0.67713  0.18290  1.0000
  N   N39       1.0  0.16683  0.67715  0.97628  1.0000
  C   C541      1.0  0.21207  0.67776  0.34586  1.0000
  C   C542      1.0  0.19729  0.68161  0.34021  1.0000
  C   C543      1.0  0.19668  0.69061  0.32404  1.0000
  C   C544      1.0  0.21073  0.69615  0.31367  1.0000
  H   H938      1.0  0.01308  0.67564  0.13260  1.0000
  H   H939      1.0  0.21243  0.67082  0.35833  1.0000
  H   H940      1.0  0.18635  0.67753  0.34832  1.0000
  H   H941      1.0  0.21035  0.70310  0.30117  1.0000
  C   C545      1.0  0.19909  0.59597  0.22784  1.0000
  C   C546      1.0  0.14644  0.58106  0.31147  1.0000
  C   C547      1.0  0.12918  0.58554  0.31679  1.0000
  C   C548      1.0  0.11918  0.59347  0.30527  1.0000
  C   C549      1.0  0.12639  0.59737  0.28837  1.0000
  C   C550      1.0  0.14371  0.59291  0.28300  1.0000
  C   C551      1.0  0.15374  0.58460  0.29455  1.0000
  H   H942      1.0  0.12350  0.58283  0.32986  1.0000
  H   H943      1.0  0.10582  0.59685  0.30946  1.0000
  H   H944      1.0  0.14933  0.59558  0.26995  1.0000
  H   H945      1.0  0.16709  0.58109  0.29037  1.0000
  H   H946      1.0  0.16134  0.67079  0.15733  1.0000
  S   S177      1.0  0.21543  0.67257  0.10305  1.0000
  S   S178      1.0  0.16576  0.72498  0.03391  1.0000
  H   H947      1.0  0.18651  0.62030  0.46228  1.0000
  H   H948      1.0  0.01041  0.66772  0.11661  1.0000
  H   H949      1.0  0.12001  0.70726  0.27713  1.0000
  S   S179      1.0  0.15349  0.72579  0.28566  1.0000
  H   H950      1.0  0.23234  0.58005  0.20949  1.0000
  H   H951      1.0  0.17997  0.60180  0.47460  1.0000
  H   H952      1.0  0.12050  0.64876  0.30946  1.0000
  C   C552      1.0  0.99552  0.68513  0.08754  1.0000
  H   H953      1.0  0.99769  0.71606  0.08751  1.0000
  H   H954      1.0  0.13529  0.73008  0.23508  1.0000
  C   C553      1.0  0.14141  0.49104  0.31944  1.0000
  H   H955      1.0  0.22015  0.52200  0.24992  1.0000
  H   H956      1.0  0.23902  0.57629  0.15695  1.0000
  N   N40       1.0  0.13467  0.69375  0.08672  1.0000
  C   C554      1.0  0.15180  0.68869  0.09053  1.0000
  C   C555      1.0  0.13207  0.71192  0.07825  1.0000
  C   C556      1.0  0.13440  0.68338  0.07515  1.0000
  C   C557      1.0  0.12216  0.69043  0.10282  1.0000
  H   H957      1.0  0.12556  0.70112  0.05387  1.0000
  C   C558      1.0  0.13181  0.72408  0.08868  1.0000
  H   H958      1.0  0.12709  0.70283  0.25689  1.0000
  S   S180      1.0  0.22353  0.63241  0.12140  1.0000
  H   H959      1.0  0.19703  0.59646  0.16409  1.0000
  H   H960      1.0  0.15256  0.69533  0.09964  1.0000
  H   H961      1.0  0.12023  0.71638  0.07399  1.0000
  H   H962      1.0  0.14185  0.71391  0.06670  1.0000
  H   H963      1.0  0.14672  0.68106  0.06648  1.0000
  H   H964      1.0  0.13225  0.67084  0.08218  1.0000
  H   H965      1.0  0.12384  0.67684  0.10819  1.0000
  H   H966      1.0  0.12428  0.69542  0.11256  1.0000
  C   C559      1.0  0.22819  0.65239  0.45846  1.0000
  H   H967      1.0  0.22217  0.61703  0.30137  1.0000
  C   C560      1.0  0.19110  0.60712  0.46803  1.0000
  H   H968      1.0  0.14401  0.72234  0.09171  1.0000
  C   C561      1.0  0.22903  0.59895  0.45755  1.0000
  H   H969      1.0  0.12184  0.72333  0.10010  1.0000
  H   H970      1.0  0.21443  0.70206  0.42291  1.0000
  C   C562      1.0  0.23550  0.72654  0.04962  1.0000
  H   H971      1.0  0.23100  0.62385  0.35005  1.0000
  N   N41       1.0  0.14762  0.51732  0.32399  1.0000
  H   H972      1.0  0.20160  0.62251  0.32957  1.0000
  H   H973      1.0  0.10060  0.70863  0.09390  1.0000
  H   H974      1.0  0.14438  0.65311  0.15761  1.0000
  H   H975      1.0  0.19539  0.64577  0.35200  1.0000
  H   H976      1.0  0.18871  0.61000  0.20675  1.0000
  H   H977      1.0  0.13456  0.66171  0.17547  1.0000
  H   H978      1.0  0.15062  0.68084  0.14106  1.0000
  C   C563      1.0  0.10384  0.72355  0.21602  1.0000
  C   C564      1.0  0.18341  0.64392  0.06463  1.0000
  H   H979      1.0  0.06354  0.71243  0.22795  1.0000
  C   C565      1.0  0.12588  0.70129  0.15863  1.0000
  H   H980      1.0  0.13612  0.67758  0.00168  1.0000
  H   H981      1.0  0.02096  0.67126  0.08821  1.0000
  H   H982      1.0  0.23375  0.62002  0.17196  1.0000
  S   S181      1.0  0.22662  0.65836  0.42588  1.0000
  C   C566      1.0  0.19747  0.59795  0.20992  1.0000
  H   H983      1.0  0.20347  0.61457  0.17698  1.0000
  H   H984      1.0  0.07596  0.72986  0.24408  1.0000
  Fe  Fe90      1.0  0.22112  0.65695  0.12724  1.0000
  S   S182      1.0  0.19442  0.72098  0.27184  1.0000
  H   H985      1.0  0.20604  0.63596  0.36837  1.0000
  H   H986      1.0  0.22838  0.68553  0.44419  1.0000
  H   H987      1.0  0.04217  0.70122  0.09277  1.0000
  C   C567      1.0  0.01725  0.72791  0.08626  1.0000
  H   H988      1.0  0.21928  0.70525  0.44891  1.0000
  H   H989      1.0  0.22170  0.60018  0.17031  1.0000
  H   H990      1.0  0.15383  0.65701  0.98831  1.0000
  H   H991      1.0  0.19169  0.64400  0.14199  1.0000
  C   C568      1.0  0.22026  0.57528  0.35810  1.0000
  H   H992      1.0  0.11710  0.69299  0.16530  1.0000
  H   H993      1.0  0.10174  0.71003  0.24115  1.0000
  C   C569      1.0  0.10778  0.72600  0.25884  1.0000
  H   H994      1.0  0.21252  0.62268  0.19739  1.0000
  S   S183      1.0  0.20581  0.57245  0.30481  1.0000
  H   H995      1.0  0.16754  0.64684  0.04811  1.0000
  Fe  Fe91      1.0  0.20650  0.52479  0.31801  1.0000
  H   H996      1.0  0.13092  0.68466  0.18723  1.0000
  H   H997      1.0  0.15170  0.71611  0.15712  1.0000
  C   C570      1.0  0.19400  0.49563  0.29925  1.0000
  H   H998      1.0  0.22606  0.64571  0.34400  1.0000
  S   S184      1.0  0.00086  0.71171  0.15054  1.0000
  H   H999      1.0  0.14879  0.51603  0.35669  1.0000
  N   N42       1.0  0.14309  0.69322  0.16172  1.0000
  H   H1000     1.0  0.14266  0.69694  0.20168  1.0000
  N   N43       1.0  0.21791  0.60210  0.44559  1.0000
  H   H1001     1.0  0.20905  0.58527  0.23151  1.0000
  H   H1002     1.0  0.21535  0.65905  0.46046  1.0000
  H   H1003     1.0  0.18397  0.49410  0.27939  1.0000
  S   S185      1.0  0.22970  0.53476  0.30651  1.0000
  C   C571      1.0  0.22240  0.51266  0.26138  1.0000
  H   H1004     1.0  0.17623  0.63392  0.99250  1.0000
  C   C572      1.0  0.19289  0.65144  0.07008  1.0000
  H   H1005     1.0  0.19018  0.62418  0.43210  1.0000
  H   H1006     1.0  0.17312  0.51769  0.32249  1.0000
  H   H1007     1.0  0.20658  0.64202  0.29873  1.0000
  C   C573      1.0  0.15600  0.69039  0.98546  1.0000
  H   H1008     1.0  0.19994  0.65137  0.32493  1.0000
  H   H1009     1.0  0.20039  0.62329  0.35855  1.0000
  C   C574      1.0  0.22210  0.63436  0.34414  1.0000
  H   H1010     1.0  0.21341  0.50454  0.26447  1.0000
  H   H1011     1.0  0.12253  0.71102  0.23048  1.0000
  H   H1012     1.0  0.20130  0.60750  0.22960  1.0000
  H   H1013     1.0  0.21412  0.60003  0.31563  1.0000
  H   H1014     1.0  0.22557  0.60761  0.20977  1.0000
  H   H1015     1.0  0.23694  0.59654  0.42384  1.0000
  C   C575      1.0  0.21823  0.58422  0.37033  1.0000
  C   C576      1.0  0.21323  0.64911  0.31838  1.0000
  C   C577      1.0  0.16122  0.51425  0.34829  1.0000
  C   C578      1.0  0.03808  0.69365  0.08662  1.0000
  C   C579      1.0  0.14706  0.54309  0.29946  1.0000
  N   N44       1.0  0.01939  0.69635  0.09071  1.0000
  H   H1016     1.0  0.05999  0.69604  0.06686  1.0000
  H   H1017     1.0  0.15646  0.70988  0.22119  1.0000
  H   H1018     1.0  0.12620  0.66914  0.15681  1.0000
  C   C580      1.0  0.19400  0.65165  0.16299  1.0000
  S   S186      1.0  0.20278  0.63942  0.08622  1.0000
  C   C581      1.0  0.13770  0.66486  0.16173  1.0000
  C   C582      1.0  0.14894  0.67766  0.15481  1.0000
  C   C583      1.0  0.01146  0.71376  0.08302  1.0000
  H   H1019     1.0  0.17577  0.68945  0.16372  1.0000
  C   C584      1.0  0.17337  0.69707  0.15157  1.0000
  C   C585      1.0  0.22637  0.68254  0.33522  1.0000
  C   C586      1.0  0.12581  0.54055  0.33739  1.0000
  C   C587      1.0  0.17484  0.65285  0.05215  1.0000
  N   N45       1.0  0.15443  0.63351  0.30454  1.0000
  C   C588      1.0  0.16855  0.61853  0.30276  1.0000
  C   C589      1.0  0.14722  0.63235  0.32283  1.0000
  C   C590      1.0  0.16160  0.64892  0.29709  1.0000
  C   C591      1.0  0.14198  0.63310  0.29529  1.0000
  C   C592      1.0  0.17877  0.61794  0.28497  1.0000
  C   C593      1.0  0.13928  0.61725  0.33201  1.0000
  C   C594      1.0  0.15197  0.66494  0.30325  1.0000
  H   H1020     1.0  0.17746  0.61753  0.31047  1.0000
  H   H1021     1.0  0.16391  0.60682  0.30740  1.0000
  H   H1022     1.0  0.13749  0.64348  0.32534  1.0000
  H   H1023     1.0  0.15700  0.63208  0.32923  1.0000
  H   H1024     1.0  0.17435  0.64670  0.29927  1.0000
  H   H1025     1.0  0.16307  0.65209  0.28345  1.0000
  H   H1026     1.0  0.14742  0.63496  0.28175  1.0000
  H   H1027     1.0  0.13902  0.62059  0.29839  1.0000
  H   H1028     1.0  0.18902  0.60671  0.28543  1.0000
  H   H1029     1.0  0.17122  0.61679  0.27690  1.0000
  H   H1030     1.0  0.18461  0.62883  0.27912  1.0000
  H   H1031     1.0  0.13328  0.61850  0.34495  1.0000
  H   H1032     1.0  0.12944  0.61650  0.32632  1.0000
  H   H1033     1.0  0.14869  0.60541  0.33287  1.0000
  H   H1034     1.0  0.15767  0.67550  0.29532  1.0000
  H   H1035     1.0  0.15299  0.66403  0.31608  1.0000
  H   H1036     1.0  0.19131  0.64630  0.98747  1.0000
  Fe  Fe92      1.0  0.21477  0.55333  0.28919  1.0000
  S   S187      1.0  0.16715  0.72797  0.23866  1.0000
  S   S188      1.0  0.20650  0.49710  0.32523  1.0000
  C   C595      1.0  0.15779  0.67000  0.09778  1.0000
  H   H1037     1.0  0.12708  0.51435  0.34507  1.0000
  H   H1038     1.0  0.12595  0.70340  0.14523  1.0000
  H   H1039     1.0  0.22296  0.72525  0.05729  1.0000
  S   S189      1.0  0.06361  0.72371  0.08386  1.0000
  H   H1040     1.0  0.15021  0.66583  0.11023  1.0000
  H   H1041     1.0  0.21052  0.56942  0.35818  1.0000
  H   H1042     1.0  0.12172  0.68088  0.05756  1.0000
  H   H1043     1.0  0.14610  0.49256  0.30582  1.0000
  C   C596      1.0  0.20490  0.63487  0.35619  1.0000
  H   H1044     1.0  0.01342  0.71550  0.06936  1.0000
  H   H1045     1.0  0.12786  0.49630  0.32237  1.0000
  H   H1046     1.0  0.16133  0.69218  0.07913  1.0000
  C   C597      1.0  0.20998  0.60134  0.17996  1.0000
  H   H1047     1.0  0.10581  0.72304  0.15945  1.0000
  H   H1048     1.0  0.13097  0.69959  0.99874  1.0000
  S   S190      1.0  0.18044  0.71660  0.99691  1.0000
  C   C598      1.0  0.10360  0.69639  0.10223  1.0000
  C   C599      1.0  0.16050  0.52179  0.32996  1.0000
  C   C600      1.0  0.17985  0.64549  0.98434  1.0000
  H   H1049     1.0  0.14887  0.49288  0.34051  1.0000
  H   H1050     1.0  0.23521  0.57887  0.18858  1.0000
  S   S191      1.0  0.14009  0.72299  0.01172  1.0000
  H   H1051     1.0  0.15840  0.70292  0.18425  1.0000
  C   C601      1.0  0.15128  0.49854  0.32700  1.0000
  H   H1052     1.0  0.18044  0.70711  0.14775  1.0000
  H   H1053     1.0  0.18720  0.59384  0.23653  1.0000
  C   C602      1.0  0.01353  0.69369  0.10928  1.0000
  H   H1054     1.0  0.16727  0.50083  0.35015  1.0000
  C   C603      1.0  0.22560  0.69199  0.31922  1.0000
  H   H1055     1.0  0.12514  0.72741  0.15883  1.0000
  C   C604      1.0  0.12178  0.69058  0.06384  1.0000
  C   C605      1.0  0.22162  0.61049  0.19782  1.0000
  Fe  Fe93      1.0  0.21991  0.64789  0.09632  1.0000
  C   C606      1.0  0.22576  0.59227  0.43226  1.0000
  H   H1056     1.0  0.01902  0.70104  0.11439  1.0000
  H   H1057     1.0  0.22838  0.58701  0.46677  1.0000
  H   H1058     1.0  0.09702  0.71989  0.26465  1.0000
  C   C607      1.0  0.11752  0.71786  0.16404  1.0000
  H   H1059     1.0  0.03006  0.72869  0.07918  1.0000
  H   H1060     1.0  0.20619  0.56604  0.20266  1.0000
  C   C608      1.0  0.12313  0.71300  0.26372  1.0000
  H   H1061     1.0  0.12099  0.52334  0.32587  1.0000
  N   N46       1.0  0.22293  0.63297  0.32677  1.0000
  H   H1062     1.0  0.22700  0.55443  0.20128  1.0000
  C   C609      1.0  0.14965  0.52408  0.30554  1.0000
  H   H1063     1.0  0.17075  0.66785  0.09930  1.0000
  H   H1064     1.0  0.13372  0.71890  0.26194  1.0000
  H   H1065     1.0  0.21742  0.60874  0.33929  1.0000
  C   C610      1.0  0.16559  0.66047  0.98788  1.0000
  H   H1066     1.0  0.04180  0.71018  0.06157  1.0000
  H   H1067     1.0  0.12573  0.53924  0.35063  1.0000
  H   H1068     1.0  0.19069  0.58850  0.21031  1.0000
  H   H1069     1.0  0.20127  0.64023  0.42143  1.0000
  H   H1070     1.0  0.16502  0.66106  0.00086  1.0000
  C   C611      1.0  0.19961  0.59098  0.17667  1.0000
  H   H1071     1.0  0.11295  0.54691  0.33596  1.0000
  C   C612      1.0  0.13004  0.52325  0.33304  1.0000
  C   C613      1.0  0.13756  0.68924  0.99233  1.0000
  C   C614      1.0  0.22551  0.58051  0.20001  1.0000
  H   H1072     1.0  0.99996  0.69838  0.11279  1.0000
  H   H1073     1.0  0.23661  0.69571  0.31091  1.0000
  C   C615      1.0  0.19980  0.48695  0.31361  1.0000
  H   H1074     1.0  0.08577  0.71929  0.05299  1.0000
  C   C616      1.0  0.22206  0.60896  0.31385  1.0000
  C   C617      1.0  0.22978  0.69866  0.44046  1.0000
  C   C618      1.0  0.21315  0.65085  0.30013  1.0000
  H   H1075     1.0  0.22684  0.62378  0.43014  1.0000
  H   H1076     1.0  0.11374  0.71590  0.17772  1.0000
  H   H1077     1.0  0.01755  0.72501  0.22914  1.0000
  C   C619      1.0  0.05115  0.71725  0.22470  1.0000
  H   H1078     1.0  0.20616  0.66356  0.29548  1.0000
  H   H1079     1.0  0.23337  0.56916  0.45062  1.0000
  H   H1080     1.0  0.10974  0.73172  0.03620  1.0000
  H   H1081     1.0  0.23480  0.60139  0.31429  1.0000
  H   H1082     1.0  0.13701  0.71370  0.18527  1.0000
  N   N47       1.0  0.21357  0.59713  0.19703  1.0000
  Fe  Fe94      1.0  0.05470  0.72565  0.11064  1.0000
  H   H1083     1.0  0.22838  0.49875  0.29309  1.0000
  H   H1084     1.0  0.05219  0.71362  0.21298  1.0000
  H   H1085     1.0  0.21726  0.59452  0.42378  1.0000
  C   C620      1.0  0.21535  0.61851  0.32802  1.0000
  H   H1086     1.0  0.01668  0.72669  0.09953  1.0000
  C   C621      1.0  0.23083  0.59182  0.37044  1.0000
  H   H1087     1.0  0.21610  0.56078  0.21998  1.0000
  H   H1088     1.0  0.23304  0.70731  0.36390  1.0000
  C   C622      1.0  0.21499  0.62037  0.43757  1.0000
  H   H1089     1.0  0.23739  0.73082  0.34035  1.0000
  C   C623      1.0  0.23621  0.64614  0.47182  1.0000
  H   H1090     1.0  0.21980  0.56756  0.43873  1.0000
  C   C624      1.0  0.23675  0.65011  0.44252  1.0000
  H   H1091     1.0  0.13104  0.69070  0.98237  1.0000
  H   H1092     1.0  0.22475  0.60859  0.46515  1.0000
  H   H1093     1.0  0.19397  0.59750  0.44639  1.0000
  H   H1094     1.0  0.22813  0.73218  0.43823  1.0000
  C   C625      1.0  0.23506  0.57360  0.34606  1.0000
  S   S192      1.0  0.07042  0.72924  0.12579  1.0000
  H   H1095     1.0  0.20422  0.58373  0.46169  1.0000
  C   C626      1.0  0.08939  0.72827  0.05724  1.0000
  C   C627      1.0  0.23716  0.61346  0.18403  1.0000
  H   H1096     1.0  0.03031  0.72913  0.20140  1.0000
  Fe  Fe95      1.0  0.17139  0.73223  0.26157  1.0000
  H   H1097     1.0  0.11691  0.71503  0.95445  1.0000
  Fe  Fe96      1.0  0.13363  0.71629  0.89270  1.0000
  H   H1098     1.0  0.20629  0.60468  0.66995  1.0000
  H   H1099     1.0  0.05693  0.64377  0.72656  1.0000
  C   C628      1.0  0.22205  0.71538  0.96427  1.0000
  H   H1100     1.0  0.14712  0.61071  0.64528  1.0000
  C   C629      1.0  0.02463  0.67944  0.74764  1.0000
  H   H1101     1.0  0.00940  0.70451  0.74555  1.0000
  H   H1102     1.0  0.18817  0.67585  0.69659  1.0000
  H   H1103     1.0  0.18948  0.69669  0.72081  1.0000
  H   H1104     1.0  0.18568  0.58206  0.78848  1.0000
  H   H1105     1.0  0.18387  0.69755  0.94795  1.0000
  S   S193      1.0  0.13007  0.71587  0.62905  1.0000
  S   S194      1.0  0.14462  0.72747  0.84456  1.0000
  S   S195      1.0  0.19282  0.55422  0.65809  1.0000
  H   H1106     1.0  0.06852  0.71558  0.71421  1.0000
  C   C630      1.0  0.09760  0.71964  0.66836  1.0000
  H   H1107     1.0  0.09004  0.69647  0.67843  1.0000
  C   C631      1.0  0.08940  0.72024  0.84440  1.0000
  Fe  Fe97      1.0  0.05477  0.68756  0.77840  1.0000
  S   S196      1.0  0.04290  0.67473  0.80371  1.0000
  S   S197      1.0  0.06866  0.67447  0.75765  1.0000
  H   H1108     1.0  0.21422  0.68609  0.83690  1.0000
  Fe  Fe98      1.0  0.05155  0.69282  0.81250  1.0000
  Fe  Fe99      1.0  0.02014  0.69502  0.80046  1.0000
  S   S198      1.0  0.03149  0.70643  0.77447  1.0000
  S   S199      1.0  0.15227  0.72424  0.65967  1.0000
  H   H1109     1.0  0.18801  0.65597  0.76906  1.0000
  S   S200      1.0  0.12772  0.70191  0.87738  1.0000
  H   H1110     1.0  0.17961  0.62115  0.82342  1.0000
  H   H1111     1.0  0.16152  0.62230  0.65834  1.0000
  C   C632      1.0  0.17087  0.66859  0.94834  1.0000
  Fe  Fe100     1.0  0.23084  0.50143  0.64341  1.0000
  Fe  Fe101     1.0  0.15323  0.70348  0.86146  1.0000
  S   S201      1.0  0.17099  0.68159  0.85192  1.0000
  Fe  Fe102     1.0  0.23339  0.66711  0.52576  1.0000
  C   C633      1.0  0.19109  0.62385  0.81454  1.0000
  C   C634      1.0  0.00861  0.69194  0.75341  1.0000
  Fe  Fe103     1.0  0.14700  0.62569  0.70548  1.0000
  S   S202      1.0  0.14654  0.61052  0.73135  1.0000
  S   S203      1.0  0.12652  0.62837  0.69288  1.0000
  Fe  Fe104     1.0  0.18065  0.63319  0.70152  1.0000
  S   S204      1.0  0.18274  0.61931  0.72732  1.0000
  S   S205      1.0  0.20184  0.64232  0.68246  1.0000
  Fe  Fe105     1.0  0.17344  0.59997  0.72159  1.0000
  S   S206      1.0  0.18818  0.57364  0.72510  1.0000
  Fe  Fe106     1.0  0.15578  0.63141  0.73436  1.0000
  S   S207      1.0  0.14486  0.64315  0.75642  1.0000
  S   S208      1.0  0.17293  0.61322  0.69540  1.0000
  S   S209      1.0  0.15456  0.64732  0.70901  1.0000
  H   H1112     1.0  0.05268  0.71614  0.86001  1.0000
  S   S210      1.0  0.02767  0.71198  0.81176  1.0000
  H   H1113     1.0  0.99182  0.65750  0.74475  1.0000
  H   H1114     1.0  0.21699  0.61983  0.60703  1.0000
  H   H1115     1.0  0.13899  0.71511  0.78844  1.0000
  S   S211      1.0  0.20106  0.68751  0.77502  1.0000
  Fe  Fe107     1.0  0.23975  0.63145  0.77687  1.0000
  H   H1116     1.0  0.16337  0.63217  0.63702  1.0000
  C   C635      1.0  0.21725  0.64281  0.69196  1.0000
  H   H1117     1.0  0.06312  0.72291  0.89829  1.0000
  C   C636      1.0  0.20089  0.72542  0.64319  1.0000
  H   H1118     1.0  0.15593  0.62481  0.78572  1.0000
  C   C637      1.0  0.22529  0.64546  0.71585  1.0000
  C   C638      1.0  0.21316  0.64413  0.70851  1.0000
  C   C639      1.0  0.20838  0.72740  0.81808  1.0000
  N   N48       1.0  0.18656  0.61702  0.64352  1.0000
  H   H1119     1.0  0.22184  0.64702  0.72838  1.0000
  H   H1120     1.0  0.20047  0.64494  0.71543  1.0000
  C   C640      1.0  0.12966  0.64084  0.67292  1.0000
  C   C641      1.0  0.13950  0.65264  0.66862  1.0000
  C   C642      1.0  0.14189  0.66255  0.65257  1.0000
  C   C643      1.0  0.13513  0.66009  0.64059  1.0000
  C   C644      1.0  0.12544  0.64817  0.64485  1.0000
  C   C645      1.0  0.12245  0.63877  0.66109  1.0000
  H   H1121     1.0  0.14524  0.65418  0.67764  1.0000
  H   H1122     1.0  0.14937  0.67174  0.64937  1.0000
  H   H1123     1.0  0.12018  0.64625  0.63561  1.0000
  H   H1124     1.0  0.11488  0.62960  0.66439  1.0000
  C   C646      1.0  0.18032  0.68383  0.83065  1.0000
  C   C647      1.0  0.18944  0.66963  0.82461  1.0000
  C   C648      1.0  0.19618  0.67078  0.80759  1.0000
  C   C649      1.0  0.19381  0.68615  0.79648  1.0000
  C   C650      1.0  0.18491  0.70041  0.80252  1.0000
  C   C651      1.0  0.17834  0.69929  0.81959  1.0000
  H   H1125     1.0  0.19113  0.65765  0.83311  1.0000
  H   H1126     1.0  0.20291  0.65971  0.80303  1.0000
  H   H1127     1.0  0.18315  0.71235  0.79398  1.0000
  H   H1128     1.0  0.17167  0.71037  0.82410  1.0000
  C   C652      1.0  0.08969  0.66559  0.75785  1.0000
  C   C653      1.0  0.09695  0.66693  0.77002  1.0000
  C   C654      1.0  0.11391  0.65991  0.76965  1.0000
  C   C655      1.0  0.12359  0.65162  0.75709  1.0000
  C   C656      1.0  0.11624  0.65019  0.74505  1.0000
  C   C657      1.0  0.09932  0.65708  0.74549  1.0000
  H   H1129     1.0  0.08951  0.67325  0.77977  1.0000
  H   H1130     1.0  0.11949  0.66080  0.77912  1.0000
  H   H1131     1.0  0.12352  0.64363  0.73543  1.0000
  H   H1132     1.0  0.09367  0.65575  0.73627  1.0000
  C   C658      1.0  0.07464  0.69806  0.83728  1.0000
  C   C659      1.0  0.07319  0.71445  0.82812  1.0000
  H   H1133     1.0  0.21840  0.62122  0.62664  1.0000
  C   C660      1.0  0.13570  0.72532  0.95806  1.0000
  C   C661      1.0  0.09116  0.70375  0.85331  1.0000
  C   C662      1.0  0.08375  0.69272  0.84979  1.0000
  H   H1134     1.0  0.19572  0.63210  0.81937  1.0000
  H   H1135     1.0  0.09789  0.69960  0.86317  1.0000
  H   H1136     1.0  0.08486  0.68006  0.85694  1.0000
  H   H1137     1.0  0.04102  0.63508  0.78108  1.0000
  H   H1138     1.0  0.23135  0.59657  0.75194  1.0000
  H   H1139     1.0  0.03101  0.64504  0.79800  1.0000
  S   S212      1.0  0.99277  0.69385  0.80619  1.0000
  C   C663      1.0  0.19109  0.55764  0.67778  1.0000
  C   C664      1.0  0.17659  0.56780  0.68490  1.0000
  C   C665      1.0  0.17549  0.57218  0.69976  1.0000
  C   C666      1.0  0.18880  0.56621  0.70776  1.0000
  C   C667      1.0  0.20300  0.55528  0.70115  1.0000
  C   C668      1.0  0.20424  0.55115  0.68605  1.0000
  H   H1140     1.0  0.16629  0.57264  0.67870  1.0000
  H   H1141     1.0  0.16430  0.58025  0.70502  1.0000
  H   H1142     1.0  0.21325  0.55045  0.70739  1.0000
  H   H1143     1.0  0.21549  0.54328  0.68063  1.0000
  C   C669      1.0  0.20432  0.70551  0.86450  1.0000
  H   H1144     1.0  0.05221  0.65073  0.75374  1.0000
  H   H1145     1.0  0.18648  0.65244  0.75010  1.0000
  C   C670      1.0  0.18442  0.67965  0.97210  1.0000
  S   S213      1.0  0.20294  0.70975  0.59126  1.0000
  H   H1146     1.0  0.21347  0.59231  0.59806  1.0000
  H   H1147     1.0  0.16033  0.60976  0.81740  1.0000
  H   H1148     1.0  0.18261  0.64404  0.97144  1.0000
  H   H1149     1.0  0.22087  0.69428  0.81484  1.0000
  H   H1150     1.0  0.21083  0.58389  0.66728  1.0000
  C   C671      1.0  0.21385  0.70083  0.53931  1.0000
  C   C672      1.0  0.22653  0.69622  0.54806  1.0000
  H   H1151     1.0  0.23818  0.70297  0.66895  1.0000
  H   H1152     1.0  0.12964  0.72612  0.97073  1.0000
  H   H1153     1.0  0.14789  0.67588  0.96465  1.0000
  H   H1154     1.0  0.22356  0.56524  0.72644  1.0000
  C   C673      1.0  0.12337  0.70252  0.68889  1.0000
  H   H1155     1.0  0.19843  0.72966  0.95843  1.0000
  Fe  Fe108     1.0  0.15276  0.71760  0.63610  1.0000
  Fe  Fe109     1.0  0.14005  0.73156  0.60470  1.0000
  H   H1156     1.0  0.16867  0.67541  0.93584  1.0000
  C   C674      1.0  0.01036  0.65542  0.75852  1.0000
  H   H1157     1.0  0.19906  0.62595  0.76554  1.0000
  H   H1158     1.0  0.21937  0.58089  0.75570  1.0000
  H   H1159     1.0  0.08491  0.67422  0.70384  1.0000
  H   H1160     1.0  0.01864  0.63802  0.78890  1.0000
  H   H1161     1.0  0.01178  0.64208  0.76489  1.0000
  Fe  Fe110     1.0  0.22412  0.66800  0.76898  1.0000
  C   C675      1.0  0.16092  0.60696  0.64259  1.0000
  H   H1162     1.0  0.15735  0.64241  0.79125  1.0000
  H   H1163     1.0  0.03570  0.72430  0.89664  1.0000
  H   H1164     1.0  0.23692  0.68374  0.66483  1.0000
  H   H1165     1.0  0.21872  0.59932  0.65059  1.0000
  H   H1166     1.0  0.19486  0.71031  0.67677  1.0000
  C   C676      1.0  0.21091  0.71525  0.69575  1.0000
  H   H1167     1.0  0.18871  0.62748  0.61706  1.0000
  S   S214      1.0  0.06509  0.70404  0.78734  1.0000
  Fe  Fe111     1.0  0.14721  0.69459  0.61830  1.0000
  C   C677      1.0  0.02888  0.71826  0.85460  1.0000
  C   C678      1.0  0.19169  0.60038  0.65475  1.0000
  H   H1168     1.0  0.19355  0.70811  0.84368  1.0000
  H   H1169     1.0  0.18442  0.66653  0.94706  1.0000
  N   N49       1.0  0.13409  0.69637  0.81122  1.0000
  C   C679      1.0  0.13378  0.69485  0.82922  1.0000
  H   H1170     1.0  0.08799  0.72720  0.67654  1.0000
  C   C680      1.0  0.14803  0.68282  0.80505  1.0000
  C   C681      1.0  0.11753  0.69420  0.81023  1.0000
  C   C682      1.0  0.13266  0.67764  0.84077  1.0000
  C   C683      1.0  0.15540  0.68559  0.78625  1.0000
  C   C684      1.0  0.08049  0.72551  0.83174  1.0000
  H   H1171     1.0  0.14507  0.69804  0.83045  1.0000
  H   H1172     1.0  0.12316  0.70388  0.83476  1.0000
  H   H1173     1.0  0.20091  0.68036  0.67589  1.0000
  H   H1174     1.0  0.14452  0.70215  0.69835  1.0000
  H   H1175     1.0  0.15879  0.68076  0.81080  1.0000
  H   H1176     1.0  0.14408  0.67071  0.80889  1.0000
  H   H1177     1.0  0.22880  0.48910  0.72058  1.0000
  H   H1178     1.0  0.21681  0.69733  0.86379  1.0000
  H   H1179     1.0  0.12096  0.67398  0.84157  1.0000
  H   H1180     1.0  0.14357  0.66781  0.83719  1.0000
  H   H1181     1.0  0.13267  0.67828  0.85350  1.0000
  H   H1182     1.0  0.14601  0.68787  0.77884  1.0000
  H   H1183     1.0  0.16474  0.67427  0.78366  1.0000
  H   H1184     1.0  0.20038  0.67739  0.71582  1.0000
  H   H1185     1.0  0.19069  0.72648  0.85021  1.0000
  H   H1186     1.0  0.19352  0.66950  0.96675  1.0000
  H   H1187     1.0  0.23505  0.70022  0.84143  1.0000
  H   H1188     1.0  0.17908  0.62567  0.76339  1.0000
  H   H1189     1.0  0.22928  0.71989  0.86068  1.0000
  C   C685      1.0  0.16791  0.62048  0.64557  1.0000
  N   N50       1.0  0.23906  0.58314  0.72209  1.0000
  H   H1190     1.0  0.21975  0.60105  0.62283  1.0000
  C   C686      1.0  0.13266  0.69775  0.70314  1.0000
  S   S215      1.0  0.21925  0.52516  0.62771  1.0000
  S   S216      1.0  0.15991  0.71525  0.87832  1.0000
  H   H1191     1.0  0.19189  0.60579  0.62244  1.0000
  H   H1192     1.0  0.23355  0.49948  0.69909  1.0000
  H   H1193     1.0  0.20344  0.62820  0.64990  1.0000
  H   H1194     1.0  0.00876  0.72125  0.88724  1.0000
  C   C687      1.0  0.22580  0.49121  0.70832  1.0000
  Fe  Fe112     1.0  0.11948  0.72684  0.86141  1.0000
  S   S217      1.0  0.12627  0.71102  0.92083  1.0000
  C   C688      1.0  0.19037  0.63083  0.64870  1.0000
  C   C689      1.0  0.18764  0.64813  0.63704  1.0000
  H   H1195     1.0  0.99737  0.65800  0.81271  1.0000
  S   S218      1.0  0.22310  0.61686  0.56921  1.0000
  H   H1196     1.0  0.18417  0.71267  0.63982  1.0000
  C   C690      1.0  0.15814  0.72995  0.93424  1.0000
  N   N51       1.0  0.18057  0.62421  0.78862  1.0000
  H   H1197     1.0  0.22471  0.60812  0.72358  1.0000
  N   N52       1.0  0.17872  0.66545  0.56784  1.0000
  C   C691      1.0  0.18933  0.67352  0.57330  1.0000
  C   C692      1.0  0.17417  0.67680  0.55214  1.0000
  C   C693      1.0  0.18916  0.64886  0.56453  1.0000
  C   C694      1.0  0.16368  0.66322  0.58165  1.0000
  C   C695      1.0  0.19641  0.66355  0.58867  1.0000
  C   C696      1.0  0.16205  0.69354  0.55414  1.0000
  C   C697      1.0  0.18431  0.64115  0.55278  1.0000
  C   C698      1.0  0.15010  0.65685  0.57813  1.0000
  H   H1198     1.0  0.20017  0.67619  0.56310  1.0000
  H   H1199     1.0  0.18230  0.68565  0.57632  1.0000
  H   H1200     1.0  0.16824  0.67092  0.54600  1.0000
  H   H1201     1.0  0.18561  0.67952  0.54282  1.0000
  H   H1202     1.0  0.20236  0.64981  0.55889  1.0000
  H   H1203     1.0  0.18945  0.63937  0.57634  1.0000
  H   H1204     1.0  0.16737  0.65422  0.59277  1.0000
  H   H1205     1.0  0.15770  0.67491  0.58619  1.0000
  H   H1206     1.0  0.20453  0.67059  0.59076  1.0000
  H   H1207     1.0  0.18639  0.66226  0.59999  1.0000
  H   H1208     1.0  0.20423  0.65120  0.58701  1.0000
  H   H1209     1.0  0.14972  0.69179  0.56197  1.0000
  H   H1210     1.0  0.16698  0.70130  0.55918  1.0000
  H   H1211     1.0  0.16001  0.70083  0.54174  1.0000
  H   H1212     1.0  0.17114  0.64022  0.55632  1.0000
  H   H1213     1.0  0.19193  0.62830  0.55312  1.0000
  H   H1214     1.0  0.18730  0.64809  0.53974  1.0000
  H   H1215     1.0  0.15254  0.64305  0.58143  1.0000
  H   H1216     1.0  0.14850  0.66132  0.56523  1.0000
  H   H1217     1.0  0.13789  0.66174  0.58582  1.0000
  H   H1218     1.0  0.15270  0.63117  0.81954  1.0000
  C   C699      1.0  0.09801  0.66893  0.69870  1.0000
  Fe  Fe113     1.0  0.21638  0.53669  0.64915  1.0000
  H   H1219     1.0  0.01596  0.66876  0.78085  1.0000
  H   H1220     1.0  0.13218  0.69732  0.67837  1.0000
  C   C700      1.0  0.22123  0.59338  0.74850  1.0000
  H   H1221     1.0  0.00696  0.69299  0.76633  1.0000
  H   H1222     1.0  0.02314  0.73005  0.84716  1.0000
  H   H1223     1.0  0.18550  0.60010  0.80556  1.0000
  H   H1224     1.0  0.22689  0.56306  0.60840  1.0000
  C   C701      1.0  0.18175  0.64959  0.76374  1.0000
  C   C702      1.0  0.16032  0.67909  0.96109  1.0000
  C   C703      1.0  0.22284  0.68788  0.68921  1.0000
  H   H1225     1.0  0.17490  0.65251  0.63476  1.0000
  H   H1226     1.0  0.21400  0.72170  0.68251  1.0000
  H   H1227     1.0  0.13601  0.68412  0.70781  1.0000
  H   H1228     1.0  0.23206  0.71642  0.96955  1.0000
  H   H1229     1.0  0.11097  0.69435  0.66779  1.0000
  C   C704      1.0  0.13586  0.71865  0.93212  1.0000
  C   C705      1.0  0.18732  0.60565  0.79212  1.0000
  H   H1230     1.0  0.07228  0.70325  0.69980  1.0000
  H   H1231     1.0  0.20323  0.71830  0.81504  1.0000
  H   H1232     1.0  0.03762  0.66656  0.77385  1.0000
  S   S219      1.0  0.16902  0.69476  0.62769  1.0000
  Fe  Fe114     1.0  0.17583  0.71229  0.60347  1.0000
  H   H1233     1.0  0.18122  0.64544  0.79746  1.0000
  C   C706      1.0  0.18549  0.63051  0.77011  1.0000
  H   H1234     1.0  0.23302  0.69564  0.57072  1.0000
  C   C707      1.0  0.22427  0.69096  0.82707  1.0000
  H   H1235     1.0  0.20109  0.60286  0.78745  1.0000
  H   H1236     1.0  0.02553  0.68076  0.73427  1.0000
  H   H1237     1.0  0.04000  0.63715  0.75349  1.0000
  C   C708      1.0  0.18536  0.72164  0.64586  1.0000
  H   H1238     1.0  0.21262  0.49802  0.70934  1.0000
  H   H1239     1.0  0.01917  0.71114  0.86179  1.0000
  H   H1240     1.0  0.12271  0.67233  0.69363  1.0000
  C   C709      1.0  0.19671  0.72754  0.70445  1.0000
  S   S220      1.0  0.21614  0.69217  0.52234  1.0000
  C   C710      1.0  0.02958  0.64368  0.78601  1.0000
  H   H1241     1.0  0.16824  0.65504  0.76599  1.0000
  C   C711      1.0  0.04120  0.65037  0.74940  1.0000
  C   C712      1.0  0.19529  0.71414  0.56116  1.0000
  H   H1242     1.0  0.10043  0.70138  0.79371  1.0000
  H   H1243     1.0  0.10095  0.65596  0.70590  1.0000
  Fe  Fe115     1.0  0.23686  0.63173  0.54606  1.0000
  C   C713      1.0  0.10141  0.70104  0.67688  1.0000
  H   H1244     1.0  0.18114  0.70695  0.69609  1.0000
  H   H1245     1.0  0.22128  0.67507  0.69091  1.0000
  C   C714      1.0  0.23271  0.57011  0.59677  1.0000
  C   C715      1.0  0.20035  0.71526  0.84758  1.0000
  S   S221      1.0  0.13942  0.67114  0.62007  1.0000
  S   S222      1.0  0.06457  0.68426  0.83396  1.0000
  H   H1246     1.0  0.09482  0.71997  0.70178  1.0000
  H   H1247     1.0  0.15776  0.69233  0.95437  1.0000
  C   C716      1.0  0.20753  0.70819  0.57054  1.0000
  C   C717      1.0  0.12846  0.71915  0.94879  1.0000
  H   H1248     1.0  0.21261  0.59317  0.72747  1.0000
  S   S223      1.0  0.22580  0.51269  0.66549  1.0000
  C   C718      1.0  0.11408  0.69727  0.79286  1.0000
  H   H1249     1.0  0.19682  0.64836  0.62508  1.0000
  C   C719      1.0  0.13741  0.71330  0.80199  1.0000
  S   S224      1.0  0.15536  0.71010  0.59321  1.0000
  H   H1250     1.0  0.03546  0.68403  0.74811  1.0000
  C   C720      1.0  0.00547  0.65653  0.74223  1.0000
  H   H1251     1.0  0.21155  0.71926  0.63523  1.0000
  C   C721      1.0  0.20925  0.73199  0.96156  1.0000
  C   C722      1.0  0.22338  0.69991  0.56367  1.0000
  H   H1252     1.0  0.16411  0.59469  0.65094  1.0000
  H   H1253     1.0  0.21578  0.59170  0.70106  1.0000
  H   H1254     1.0  0.11848  0.68570  0.78804  1.0000
  H   H1255     1.0  0.11583  0.68135  0.81641  1.0000
  C   C723      1.0  0.06073  0.72660  0.88558  1.0000
  H   H1256     1.0  0.03654  0.65505  0.72420  1.0000
  C   C724      1.0  0.07685  0.70426  0.71022  1.0000
  C   C725      1.0  0.23252  0.59589  0.57581  1.0000
  H   H1257     1.0  0.14112  0.62073  0.81255  1.0000
  C   C726      1.0  0.22512  0.58668  0.59091  1.0000
  C   C727      1.0  0.09498  0.70639  0.70551  1.0000
  H   H1258     1.0  0.07517  0.69338  0.72065  1.0000
  C   C728      1.0  0.11028  0.67855  0.69996  1.0000
  S   S225      1.0  0.22399  0.64652  0.75899  1.0000
  H   H1259     1.0  0.16495  0.60568  0.62952  1.0000
  H   H1260     1.0  0.18320  0.72105  0.56620  1.0000
  H   H1261     1.0  0.10710  0.70198  0.81750  1.0000
  C   C729      1.0  0.19446  0.61645  0.62565  1.0000
  Fe  Fe116     1.0  0.04063  0.72176  0.78586  1.0000
  C   C730      1.0  0.21384  0.68794  0.72638  1.0000
  C   C731      1.0  0.20194  0.69008  0.71500  1.0000
  N   N53       1.0  0.10707  0.69710  0.69293  1.0000
  H   H1262     1.0  0.17919  0.68908  0.67982  1.0000
  H   H1263     1.0  0.18284  0.63210  0.66129  1.0000
  S   S226      1.0  0.23808  0.65250  0.78846  1.0000
  H   H1264     1.0  0.03702  0.71074  0.84557  1.0000
  H   H1265     1.0  0.23137  0.59107  0.68233  1.0000
  H   H1266     1.0  0.06620  0.71867  0.81845  1.0000
  C   C732      1.0  0.20789  0.59713  0.66077  1.0000
  H   H1267     1.0  0.18191  0.59852  0.66630  1.0000
  C   C733      1.0  0.02710  0.66105  0.77436  1.0000
  C   C734      1.0  0.18761  0.69594  0.95974  1.0000
  H   H1268     1.0  0.16630  0.59674  0.78980  1.0000
  H   H1269     1.0  0.19283  0.58999  0.64877  1.0000
  H   H1270     1.0  0.20088  0.61225  0.81446  1.0000
  H   H1271     1.0  0.11159  0.72813  0.80561  1.0000
  H   H1272     1.0  0.21573  0.69997  0.72718  1.0000
  H   H1273     1.0  0.09914  0.70250  0.71743  1.0000
  N   N54       1.0  0.20723  0.69862  0.69716  1.0000
  H   H1274     1.0  0.11078  0.67583  0.71326  1.0000
  C   C735      1.0  0.12402  0.72833  0.80696  1.0000
  C   C736      1.0  0.04663  0.65408  0.73034  1.0000
  H   H1275     1.0  0.20114  0.63391  0.78948  1.0000
  S   S227      1.0  0.22652  0.64455  0.52328  1.0000
  C   C737      1.0  0.19318  0.70124  0.68870  1.0000
  H   H1276     1.0  0.14945  0.71458  0.80358  1.0000
  C   C738      1.0  0.17989  0.59544  0.78484  1.0000
  C   C739      1.0  0.15078  0.72402  0.92490  1.0000
  N   N55       1.0  0.02568  0.66160  0.75709  1.0000
  H   H1277     1.0  0.19566  0.69693  0.87057  1.0000
  C   C740      1.0  0.23579  0.56581  0.72818  1.0000
  H   H1278     1.0  0.22010  0.70095  0.66359  1.0000
  H   H1279     1.0  0.23539  0.68059  0.82636  1.0000
  H   H1280     1.0  0.18959  0.65732  0.64288  1.0000
  H   H1281     1.0  0.09953  0.66802  0.68571  1.0000
  H   H1282     1.0  0.05168  0.66556  0.72566  1.0000
  C   C741      1.0  0.15380  0.62223  0.81186  1.0000
  H   H1283     1.0  0.22953  0.57221  0.69721  1.0000
  H   H1284     1.0  0.12157  0.71628  0.68473  1.0000
  H   H1285     1.0  0.18254  0.59859  0.77112  1.0000
  C   C742      1.0  0.16186  0.62868  0.79364  1.0000
  C   C743      1.0  0.18848  0.63257  0.79689  1.0000
  H   H1286     1.0  0.15665  0.72364  0.91211  1.0000
  H   H1287     1.0  0.19790  0.60650  0.47752  1.0000
  C   C744      1.0  0.22416  0.59494  0.72966  1.0000
  H   H1288     1.0  0.20826  0.68192  0.73915  1.0000
  H   H1289     1.0  0.23182  0.72411  0.58553  1.0000
  C   C745      1.0  0.19852  0.71057  0.54544  1.0000
  H   H1290     1.0  0.09263  0.72099  0.65730  1.0000
  H   H1291     1.0  0.18885  0.71454  0.53846  1.0000
  H   H1292     1.0  0.99935  0.66162  0.76677  1.0000
  C   C746      1.0  0.22985  0.69442  0.67065  1.0000
  H   H1293     1.0  0.22224  0.71374  0.70043  1.0000
  C   C747      1.0  0.21349  0.61442  0.62049  1.0000
  H   H1294     1.0  0.11936  0.70738  0.78369  1.0000
  H   H1295     1.0  0.23314  0.68616  0.69546  1.0000
  H   H1296     1.0  0.99735  0.68891  0.75201  1.0000
  H   H1297     1.0  0.10896  0.72483  0.66377  1.0000
  C   C748      1.0  0.22867  0.58565  0.69583  1.0000
  C   C749      1.0  0.03937  0.71972  0.86602  1.0000
  H   H1298     1.0  0.16724  0.65643  0.95123  1.0000
  C   C750      1.0  0.15058  0.73075  0.95078  1.0000
  C   C751      1.0  0.23355  0.64263  0.68282  1.0000
  H   H1299     1.0  0.12336  0.72932  0.81970  1.0000
  H   H1300     1.0  0.20270  0.71414  0.87267  1.0000
  H   H1301     1.0  0.21206  0.72071  0.93277  1.0000
  C   C752      1.0  0.23350  0.72795  0.84863  1.0000
  H   H1302     1.0  0.06557  0.71542  0.88017  1.0000
  H   H1303     1.0  0.21882  0.73024  0.80740  1.0000
  N   N56       1.0  0.21464  0.72021  0.83392  1.0000
  H   H1304     1.0  0.18545  0.73072  0.69928  1.0000
  H   H1305     1.0  0.23672  0.64173  0.66997  1.0000
  C   C753      1.0  0.19040  0.68559  0.68520  1.0000
  H   H1306     1.0  0.01193  0.64526  0.73715  1.0000
  H   H1307     1.0  0.23868  0.68948  0.54295  1.0000
  H   H1308     1.0  0.20968  0.60238  0.75240  1.0000
  H   H1309     1.0  0.22602  0.67967  0.72264  1.0000
  S   S228      1.0  0.23387  0.60680  0.79073  1.0000
  H   H1310     1.0  0.19353  0.72285  0.71805  1.0000
  H   H1311     1.0  0.00775  0.66776  0.73265  1.0000
  H   H1312     1.0  0.03733  0.70968  0.87732  1.0000
  H   H1313     1.0  0.23456  0.56182  0.74183  1.0000
  C   C754      1.0  0.17162  0.72909  0.65658  1.0000
  H   H1314     1.0  0.22956  0.64793  0.48409  1.0000
  H   H1315     1.0  0.23694  0.68870  0.48608  1.0000
  C   C755      1.0  0.22879  0.70558  0.83089  1.0000
  H   H1316     1.0  0.23801  0.63475  0.58603  1.0000
  H   H1317     1.0  0.20114  0.69566  0.95658  1.0000
  H   H1318     1.0  0.23872  0.71324  0.78483  1.0000
  H   H1319     1.0  0.23879  0.70970  0.82042  1.0000
  H   H1320     1.0  0.16228  0.69582  0.78192  1.0000
  H   H1321     1.0  0.21568  0.70584  0.97338  1.0000
  H   H1322     1.0  0.22773  0.71069  0.95275  1.0000
  H   H1323     1.0  0.23940  0.71727  0.61144  1.0000
  H   H1324     1.0  0.12551  0.70387  0.71353  1.0000
  H   H1325     1.0  0.18136  0.70694  0.96519  1.0000
  S   S229      1.0  0.07733  0.81762  0.19541  1.0000
  Fe  Fe117     1.0  0.07435  0.79306  0.24085  1.0000
  S   S230      1.0  0.09816  0.79054  0.22182  1.0000
  S   S231      1.0  0.07132  0.77869  0.26710  1.0000
  Fe  Fe118     1.0  0.09108  0.81840  0.21407  1.0000
  S   S232      1.0  0.11026  0.83440  0.20728  1.0000
  Fe  Fe119     1.0  0.08217  0.78991  0.20529  1.0000
  S   S233      1.0  0.08955  0.76857  0.19221  1.0000
  S   S234      1.0  0.06837  0.82087  0.23456  1.0000
  S   S235      1.0  0.05882  0.79053  0.22502  1.0000
  Fe  Fe120     1.0  0.13447  0.89346  0.24855  1.0000
  S   S236      1.0  0.16027  0.88502  0.23422  1.0000
  S   S237      1.0  0.11332  0.88038  0.25284  1.0000
  Fe  Fe121     1.0  0.14449  0.92070  0.25861  1.0000
  S   S238      1.0  0.17091  0.91392  0.24529  1.0000
  Fe  Fe122     1.0  0.16020  0.91233  0.22496  1.0000
  S   S239      1.0  0.17042  0.92653  0.19956  1.0000
  Fe  Fe123     1.0  0.16848  0.88748  0.25590  1.0000
  S   S240      1.0  0.19011  0.86927  0.26531  1.0000
  S   S241      1.0  0.13366  0.92073  0.23758  1.0000
  S   S242      1.0  0.14274  0.89423  0.27104  1.0000
  H   H1326     1.0  0.18841  0.79355  0.98530  1.0000
  H   H1327     1.0  0.00010  0.77403  0.11553  1.0000
  H   H1328     1.0  0.99162  0.79959  0.16318  1.0000
  H   H1329     1.0  0.22631  0.78179  0.31110  1.0000
  S   S243      1.0  0.20493  0.79704  0.36612  1.0000
  S   S244      1.0  0.21564  0.76093  0.34317  1.0000
  Fe  Fe124     1.0  0.20334  0.82084  0.34669  1.0000
  S   S245      1.0  0.17947  0.83871  0.34229  1.0000
  H   H1330     1.0  0.13096  0.73862  0.20721  1.0000
  H   H1331     1.0  0.20245  0.94624  0.19880  1.0000
  C   C756      1.0  0.00416  0.78603  0.11082  1.0000
  H   H1332     1.0  0.15023  0.76871  0.32414  1.0000
  H   H1333     1.0  0.19201  0.80083  0.30556  1.0000
  Fe  Fe125     1.0  0.19105  0.74638  0.27636  1.0000
  C   C757      1.0  0.04237  0.86962  0.22998  1.0000
  H   H1334     1.0  0.03470  0.89725  0.20732  1.0000
  H   H1335     1.0  0.22865  0.78333  0.01786  1.0000
  H   H1336     1.0  0.16443  0.84842  0.23243  1.0000
  S   S246      1.0  0.04400  0.76770  0.14575  1.0000
  Fe  Fe126     1.0  0.05506  0.81821  0.21664  1.0000
  H   H1337     1.0  0.17204  0.78044  0.30903  1.0000
  H   H1338     1.0  0.17576  0.77313  0.35097  1.0000
  H   H1339     1.0  0.16641  0.79596  0.99187  1.0000
  S   S247      1.0  0.21623  0.80841  0.32550  1.0000
  H   H1340     1.0  0.21231  0.81994  0.28889  1.0000
  C   C758      1.0  0.07662  0.74148  0.24692  1.0000
  H   H1341     1.0  0.15314  0.79673  0.27710  1.0000
  H   H1342     1.0  0.10527  0.73592  0.20837  1.0000
  C   C759      1.0  0.17635  0.80060  0.26078  1.0000
  C   C760      1.0  0.15770  0.80724  0.26761  1.0000
  C   C761      1.0  0.16977  0.79886  0.35087  1.0000
  H   H1343     1.0  0.14097  0.78989  0.25975  1.0000
  H   H1344     1.0  0.18255  0.79429  0.27133  1.0000
  H   H1345     1.0  0.15716  0.79358  0.24266  1.0000
  H   H1346     1.0  0.15695  0.81667  0.27464  1.0000
  C   C762      1.0  0.20704  0.75557  0.01742  1.0000
  N   N57       1.0  0.14688  0.81418  0.25504  1.0000
  C   C763      1.0  0.13332  0.80431  0.23699  1.0000
  C   C764      1.0  0.15791  0.84121  0.24407  1.0000
  C   C765      1.0  0.20062  0.76174  0.04471  1.0000
  C   C766      1.0  0.19820  0.75335  0.03390  1.0000
  C   C767      1.0  0.06324  0.88683  0.21862  1.0000
  H   H1347     1.0  0.15253  0.83036  0.98819  1.0000
  H   H1348     1.0  0.07405  0.85463  0.21703  1.0000
  H   H1349     1.0  0.18131  0.82845  0.00409  1.0000
  H   H1350     1.0  0.17160  0.79676  0.36363  1.0000
  C   C768      1.0  0.21711  0.75947  0.32288  1.0000
  C   C769      1.0  0.22205  0.77186  0.30933  1.0000
  C   C770      1.0  0.22114  0.77159  0.29340  1.0000
  C   C771      1.0  0.21542  0.75883  0.29101  1.0000
  H   H1351     1.0  0.18480  0.92285  0.12418  1.0000
  C   C772      1.0  0.02158  0.75406  0.18872  1.0000
  H   H1352     1.0  0.21763  0.84300  0.23487  1.0000
  H   H1353     1.0  0.01669  0.73762  0.24237  1.0000
  H   H1354     1.0  0.02304  0.80861  0.13808  1.0000
  H   H1355     1.0  0.12863  0.79184  0.32064  1.0000
  H   H1356     1.0  0.12509  0.80438  0.28596  1.0000
  H   H1357     1.0  0.18276  0.81077  0.25335  1.0000
  C   C773      1.0  0.14494  0.79990  0.24919  1.0000
  C   C774      1.0  0.18667  0.91406  0.18798  1.0000
  C   C775      1.0  0.19782  0.92146  0.17456  1.0000
  C   C776      1.0  0.21108  0.91153  0.16546  1.0000
  C   C777      1.0  0.21299  0.89422  0.16965  1.0000
  C   C778      1.0  0.20168  0.88687  0.18283  1.0000
  C   C779      1.0  0.18860  0.89678  0.19204  1.0000
  H   H1358     1.0  0.19634  0.93484  0.17136  1.0000
  H   H1359     1.0  0.21980  0.91726  0.15526  1.0000
  H   H1360     1.0  0.20309  0.87350  0.18602  1.0000
  H   H1361     1.0  0.17991  0.89103  0.20214  1.0000
  C   C780      1.0  0.17734  0.95872  0.26676  1.0000
  C   C781      1.0  0.16655  0.94901  0.26665  1.0000
  H   H1362     1.0  0.19062  0.95371  0.26456  1.0000
  H   H1363     1.0  0.17151  0.93662  0.26440  1.0000
  C   C782      1.0  0.18665  0.86102  0.28674  1.0000
  C   C783      1.0  0.20019  0.85576  0.29441  1.0000
  C   C784      1.0  0.19793  0.84900  0.31146  1.0000
  C   C785      1.0  0.18209  0.84746  0.32097  1.0000
  C   C786      1.0  0.16845  0.85289  0.31339  1.0000
  C   C787      1.0  0.17074  0.85956  0.29624  1.0000
  H   H1364     1.0  0.21247  0.85714  0.28722  1.0000
  H   H1365     1.0  0.20846  0.84522  0.31729  1.0000
  H   H1366     1.0  0.15616  0.85174  0.32073  1.0000
  H   H1367     1.0  0.16025  0.86345  0.29037  1.0000
  C   C788      1.0  0.07641  0.76823  0.17984  1.0000
  C   C789      1.0  0.06436  0.78227  0.17522  1.0000
  C   C790      1.0  0.05450  0.78197  0.16474  1.0000
  C   C791      1.0  0.05652  0.76759  0.15895  1.0000
  H   H1368     1.0  0.15384  0.78030  0.02535  1.0000
  C   C792      1.0  0.07826  0.75374  0.17428  1.0000
  H   H1369     1.0  0.06296  0.79350  0.17937  1.0000
  H   H1370     1.0  0.04538  0.79297  0.16099  1.0000
  H   H1371     1.0  0.01905  0.78206  0.12843  1.0000
  N   N58       1.0  0.05411  0.87631  0.21433  1.0000
  C   C793      1.0  0.08832  0.77630  0.27577  1.0000
  C   C794      1.0  0.08547  0.77810  0.29206  1.0000
  C   C795      1.0  0.09890  0.77588  0.29933  1.0000
  C   C796      1.0  0.11517  0.77103  0.29063  1.0000
  C   C797      1.0  0.11804  0.76879  0.27447  1.0000
  C   C798      1.0  0.10464  0.77199  0.26685  1.0000
  H   H1372     1.0  0.07286  0.78141  0.29899  1.0000
  H   H1373     1.0  0.09664  0.77757  0.31183  1.0000
  H   H1374     1.0  0.13060  0.76485  0.26775  1.0000
  H   H1375     1.0  0.99122  0.75343  0.15427  1.0000
  C   C799      1.0  0.11072  0.84742  0.21989  1.0000
  C   C800      1.0  0.12292  0.85700  0.21474  1.0000
  C   C801      1.0  0.12386  0.86722  0.22465  1.0000
  C   C802      1.0  0.11241  0.86813  0.23970  1.0000
  C   C803      1.0  0.10003  0.85877  0.24472  1.0000
  C   C804      1.0  0.09935  0.84826  0.23499  1.0000
  H   H1376     1.0  0.13179  0.85641  0.20308  1.0000
  H   H1377     1.0  0.13340  0.87443  0.22062  1.0000
  H   H1378     1.0  0.09122  0.85929  0.25642  1.0000
  H   H1379     1.0  0.09026  0.84057  0.23935  1.0000
  C   C805      1.0  0.15456  0.82599  0.24025  1.0000
  H   H1380     1.0  0.15703  0.81908  0.04004  1.0000
  C   C806      1.0  0.22013  0.77509  0.02241  1.0000
  H   H1381     1.0  0.13206  0.83234  0.26963  1.0000
  H   H1382     1.0  0.03942  0.80952  0.19561  1.0000
  H   H1383     1.0  0.02327  0.74906  0.17761  1.0000
  H   H1384     1.0  0.15461  0.78067  0.36028  1.0000
  H   H1385     1.0  0.16639  0.81942  0.23331  1.0000
  N   N59       1.0  0.20577  0.89382  0.11003  1.0000
  C   C807      1.0  0.21109  0.88695  0.09447  1.0000
  C   C808      1.0  0.21965  0.88638  0.11922  1.0000
  C   C809      1.0  0.20426  0.91240  0.10466  1.0000
  C   C810      1.0  0.18945  0.88938  0.11988  1.0000
  H   H1386     1.0  0.10564  0.73633  0.26529  1.0000
  H   H1387     1.0  0.23179  0.88814  0.11078  1.0000
  C   C811      1.0  0.19813  0.92246  0.11839  1.0000
  C   C812      1.0  0.18414  0.89090  0.13828  1.0000
  H   H1388     1.0  0.99475  0.74146  0.21862  1.0000
  H   H1389     1.0  0.21317  0.87318  0.09747  1.0000
  H   H1390     1.0  0.21865  0.89300  0.12889  1.0000
  C   C813      1.0  0.14898  0.80786  0.01897  1.0000
  H   H1391     1.0  0.20555  0.91816  0.12804  1.0000
  H   H1392     1.0  0.00963  0.76132  0.14597  1.0000
  H   H1393     1.0  0.17915  0.89722  0.11381  1.0000
  H   H1394     1.0  0.18957  0.87634  0.11982  1.0000
  H   H1395     1.0  0.20916  0.73617  0.33062  1.0000
  H   H1396     1.0  0.01402  0.81328  0.15803  1.0000
  H   H1397     1.0  0.21933  0.82384  0.25960  1.0000
  H   H1398     1.0  0.09315  0.75229  0.22555  1.0000
  H   H1399     1.0  0.22325  0.88989  0.08701  1.0000
  H   H1400     1.0  0.20386  0.88561  0.07270  1.0000
  H   H1401     1.0  0.20839  0.73528  0.30234  1.0000
  H   H1402     1.0  0.21648  0.91528  0.09725  1.0000
  H   H1403     1.0  0.01434  0.76538  0.24120  1.0000
  H   H1404     1.0  0.17218  0.90008  0.14037  1.0000
  H   H1405     1.0  0.19316  0.89461  0.14282  1.0000
  H   H1406     1.0  0.18190  0.87882  0.14646  1.0000
  H   H1407     1.0  0.16793  0.79796  0.04258  1.0000
  C   C814      1.0  0.01627  0.73823  0.22937  1.0000
  H   H1408     1.0  0.01796  0.77083  0.21020  1.0000
  H   H1409     1.0  0.22484  0.76822  0.99897  1.0000
  Fe  Fe127     1.0  0.22922  0.83605  0.01785  1.0000
  S   S248      1.0  0.22934  0.88156  0.15850  1.0000
  H   H1410     1.0  0.12391  0.74923  0.24037  1.0000
  H   H1411     1.0  0.12825  0.79331  0.23812  1.0000
  C   C815      1.0  0.21258  0.74606  0.32027  1.0000
  H   H1412     1.0  0.17239  0.96528  0.19437  1.0000
  H   H1413     1.0  0.18976  0.74492  0.03842  1.0000
  H   H1414     1.0  0.12906  0.81341  0.31425  1.0000
  C   C816      1.0  0.17414  0.78531  0.31889  1.0000
  H   H1415     1.0  0.23243  0.84272  0.21573  1.0000
  H   H1416     1.0  0.19523  0.80815  0.02860  1.0000
  H   H1417     1.0  0.14006  0.80809  0.22399  1.0000
  H   H1418     1.0  0.03650  0.76417  0.23797  1.0000
  H   H1419     1.0  0.16594  0.83774  0.25315  1.0000
  N   N60       1.0  0.16889  0.91161  0.31139  1.0000
  C   C817      1.0  0.15658  0.92809  0.31122  1.0000
  C   C818      1.0  0.16240  0.90113  0.30415  1.0000
  C   C819      1.0  0.18520  0.91502  0.30030  1.0000
  C   C820      1.0  0.17079  0.90381  0.32902  1.0000
  C   C821      1.0  0.16210  0.94184  0.31548  1.0000
  C   C822      1.0  0.14436  0.89916  0.31223  1.0000
  C   C823      1.0  0.19931  0.89982  0.29735  1.0000
  C   C824      1.0  0.17547  0.88462  0.33383  1.0000
  H   H1420     1.0  0.15330  0.93319  0.29891  1.0000
  H   H1421     1.0  0.14460  0.92654  0.32011  1.0000
  H   H1422     1.0  0.17031  0.88847  0.30476  1.0000
  H   H1423     1.0  0.16292  0.90644  0.29066  1.0000
  H   H1424     1.0  0.18322  0.92240  0.28789  1.0000
  H   H1425     1.0  0.19043  0.92271  0.30526  1.0000
  H   H1426     1.0  0.18025  0.90856  0.33200  1.0000
  H   H1427     1.0  0.15908  0.90745  0.33809  1.0000
  H   H1428     1.0  0.15122  0.95229  0.31739  1.0000
  H   H1429     1.0  0.16694  0.93737  0.32698  1.0000
  H   H1430     1.0  0.17150  0.94714  0.30506  1.0000
  H   H1431     1.0  0.07393  0.74021  0.26055  1.0000
  H   H1432     1.0  0.14214  0.88843  0.30888  1.0000
  H   H1433     1.0  0.14623  0.79860  0.30561  1.0000
  H   H1434     1.0  0.19575  0.89094  0.29245  1.0000
  H   H1435     1.0  0.20427  0.89353  0.30864  1.0000
  H   H1436     1.0  0.20984  0.90421  0.28780  1.0000
  H   H1437     1.0  0.16506  0.87893  0.33449  1.0000
  H   H1438     1.0  0.17818  0.88073  0.34642  1.0000
  H   H1439     1.0  0.18662  0.87910  0.32543  1.0000
  H   H1440     1.0  0.00349  0.82367  0.14152  1.0000
  C   C825      1.0  0.21299  0.81418  0.97911  1.0000
  H   H1441     1.0  0.17662  0.94550  0.21920  1.0000
  C   C826      1.0  0.04972  0.86208  0.24562  1.0000
  H   H1442     1.0  0.14884  0.81136  0.32916  1.0000
  S   S249      1.0  0.02974  0.83447  0.21487  1.0000
  C   C827      1.0  0.09856  0.75178  0.06793  1.0000
  H   H1443     1.0  0.22430  0.78154  0.28304  1.0000
  S   S250      1.0  0.16971  0.75811  0.26377  1.0000
  S   S251      1.0  0.13555  0.94253  0.27132  1.0000
  H   H1444     1.0  0.17450  0.82186  0.98074  1.0000
  N   N61       1.0  0.15956  0.78468  0.33357  1.0000
  H   H1445     1.0  0.22002  0.84219  0.26447  1.0000
  S   S252      1.0  0.21487  0.78242  0.05305  1.0000
  H   H1446     1.0  0.01556  0.78398  0.10094  1.0000
  H   H1447     1.0  0.07922  0.89463  0.19389  1.0000
  C   C828      1.0  0.99947  0.80607  0.20075  1.0000
  C   C829      1.0  0.04630  0.73629  0.22313  1.0000
  H   H1448     1.0  0.19402  0.75972  0.05754  1.0000
  H   H1449     1.0  0.17965  0.77690  0.99900  1.0000
  H   H1450     1.0  0.13530  0.79897  0.34290  1.0000
  H   H1451     1.0  0.12323  0.83151  0.25385  1.0000
  H   H1452     1.0  0.18432  0.81308  0.04809  1.0000
  C   C830      1.0  0.17833  0.80255  0.31026  1.0000
  H   H1453     1.0  0.11709  0.75814  0.21123  1.0000
  H   H1454     1.0  0.16014  0.81045  0.34918  1.0000
  H   H1455     1.0  0.99772  0.76341  0.16643  1.0000
  H   H1456     1.0  0.16006  0.83705  0.01180  1.0000
  H   H1457     1.0  0.14616  0.84972  0.24856  1.0000
  C   C831      1.0  0.02602  0.81209  0.19951  1.0000
  C   C832      1.0  0.14936  0.95513  0.26997  1.0000
  H   H1458     1.0  0.10200  0.76098  0.07205  1.0000
  H   H1459     1.0  0.13955  0.81801  0.02424  1.0000
  C   C833      1.0  0.11890  0.81270  0.27606  1.0000
  C   C834      1.0  0.13034  0.82348  0.26319  1.0000
  H   H1460     1.0  0.18841  0.97752  0.23190  1.0000
  H   H1461     1.0  0.06109  0.91033  0.19986  1.0000
  H   H1462     1.0  0.06138  0.85271  0.24344  1.0000
  Fe  Fe128     1.0  0.21964  0.78511  0.34491  1.0000
  C   C835      1.0  0.13695  0.80076  0.31706  1.0000
  H   H1463     1.0  0.12226  0.81423  0.23968  1.0000
  H   H1464     1.0  0.21426  0.80086  0.98334  1.0000
  H   H1465     1.0  0.07854  0.90530  0.20917  1.0000
  H   H1466     1.0  0.18557  0.77689  0.32251  1.0000
  H   H1467     1.0  0.04067  0.85572  0.25553  1.0000
  C   C836      1.0  0.14522  0.79936  0.33132  1.0000
  C   C837      1.0  0.01680  0.80330  0.19526  1.0000
  H   H1468     1.0  0.07346  0.87881  0.22476  1.0000
  H   H1469     1.0  0.11433  0.80528  0.27021  1.0000
  H   H1470     1.0  0.09370  0.75683  0.24399  1.0000
  H   H1471     1.0  0.03964  0.76784  0.20726  1.0000
  C   C838      1.0  0.17819  0.79060  0.99604  1.0000
  H   H1472     1.0  0.18640  0.89064  0.08880  1.0000
  H   H1473     1.0  0.10773  0.82093  0.28204  1.0000
  Fe  Fe129     1.0  0.15385  0.75077  0.28879  1.0000
  H   H1474     1.0  0.17849  0.79128  0.25328  1.0000
  C   C839      1.0  0.21381  0.84051  0.98390  1.0000
  H   H1475     1.0  0.14511  0.78994  0.04307  1.0000
  H   H1476     1.0  0.14634  0.83102  0.23119  1.0000
  C   C840      1.0  0.01793  0.82418  0.20881  1.0000
  C   C841      1.0  0.21803  0.76642  0.01173  1.0000
  C   C842      1.0  0.99125  0.81853  0.20963  1.0000
  H   H1477     1.0  0.05470  0.89410  0.22776  1.0000
  S   S253      1.0  0.15909  0.75398  0.00062  1.0000
  Fe  Fe130     1.0  0.23946  0.81210  0.32966  1.0000
  H   H1478     1.0  0.23344  0.86324  0.13171  1.0000
  S   S254      1.0  0.12454  0.75608  0.04132  1.0000
  C   C843      1.0  0.21160  0.77263  0.03901  1.0000
  C   C844      1.0  0.14307  0.97123  0.27304  1.0000
  H   H1479     1.0  0.18059  0.78489  0.02132  1.0000
  C   C845      1.0  0.07089  0.89988  0.20437  1.0000
  H   H1480     1.0  0.18313  0.82895  0.02975  1.0000
  C   C846      1.0  0.12748  0.74803  0.21490  1.0000
  C   C847      1.0  0.16845  0.82678  0.00591  1.0000
  H   H1481     1.0  0.14141  0.76915  0.34532  1.0000
  H   H1482     1.0  0.17774  0.75177  0.33234  1.0000
  H   H1483     1.0  0.19837  0.90611  0.07614  1.0000
  C   C848      1.0  0.08517  0.74451  0.07763  1.0000
  C   C849      1.0  0.06605  0.86163  0.20812  1.0000
  C   C850      1.0  0.06833  0.75341  0.16385  1.0000
  H   H1484     1.0  0.08978  0.86745  0.19278  1.0000
  C   C851      1.0  0.14515  0.79115  0.02989  1.0000
  C   C852      1.0  0.15392  0.98118  0.27263  1.0000
  H   H1485     1.0  0.99418  0.83708  0.22071  1.0000
  C   C853      1.0  0.07817  0.86520  0.19124  1.0000
  H   H1486     1.0  0.10693  0.77078  0.25424  1.0000
  H   H1487     1.0  0.05196  0.87179  0.25054  1.0000
  S   S255      1.0  0.13181  0.76837  0.29984  1.0000
  H   H1488     1.0  0.02390  0.87271  0.20740  1.0000
  C   C854      1.0  0.10757  0.74710  0.05302  1.0000
  C   C855      1.0  0.18745  0.98150  0.21863  1.0000
  C   C856      1.0  0.18361  0.81547  0.03490  1.0000
  H   H1489     1.0  0.17294  0.80796  0.29910  1.0000
  H   H1490     1.0  0.18185  0.80051  0.34241  1.0000
  H   H1491     1.0  0.13247  0.79051  0.02956  1.0000
  H   H1492     1.0  0.05113  0.89292  0.19054  1.0000
  N   N62       1.0  0.16631  0.81016  0.01710  1.0000
  H   H1493     1.0  0.14174  0.89689  0.32592  1.0000
  H   H1494     1.0  0.01063  0.78598  0.15670  1.0000
  C   C857      1.0  0.21477  0.82342  0.98937  1.0000
  H   H1495     1.0  0.03134  0.87956  0.23331  1.0000
  C   C858      1.0  0.04362  0.88679  0.20213  1.0000
  H   H1496     1.0  0.03729  0.85973  0.22817  1.0000
  H   H1497     1.0  0.19207  0.79927  0.00805  1.0000
  H   H1498     1.0  0.02320  0.79405  0.18797  1.0000
  S   S256      1.0  0.21788  0.85176  0.99617  1.0000
  H   H1499     1.0  0.08161  0.85416  0.18562  1.0000
  H   H1500     1.0  0.07284  0.87552  0.18198  1.0000
  C   C859      1.0  0.22138  0.86776  0.12776  1.0000
  C   C860      1.0  0.18435  0.95321  0.22078  1.0000
  C   C861      1.0  0.00166  0.79733  0.15214  1.0000
  S   S257      1.0  0.21129  0.76011  0.27184  1.0000
  C   C862      1.0  0.15326  0.76917  0.33577  1.0000
  C   C863      1.0  0.16790  0.81042  0.03412  1.0000
  C   C864      1.0  0.02555  0.76890  0.23223  1.0000
  H   H1501     1.0  0.17480  0.81171  0.31816  1.0000
  H   H1502     1.0  0.04153  0.86717  0.19105  1.0000
  H   H1503     1.0  0.02674  0.88630  0.18751  1.0000
  C   C865      1.0  0.20207  0.94625  0.21180  1.0000
  C   C866      1.0  0.03347  0.87751  0.19688  1.0000
  C   C867      1.0  0.09348  0.74647  0.23866  1.0000
  H   H1504     1.0  0.07829  0.74818  0.08911  1.0000
  C   C868      1.0  0.16526  0.75246  0.34068  1.0000
  Fe  Fe131     1.0  0.14376  0.74139  0.02393  1.0000
  H   H1505     1.0  0.05945  0.85223  0.20775  1.0000
  S   S258      1.0  0.21439  0.82995  0.04390  1.0000
  C   C869      1.0  0.00049  0.82770  0.21354  1.0000
  H   H1506     1.0  0.18421  0.95020  0.23424  1.0000
  H   H1507     1.0  0.23430  0.74610  0.06120  1.0000
  H   H1508     1.0  0.16023  0.74216  0.33972  1.0000
  C   C870      1.0  0.17966  0.79616  0.01114  1.0000
  H   H1509     1.0  0.20583  0.93299  0.21797  1.0000
  H   H1510     1.0  0.12909  0.73698  0.08125  1.0000
  H   H1511     1.0  0.19533  0.91807  0.09641  1.0000
  H   H1512     1.0  0.05705  0.74155  0.21478  1.0000
  C   C871      1.0  0.16478  0.78352  0.34931  1.0000
  C   C872      1.0  0.16543  0.83032  0.98829  1.0000
  H   H1513     1.0  0.99476  0.79569  0.10490  1.0000
  N   N63       1.0  0.99447  0.79491  0.13902  1.0000
  H   H1514     1.0  0.22132  0.85976  0.11968  1.0000
  H   H1515     1.0  0.06659  0.75159  0.24235  1.0000
  H   H1516     1.0  0.20050  0.97929  0.21165  1.0000
  C   C873      1.0  0.00845  0.79162  0.12438  1.0000
  H   H1517     1.0  0.13536  0.91036  0.30746  1.0000
  H   H1518     1.0  0.23014  0.82610  0.28998  1.0000
  H   H1519     1.0  0.04549  0.73821  0.23561  1.0000
  H   H1520     1.0  0.23372  0.73408  0.03728  1.0000
  H   H1521     1.0  0.00818  0.75622  0.19452  1.0000
  H   H1522     1.0  0.02548  0.76615  0.18410  1.0000
  H   H1523     1.0  0.99662  0.76054  0.22241  1.0000
  S   S259      1.0  0.22647  0.82658  0.34935  1.0000
  C   C874      1.0  0.17111  0.97486  0.26968  1.0000
  Fe  Fe132     1.0  0.22829  0.80371  0.04322  1.0000
  C   C875      1.0  0.23014  0.83653  0.22906  1.0000
  H   H1524     1.0  0.21138  0.95270  0.21244  1.0000
  H   H1525     1.0  0.13506  0.97042  0.23188  1.0000
  H   H1526     1.0  0.14600  0.80899  0.00695  1.0000
  H   H1527     1.0  0.04559  0.74139  0.19304  1.0000
  C   C876      1.0  0.01101  0.81164  0.14688  1.0000
  H   H1528     1.0  0.21154  0.86582  0.13913  1.0000
  H   H1529     1.0  0.21657  0.81730  0.00164  1.0000
  C   C877      1.0  0.19901  0.89289  0.08258  1.0000
  C   C878      1.0  0.99849  0.74692  0.22699  1.0000
  H   H1530     1.0  0.01368  0.80289  0.11813  1.0000
  Fe  Fe133     1.0  0.04653  0.74353  0.13870  1.0000
  C   C879      1.0  0.21185  0.74569  0.30431  1.0000
  H   H1531     1.0  0.02326  0.78270  0.22960  1.0000
  C   C880      1.0  0.02854  0.76341  0.21581  1.0000
  H   H1532     1.0  0.12976  0.97602  0.27574  1.0000
  H   H1533     1.0  0.16639  0.75004  0.35371  1.0000
  C   C881      1.0  0.12403  0.73991  0.23348  1.0000
  S   S260      1.0  0.17487  0.74121  0.30173  1.0000
  H   H1534     1.0  0.13842  0.75377  0.21198  1.0000
  H   H1535     1.0  0.06992  0.74226  0.15947  1.0000
  H   H1536     1.0  0.08747  0.74282  0.17796  1.0000
  Fe  Fe134     1.0  0.22936  0.80146  0.36672  1.0000
  N   N64       1.0  0.03048  0.74508  0.21713  1.0000
  C   C882      1.0  0.03254  0.74166  0.20024  1.0000
  H   H1537     1.0  0.23651  0.76687  0.37973  1.0000
  S   S261      1.0  0.03126  0.74216  0.12170  1.0000
  N   N65       1.0  0.17729  0.97148  0.21511  1.0000
  H   H1538     1.0  0.16035  0.97447  0.23857  1.0000
  C   C883      1.0  0.22686  0.82907  0.26466  1.0000
  C   C884      1.0  0.99694  0.76380  0.15366  1.0000
  C   C885      1.0  0.17618  0.97552  0.19715  1.0000
  H   H1539     1.0  0.16746  0.84300  0.98179  1.0000
  H   H1540     1.0  0.19919  0.93556  0.11266  1.0000
  Fe  Fe135     1.0  0.15771  0.73387  0.98921  1.0000
  H   H1541     1.0  0.99390  0.73692  0.12110  1.0000
  S   S262      1.0  0.20480  0.74488  0.00368  1.0000
  C   C886      1.0  0.22561  0.81983  0.28292  1.0000
  H   H1542     1.0  0.15089  0.95209  0.23375  1.0000
  H   H1543     1.0  0.23338  0.80047  0.25418  1.0000
  C   C887      1.0  0.14787  0.96474  0.22597  1.0000
  C   C888      1.0  0.15992  0.97546  0.22553  1.0000
  H   H1544     1.0  0.14764  0.96382  0.21343  1.0000
  H   H1545     1.0  0.23230  0.80666  0.28423  1.0000
  H   H1546     1.0  0.20388  0.97352  0.18789  1.0000
  H   H1547     1.0  0.23007  0.82346  0.22988  1.0000
  C   C889      1.0  0.19198  0.97912  0.18396  1.0000
  H   H1548     1.0  0.19278  0.97409  0.17308  1.0000
  H   H1549     1.0  0.00901  0.73998  0.08204  1.0000
  S   S263      1.0  0.23478  0.84142  0.07489  1.0000
  Fe  Fe136     1.0  0.23638  0.83279  0.05169  1.0000
  Fe  Fe137     1.0  0.18088  0.73605  0.00958  1.0000
  C   C890      1.0  0.10300  0.73526  0.04774  1.0000
  S   S264      1.0  0.24001  0.79524  0.38933  1.0000
  N   N66       1.0  0.10867  0.73273  0.24049  1.0000
  C   C891      1.0  0.08049  0.73283  0.07222  1.0000
  H   H1550     1.0  0.06608  0.88812  0.66162  1.0000
  H   H1551     1.0  0.03138  0.76779  0.61797  1.0000
  C   C892      1.0  0.15597  0.78066  0.93900  1.0000
  C   C893      1.0  0.02151  0.79001  0.62903  1.0000
  H   H1552     1.0  0.22244  0.84160  0.67913  1.0000
  Fe  Fe138     1.0  0.22729  0.81465  0.88958  1.0000
  H   H1553     1.0  0.10538  0.90233  0.65808  1.0000
  H   H1554     1.0  0.21475  0.86468  0.64744  1.0000
  Fe  Fe139     1.0  0.19820  0.79776  0.90326  1.0000
  S   S265      1.0  0.19193  0.77312  0.90670  1.0000
  S   S266      1.0  0.18287  0.81746  0.91706  1.0000
  H   H1555     1.0  0.22696  0.74106  0.82569  1.0000
  Fe  Fe140     1.0  0.04775  0.81715  0.67643  1.0000
  S   S267      1.0  0.06898  0.79790  0.66655  1.0000
  S   S268      1.0  0.05060  0.84073  0.68173  1.0000
  Fe  Fe141     1.0  0.02119  0.79980  0.67393  1.0000
  S   S269      1.0  0.04057  0.77918  0.66401  1.0000
  Fe  Fe142     1.0  0.05376  0.77955  0.68313  1.0000
  S   S270      1.0  0.06734  0.75595  0.69739  1.0000
  Fe  Fe143     1.0  0.05393  0.79930  0.64847  1.0000
  S   S271      1.0  0.06348  0.80330  0.62098  1.0000
  S   S272      1.0  0.03371  0.82002  0.65692  1.0000
  Fe  Fe144     1.0  0.11805  0.90218  0.71322  1.0000
  S   S273      1.0  0.11984  0.87888  0.73343  1.0000
  Fe  Fe145     1.0  0.13646  0.88318  0.68615  1.0000
  S   S274      1.0  0.14039  0.85898  0.70435  1.0000
  S   S275      1.0  0.14660  0.88381  0.65888  1.0000
  Fe  Fe146     1.0  0.11357  0.86704  0.71610  1.0000
  S   S276      1.0  0.09959  0.84617  0.72263  1.0000
  Fe  Fe147     1.0  0.14630  0.87304  0.71956  1.0000
  S   S277      1.0  0.16920  0.86288  0.73031  1.0000
  S   S278      1.0  0.10927  0.89089  0.69714  1.0000
  S   S279      1.0  0.14484  0.89673  0.70026  1.0000
  C   C894      1.0  0.11730  0.79326  0.91984  1.0000
  S   S280      1.0  0.03829  0.74886  0.77421  1.0000
  C   C895      1.0  0.06778  0.88335  0.65038  1.0000
  H   H1556     1.0  0.09432  0.87097  0.67305  1.0000
  S   S281      1.0  0.16720  0.81262  0.64189  1.0000
  H   H1557     1.0  0.12261  0.89588  0.61424  1.0000
  H   H1558     1.0  0.12416  0.89021  0.63542  1.0000
  H   H1559     1.0  0.09513  0.89418  0.62869  1.0000
  Fe  Fe148     1.0  0.20330  0.90555  0.77657  1.0000
  S   S282      1.0  0.20320  0.78425  0.66163  1.0000
  C   C896      1.0  0.12946  0.94446  0.69852  1.0000
  H   H1560     1.0  0.16265  0.79075  0.93211  1.0000
  H   H1561     1.0  0.20119  0.86456  0.70312  1.0000
  S   S283      1.0  0.20567  0.81538  0.87939  1.0000
  H   H1562     1.0  0.22337  0.85805  0.69882  1.0000
  H   H1563     1.0  0.04464  0.74267  0.83431  1.0000
  H   H1564     1.0  0.23448  0.81623  0.80087  1.0000
  H   H1565     1.0  0.06672  0.97415  0.70942  1.0000
  N   N67       1.0  0.09951  0.87093  0.64697  1.0000
  H   H1566     1.0  0.08165  0.86242  0.63949  1.0000
  H   H1567     1.0  0.13159  0.79683  0.94152  1.0000
  H   H1568     1.0  0.04393  0.75968  0.86194  1.0000
  H   H1569     1.0  0.14023  0.77626  0.88949  1.0000
  C   C897      1.0  0.01488  0.81950  0.61602  1.0000
  H   H1570     1.0  0.22736  0.74276  0.57073  1.0000
  C   C898      1.0  0.18884  0.74490  0.66126  1.0000
  C   C899      1.0  0.19229  0.83446  0.69196  1.0000
  H   H1571     1.0  0.14405  0.81608  0.92177  1.0000
  H   H1572     1.0  0.21574  0.97420  0.78575  1.0000
  H   H1573     1.0  0.19019  0.75387  0.66725  1.0000
  H   H1574     1.0  0.11419  0.87448  0.66204  1.0000
  C   C900      1.0  0.15248  0.86396  0.65425  1.0000
  C   C901      1.0  0.16390  0.86130  0.63953  1.0000
  C   C902      1.0  0.16890  0.84540  0.63590  1.0000
  C   C903      1.0  0.16221  0.83221  0.64682  1.0000
  C   C904      1.0  0.15071  0.83491  0.66143  1.0000
  C   C905      1.0  0.14583  0.85074  0.66511  1.0000
  H   H1575     1.0  0.16901  0.87150  0.63101  1.0000
  H   H1576     1.0  0.17772  0.84339  0.62451  1.0000
  H   H1577     1.0  0.14554  0.82474  0.66993  1.0000
  H   H1578     1.0  0.13651  0.85276  0.67613  1.0000
  C   C906      1.0  0.05876  0.75293  0.71874  1.0000
  C   C907      1.0  0.04602  0.75004  0.75292  1.0000
  H   H1579     1.0  0.14202  0.75469  0.89880  1.0000
  H   H1580     1.0  0.20540  0.85683  0.63598  1.0000
  H   H1581     1.0  0.10569  0.75070  0.62385  1.0000
  H   H1582     1.0  0.02935  0.76381  0.63977  1.0000
  C   C908      1.0  0.09471  0.89641  0.66019  1.0000
  C   C909      1.0  0.07985  0.78817  0.61299  1.0000
  C   C910      1.0  0.08649  0.79142  0.59595  1.0000
  C   C911      1.0  0.10001  0.78018  0.58900  1.0000
  H   H1583     1.0  0.18332  0.82063  0.67928  1.0000
  C   C912      1.0  0.10028  0.76200  0.61608  1.0000
  C   C913      1.0  0.08655  0.77333  0.62310  1.0000
  H   H1584     1.0  0.08132  0.80282  0.58810  1.0000
  H   H1585     1.0  0.10523  0.78297  0.57581  1.0000
  H   H1586     1.0  0.01272  0.82859  0.60438  1.0000
  H   H1587     1.0  0.08132  0.77072  0.63628  1.0000
  C   C914      1.0  0.06521  0.84202  0.69214  1.0000
  C   C915      1.0  0.07760  0.82835  0.69686  1.0000
  C   C916      1.0  0.08855  0.82989  0.70567  1.0000
  C   C917      1.0  0.08745  0.84517  0.70947  1.0000
  C   C918      1.0  0.07545  0.85895  0.70421  1.0000
  C   C919      1.0  0.06433  0.85734  0.69567  1.0000
  H   H1588     1.0  0.07862  0.81658  0.69389  1.0000
  H   H1589     1.0  0.09782  0.81917  0.70971  1.0000
  H   H1590     1.0  0.07433  0.87070  0.70728  1.0000
  H   H1591     1.0  0.05482  0.86799  0.69201  1.0000
  C   C920      1.0  0.18574  0.76963  0.89038  1.0000
  C   C921      1.0  0.18176  0.78260  0.87713  1.0000
  C   C922      1.0  0.17650  0.75104  0.87976  1.0000
  C   C923      1.0  0.18342  0.75380  0.89145  1.0000
  S   S284      1.0  0.10689  0.92689  0.72091  1.0000
  H   H1592     1.0  0.18661  0.74371  0.90158  1.0000
  H   H1593     1.0  0.10311  0.87646  0.62026  1.0000
  H   H1594     1.0  0.18350  0.79487  0.87625  1.0000
  C   C924      1.0  0.08227  0.86811  0.64946  1.0000
  C   C925      1.0  0.17577  0.89605  0.76053  1.0000
  C   C926      1.0  0.18867  0.88279  0.75636  1.0000
  C   C927      1.0  0.18659  0.87262  0.74707  1.0000
  C   C928      1.0  0.17174  0.87585  0.74171  1.0000
  C   C929      1.0  0.15898  0.88930  0.74565  1.0000
  C   C930      1.0  0.16095  0.89927  0.75518  1.0000
  N   N68       1.0  0.18094  0.95137  0.73163  1.0000
  H   H1595     1.0  0.19650  0.86225  0.74400  1.0000
  H   H1596     1.0  0.14750  0.89190  0.74153  1.0000
  H   H1597     1.0  0.15092  0.90951  0.75837  1.0000
  H   H1598     1.0  0.15505  0.76564  0.91363  1.0000
  H   H1599     1.0  0.08680  0.89841  0.67241  1.0000
  H   H1600     1.0  0.99424  0.78866  0.61952  1.0000
  Fe  Fe149     1.0  0.22952  0.79775  0.61763  1.0000
  H   H1601     1.0  0.11311  0.80564  0.92316  1.0000
  H   H1602     1.0  0.02795  0.75962  0.84076  1.0000
  S   S285      1.0  0.03339  0.79879  0.69444  1.0000
  C   C931      1.0  0.12156  0.88583  0.62560  1.0000
  H   H1603     1.0  0.21643  0.86318  0.67271  1.0000
  S   S286      1.0  0.22073  0.79573  0.91242  1.0000
  H   H1604     1.0  0.23209  0.94940  0.83050  1.0000
  C   C932      1.0  0.17496  0.77977  0.86530  1.0000
  H   H1605     1.0  0.22932  0.82137  0.82789  1.0000
  H   H1606     1.0  0.01115  0.76805  0.63189  1.0000
  C   C933      1.0  0.18416  0.95105  0.82491  1.0000
  H   H1607     1.0  0.16948  0.96716  0.76026  1.0000
  C   C934      1.0  0.20966  0.82196  0.96344  1.0000
  C   C935      1.0  0.17863  0.82725  0.68966  1.0000
  H   H1608     1.0  0.04491  0.79563  0.58091  1.0000
  H   H1609     1.0  0.12961  0.82294  0.90804  1.0000
  H   H1610     1.0  0.16294  0.76897  0.93498  1.0000
  S   S287      1.0  0.20721  0.80940  0.95161  1.0000
  C   C936      1.0  0.19394  0.76858  0.96291  1.0000
  H   H1611     1.0  0.03417  0.79180  0.62787  1.0000
  C   C937      1.0  0.10709  0.76556  0.59898  1.0000
  H   H1612     1.0  0.22334  0.77382  0.57775  1.0000
  H   H1613     1.0  0.15735  0.95225  0.77215  1.0000
  H   H1614     1.0  0.19657  0.88337  0.66660  1.0000
  H   H1615     1.0  0.01469  0.79209  0.64153  1.0000
  H   H1616     1.0  0.04422  0.80574  0.77608  1.0000
  H   H1617     1.0  0.22543  0.75075  0.96765  1.0000
  C   C938      1.0  0.20809  0.83919  0.95802  1.0000
  H   H1618     1.0  0.00133  0.77293  0.66559  1.0000
  C   C939      1.0  0.02330  0.77146  0.62945  1.0000
  S   S288      1.0  0.22672  0.90539  0.75692  1.0000
  N   N69       1.0  0.21572  0.74611  0.94888  1.0000
  C   C940      1.0  0.10096  0.87747  0.66101  1.0000
  C   C941      1.0  0.17336  0.74067  0.66439  1.0000
  H   H1619     1.0  0.20322  0.77230  0.96711  1.0000
  H   H1620     1.0  0.17467  0.89026  0.67011  1.0000
  H   H1621     1.0  0.16452  0.96036  0.71469  1.0000
  S   S289      1.0  0.20677  0.92593  0.78599  1.0000
  N   N70       1.0  0.13543  0.78645  0.92003  1.0000
  C   C942      1.0  0.14547  0.79791  0.90707  1.0000
  C   C943      1.0  0.14127  0.76941  0.91604  1.0000
  H   H1622     1.0  0.21105  0.84283  0.70851  1.0000
  S   S290      1.0  0.09719  0.73487  0.84940  1.0000
  C   C944      1.0  0.14218  0.81577  0.90963  1.0000
  C   C945      1.0  0.13606  0.76738  0.90103  1.0000
  H   H1623     1.0  0.04335  0.81001  0.59313  1.0000
  H   H1624     1.0  0.13701  0.75974  0.92681  1.0000
  C   C946      1.0  0.11826  0.76433  0.65285  1.0000
  H   H1625     1.0  0.14335  0.79911  0.89457  1.0000
  H   H1626     1.0  0.21236  0.73373  0.60653  1.0000
  C   C947      1.0  0.11920  0.94203  0.71437  1.0000
  C   C948      1.0  0.20877  0.87775  0.84423  1.0000
  H   H1627     1.0  0.15793  0.93275  0.72845  1.0000
  H   H1628     1.0  0.20479  0.85308  0.85672  1.0000
  H   H1629     1.0  0.19287  0.96802  0.73708  1.0000
  H   H1630     1.0  0.17264  0.94983  0.82220  1.0000
  H   H1631     1.0  0.14512  0.95993  0.68043  1.0000
  H   H1632     1.0  0.03462  0.76797  0.71611  1.0000
  H   H1633     1.0  0.00478  0.81870  0.64275  1.0000
  H   H1634     1.0  0.19102  0.75793  0.94445  1.0000
  S   S291      1.0  0.21400  0.81618  0.63302  1.0000
  S   S292      1.0  0.16195  0.76108  0.85293  1.0000
  C   C949      1.0  0.10401  0.88205  0.63018  1.0000
  H   H1635     1.0  0.00692  0.83876  0.63034  1.0000
  S   S293      1.0  0.99305  0.80363  0.67783  1.0000
  C   C950      1.0  0.04032  0.79808  0.59360  1.0000
  H   H1636     1.0  0.10107  0.78631  0.94426  1.0000
  N   N71       1.0  0.13659  0.78229  0.62930  1.0000
  C   C951      1.0  0.15378  0.78041  0.61813  1.0000
  C   C952      1.0  0.12440  0.78745  0.61814  1.0000
  H   H1637     1.0  0.17109  0.89312  0.87772  1.0000
  C   C953      1.0  0.13469  0.79492  0.63931  1.0000
  H   H1638     1.0  0.14437  0.76103  0.64817  1.0000
  C   C954      1.0  0.12486  0.80422  0.60563  1.0000
  C   C955      1.0  0.11672  0.80303  0.64713  1.0000
  H   H1639     1.0  0.21801  0.92246  0.72366  1.0000
  H   H1640     1.0  0.15612  0.79271  0.61057  1.0000
  H   H1641     1.0  0.11139  0.78810  0.62510  1.0000
  H   H1642     1.0  0.12667  0.77786  0.61081  1.0000
  Fe  Fe150     1.0  0.23136  0.92409  0.76815  1.0000
  H   H1643     1.0  0.14160  0.78934  0.64947  1.0000
  H   H1644     1.0  0.14066  0.80535  0.63149  1.0000
  C   C956      1.0  0.99528  0.80125  0.61973  1.0000
  H   H1645     1.0  0.18471  0.95135  0.70545  1.0000
  H   H1646     1.0  0.11412  0.80753  0.59958  1.0000
  H   H1647     1.0  0.12383  0.81447  0.61162  1.0000
  H   H1648     1.0  0.13624  0.80336  0.59560  1.0000
  H   H1649     1.0  0.11870  0.75111  0.65928  1.0000
  C   C957      1.0  0.16856  0.95406  0.76219  1.0000
  H   H1650     1.0  0.10680  0.79720  0.64692  1.0000
  H   H1651     1.0  0.18245  0.97283  0.83362  1.0000
  C   C958      1.0  0.11146  0.85430  0.64666  1.0000
  C   C959      1.0  0.10873  0.84047  0.66240  1.0000
  H   H1652     1.0  0.11124  0.84936  0.63602  1.0000
  H   H1653     1.0  0.12446  0.85555  0.64472  1.0000
  H   H1654     1.0  0.09752  0.83571  0.66371  1.0000
  H   H1655     1.0  0.11942  0.82975  0.66138  1.0000
  H   H1656     1.0  0.10823  0.84441  0.67380  1.0000
  H   H1657     1.0  0.13143  0.87491  0.62269  1.0000
  C   C960      1.0  0.13565  0.96886  0.70308  1.0000
  H   H1658     1.0  0.12246  0.76846  0.90334  1.0000
  H   H1659     1.0  0.21016  0.74260  0.84321  1.0000
  C   C961      1.0  0.18476  0.96965  0.82136  1.0000
  H   H1660     1.0  0.04742  0.78788  0.60172  1.0000
  S   S294      1.0  0.22227  0.74126  0.64774  1.0000
  C   C962      1.0  0.06205  0.74134  0.74707  1.0000
  S   S295      1.0  0.12333  0.74124  0.87789  1.0000
  Fe  Fe151     1.0  0.19268  0.83509  0.89394  1.0000
  H   H1661     1.0  0.01488  0.83964  0.72850  1.0000
  C   C963      1.0  0.18695  0.87180  0.86862  1.0000
  H   H1662     1.0  0.20832  0.83577  0.66064  1.0000
  C   C964      1.0  0.20068  0.86622  0.85663  1.0000
  Fe  Fe152     1.0  0.22001  0.90547  0.80333  1.0000
  H   H1663     1.0  0.23559  0.73911  0.85133  1.0000
  S   S296      1.0  0.21461  0.88506  0.79539  1.0000
  C   C965      1.0  0.12596  0.96600  0.71919  1.0000
  H   H1664     1.0  0.17157  0.78986  0.85523  1.0000
  S   S297      1.0  0.20891  0.78466  0.62179  1.0000
  H   H1665     1.0  0.19270  0.87222  0.64698  1.0000
  H   H1666     1.0  0.15899  0.79264  0.90603  1.0000
  C   C966      1.0  0.19016  0.90019  0.85653  1.0000
  H   H1667     1.0  0.18323  0.96220  0.79203  1.0000
  H   H1668     1.0  0.02396  0.80313  0.77588  1.0000
  H   H1669     1.0  0.08646  0.96055  0.70554  1.0000
  H   H1670     1.0  0.15496  0.77281  0.60904  1.0000
  C   C967      1.0  0.02142  0.79882  0.59898  1.0000
  H   H1671     1.0  0.18834  0.83665  0.70480  1.0000
  H   H1672     1.0  0.11628  0.77120  0.66267  1.0000
  N   N72       1.0  0.04627  0.80662  0.74238  1.0000
  C   C968      1.0  0.02901  0.81714  0.74173  1.0000
  C   C969      1.0  0.04444  0.79242  0.75725  1.0000
  C   C970      1.0  0.05269  0.79980  0.72685  1.0000
  C   C971      1.0  0.05710  0.81747  0.74329  1.0000
  C   C972      1.0  0.02750  0.83152  0.72638  1.0000
  H   H1673     1.0  0.03866  0.78590  0.78413  1.0000
  C   C973      1.0  0.06999  0.78813  0.72484  1.0000
  C   C974      1.0  0.07311  0.80863  0.74990  1.0000
  H   H1674     1.0  0.02030  0.80927  0.74236  1.0000
  H   H1675     1.0  0.02379  0.82302  0.75263  1.0000
  H   H1676     1.0  0.05626  0.78324  0.75815  1.0000
  H   H1677     1.0  0.03605  0.78510  0.75610  1.0000
  H   H1678     1.0  0.04381  0.79294  0.72586  1.0000
  H   H1679     1.0  0.05350  0.81000  0.71562  1.0000
  H   H1680     1.0  0.06085  0.82546  0.73091  1.0000
  H   H1681     1.0  0.04986  0.82637  0.75136  1.0000
  H   H1682     1.0  0.03655  0.83949  0.72386  1.0000
  H   H1683     1.0  0.02875  0.82687  0.71516  1.0000
  H   H1684     1.0  0.16392  0.93742  0.75026  1.0000
  H   H1685     1.0  0.06895  0.89337  0.63908  1.0000
  C   C975      1.0  0.13494  0.76552  0.64040  1.0000
  H   H1686     1.0  0.02357  0.76599  0.74623  1.0000
  H   H1687     1.0  0.07078  0.77681  0.73489  1.0000
  H   H1688     1.0  0.07993  0.79474  0.72342  1.0000
  H   H1689     1.0  0.07259  0.78373  0.71318  1.0000
  H   H1690     1.0  0.08365  0.81419  0.74174  1.0000
  H   H1691     1.0  0.07701  0.79511  0.75057  1.0000
  H   H1692     1.0  0.07185  0.81098  0.76231  1.0000
  H   H1693     1.0  0.18617  0.91330  0.85664  1.0000
  H   H1694     1.0  0.21917  0.87353  0.83480  1.0000
  C   C976      1.0  0.18166  0.88879  0.86847  1.0000
  H   H1695     1.0  0.19469  0.94346  0.81763  1.0000
  S   S298      1.0  0.17771  0.90862  0.77264  1.0000
  H   H1696     1.0  0.18472  0.88760  0.68640  1.0000
  H   H1697     1.0  0.10977  0.95087  0.73704  1.0000
  C   C977      1.0  0.23598  0.76529  0.94415  1.0000
  C   C978      1.0  0.18166  0.86434  0.68263  1.0000
  H   H1698     1.0  0.20016  0.88024  0.76046  1.0000
  C   C979      1.0  0.21434  0.96962  0.81931  1.0000
  H   H1699     1.0  0.02785  0.81934  0.61634  1.0000
  C   C980      1.0  0.16962  0.93367  0.71897  1.0000
  Fe  Fe153     1.0  0.21925  0.76871  0.64362  1.0000
  H   H1700     1.0  0.22659  0.94428  0.81449  1.0000
  S   S299      1.0  0.12505  0.75289  0.58953  1.0000
  C   C981      1.0  0.19545  0.93754  0.73563  1.0000
  H   H1701     1.0  0.05608  0.87938  0.65163  1.0000
  H   H1702     1.0  0.11586  0.80259  0.66036  1.0000
  C   C982      1.0  0.20317  0.86122  0.64759  1.0000
  C   C983      1.0  0.19859  0.84712  0.66237  1.0000
  H   H1703     1.0  0.20539  0.84532  0.94596  1.0000
  H   H1704     1.0  0.21040  0.97438  0.83090  1.0000
  H   H1705     1.0  0.18753  0.76000  0.97324  1.0000
  H   H1706     1.0  0.17484  0.81795  0.70103  1.0000
  H   H1707     1.0  0.21238  0.94451  0.83456  1.0000
  H   H1708     1.0  0.17368  0.97697  0.81621  1.0000
  Fe  Fe154     1.0  0.20619  0.81679  0.92454  1.0000
  H   H1709     1.0  0.20553  0.96715  0.70607  1.0000
  C   C984      1.0  0.21214  0.85242  0.68171  1.0000
  C   C985      1.0  0.18499  0.88215  0.67598  1.0000
  C   C986      1.0  0.10515  0.78269  0.93206  1.0000
  C   C987      1.0  0.13755  0.95790  0.69287  1.0000
  C   C988      1.0  0.11760  0.95277  0.72472  1.0000
  H   H1710     1.0  0.16787  0.77822  0.63704  1.0000
  H   H1711     1.0  0.15122  0.82243  0.89999  1.0000
  H   H1712     1.0  0.13070  0.93633  0.69040  1.0000
  H   H1713     1.0  0.12461  0.97417  0.72729  1.0000
  H   H1714     1.0  0.15614  0.77868  0.95227  1.0000
  H   H1715     1.0  0.11370  0.81637  0.64099  1.0000
  H   H1716     1.0  0.17654  0.86321  0.69616  1.0000
  H   H1717     1.0  0.13729  0.75615  0.63281  1.0000
  H   H1718     1.0  0.18025  0.77416  0.61751  1.0000
  Fe  Fe155     1.0  0.19450  0.80134  0.63933  1.0000
  H   H1719     1.0  0.21657  0.75428  0.60123  1.0000
  S   S300      1.0  0.16138  0.73521  0.61260  1.0000
  S   S301      1.0  0.23153  0.80853  0.67083  1.0000
  C   C989      1.0  0.03743  0.79736  0.77419  1.0000
  S   S302      1.0  0.21508  0.83599  0.90234  1.0000
  C   C990      1.0  0.06847  0.74290  0.72997  1.0000
  H   H1720     1.0  0.01920  0.78695  0.59797  1.0000
  C   C991      1.0  0.19389  0.97550  0.71081  1.0000
  H   H1721     1.0  0.10748  0.76826  0.64691  1.0000
  H   H1722     1.0  0.13162  0.77540  0.94631  1.0000
  H   H1723     1.0  0.07906  0.85912  0.66124  1.0000
  H   H1724     1.0  0.20084  0.73934  0.70228  1.0000
  C   C992      1.0  0.20357  0.89473  0.84428  1.0000
  H   H1725     1.0  0.19863  0.74072  0.92770  1.0000
  N   N73       1.0  0.16534  0.87428  0.82511  1.0000
  C   C993      1.0  0.17239  0.88726  0.82806  1.0000
  C   C994      1.0  0.17414  0.85739  0.83318  1.0000
  C   C995      1.0  0.14698  0.87644  0.83262  1.0000
  C   C996      1.0  0.16783  0.87613  0.80671  1.0000
  C   C997      1.0  0.16407  0.90558  0.82206  1.0000
  C   C998      1.0  0.19225  0.85126  0.82437  1.0000
  C   C999      1.0  0.14191  0.87667  0.85125  1.0000
  C   C1000     1.0  0.16216  0.86322  0.80120  1.0000
  H   H1726     1.0  0.17201  0.88543  0.84142  1.0000
  H   H1727     1.0  0.18575  0.88599  0.82196  1.0000
  H   H1728     1.0  0.16719  0.84762  0.83474  1.0000
  H   H1729     1.0  0.17456  0.85722  0.84606  1.0000
  H   H1730     1.0  0.13985  0.88804  0.82590  1.0000
  H   H1731     1.0  0.14213  0.86624  0.83115  1.0000
  H   H1732     1.0  0.16065  0.88838  0.80122  1.0000
  H   H1733     1.0  0.18093  0.87655  0.80012  1.0000
  H   H1734     1.0  0.16573  0.90911  0.80840  1.0000
  H   H1735     1.0  0.15071  0.90854  0.82805  1.0000
  H   H1736     1.0  0.17026  0.91363  0.82545  1.0000
  H   H1737     1.0  0.19747  0.83910  0.83186  1.0000
  H   H1738     1.0  0.19308  0.84925  0.81194  1.0000
  H   H1739     1.0  0.20025  0.85986  0.82333  1.0000
  H   H1740     1.0  0.14786  0.86505  0.85891  1.0000
  H   H1741     1.0  0.12825  0.87774  0.85549  1.0000
  H   H1742     1.0  0.14473  0.88750  0.85381  1.0000
  H   H1743     1.0  0.14899  0.86768  0.80001  1.0000
  H   H1744     1.0  0.16352  0.85081  0.80960  1.0000
  H   H1745     1.0  0.17006  0.86130  0.78894  1.0000
  C   C1001     1.0  0.17198  0.76405  0.86682  1.0000
  H   H1746     1.0  0.08719  0.90329  0.65092  1.0000
  C   C1002     1.0  0.04246  0.76094  0.72465  1.0000
  C   C1003     1.0  0.03616  0.75968  0.74171  1.0000
  H   H1747     1.0  0.19797  0.96680  0.77308  1.0000
  H   H1748     1.0  0.22496  0.97535  0.81166  1.0000
  C   C1004     1.0  0.23070  0.73781  0.58306  1.0000
  H   H1749     1.0  0.16965  0.75886  0.63118  1.0000
  H   H1750     1.0  0.17126  0.86375  0.67761  1.0000
  S   S303      1.0  0.17554  0.85788  0.88309  1.0000
  H   H1751     1.0  0.23055  0.79288  0.83423  1.0000
  H   H1752     1.0  0.19828  0.75366  0.82049  1.0000
  S   S304      1.0  0.21356  0.90943  0.82922  1.0000
  H   H1753     1.0  0.21173  0.95481  0.79663  1.0000
  N   N74       1.0  0.19614  0.85003  0.67949  1.0000
  C   C1005     1.0  0.21017  0.84847  0.96829  1.0000
  H   H1754     1.0  0.20927  0.86175  0.96401  1.0000
  H   H1755     1.0  0.19956  0.93912  0.74619  1.0000
  H   H1756     1.0  0.18710  0.84481  0.66065  1.0000
  H   H1757     1.0  0.19184  0.92529  0.74032  1.0000
  C   C1006     1.0  0.21129  0.93569  0.72179  1.0000
  H   H1758     1.0  0.11499  0.79590  0.90714  1.0000
  Fe  Fe156     1.0  0.22411  0.79765  0.65380  1.0000
  N   N75       1.0  0.01325  0.80241  0.61590  1.0000
  H   H1759     1.0  0.04869  0.76240  0.83237  1.0000
  H   H1760     1.0  0.17942  0.92244  0.72174  1.0000
  C   C1007     1.0  0.16855  0.77247  0.62673  1.0000
  H   H1761     1.0  0.18383  0.94523  0.83822  1.0000
  C   C1008     1.0  0.13778  0.78511  0.93712  1.0000
  C   C1009     1.0  0.18510  0.96818  0.72852  1.0000
  C   C1010     1.0  0.22145  0.95087  0.82480  1.0000
  C   C1011     1.0  0.04114  0.75332  0.84045  1.0000
  H   H1762     1.0  0.17934  0.94558  0.76692  1.0000
  H   H1763     1.0  0.20521  0.77117  0.93692  1.0000
  H   H1764     1.0  0.21967  0.94342  0.72214  1.0000
  H   H1765     1.0  0.06964  0.73371  0.75572  1.0000
  N   N76       1.0  0.20034  0.97475  0.81023  1.0000
  H   H1766     1.0  0.18544  0.97905  0.70207  1.0000
  H   H1767     1.0  0.19167  0.74777  0.80542  1.0000
  H   H1768     1.0  0.08056  0.96871  0.72364  1.0000
  H   H1769     1.0  0.15489  0.95862  0.74326  1.0000
  C   C1012     1.0  0.20150  0.76103  0.94743  1.0000
  C   C1013     1.0  0.19452  0.74336  0.81795  1.0000
  H   H1770     1.0  0.09408  0.78457  0.92687  1.0000
  C   C1014     1.0  0.21169  0.85459  0.69908  1.0000
  C   C1015     1.0  0.22938  0.74970  0.95443  1.0000
  H   H1771     1.0  0.16274  0.74657  0.67259  1.0000
  H   H1772     1.0  0.08105  0.73658  0.72547  1.0000
  C   C1016     1.0  0.16654  0.95012  0.74645  1.0000
  H   H1773     1.0  0.16687  0.93367  0.70708  1.0000
  H   H1774     1.0  0.20441  0.74897  0.59052  1.0000
  C   C1017     1.0  0.21549  0.74421  0.59615  1.0000
  H   H1775     1.0  0.07913  0.73825  0.82477  1.0000
  C   C1018     1.0  0.19207  0.97038  0.78521  1.0000
  H   H1776     1.0  0.16743  0.83694  0.68755  1.0000
  C   C1019     1.0  0.20581  0.96817  0.79456  1.0000
  H   H1777     1.0  0.01571  0.80850  0.58932  1.0000
  H   H1778     1.0  0.20359  0.82424  0.69202  1.0000
  H   H1779     1.0  0.20887  0.93858  0.70925  1.0000
  C   C1020     1.0  0.20264  0.73710  0.65079  1.0000
  H   H1780     1.0  0.18444  0.78003  0.95983  1.0000
  H   H1781     1.0  0.11039  0.76915  0.93417  1.0000
  C   C1021     1.0  0.17517  0.94992  0.71712  1.0000
  C   C1022     1.0  0.07981  0.97187  0.71050  1.0000
  H   H1782     1.0  0.22486  0.75310  0.92232  1.0000
  H   H1783     1.0  0.23173  0.78491  0.88329  1.0000
  H   H1784     1.0  0.23553  0.83799  0.79586  1.0000
  S   S305      1.0  0.15970  0.73955  0.96145  1.0000
  C   C1023     1.0  0.22267  0.74178  0.93208  1.0000
  C   C1024     1.0  0.00345  0.82708  0.63063  1.0000
  H   H1785     1.0  0.22637  0.77681  0.94520  1.0000
  H   H1786     1.0  0.09210  0.97931  0.73870  1.0000
  H   H1787     1.0  0.12739  0.73994  0.79865  1.0000
  H   H1788     1.0  0.18280  0.74100  0.82676  1.0000
  H   H1789     1.0  0.05901  0.74264  0.85531  1.0000
  Fe  Fe157     1.0  0.14936  0.73931  0.86253  1.0000
  H   H1790     1.0  0.17454  0.73886  0.88091  1.0000
  H   H1791     1.0  0.17356  0.97777  0.73126  1.0000
  Fe  Fe158     1.0  0.23857  0.88639  0.77651  1.0000
  H   H1792     1.0  0.23739  0.75564  0.88143  1.0000
  S   S306      1.0  0.23916  0.94773  0.75249  1.0000
  H   H1793     1.0  0.23974  0.83997  0.84639  1.0000
  H   H1794     1.0  0.16959  0.73423  0.92851  1.0000
  H   H1795     1.0  0.23511  0.73321  0.93152  1.0000
  C   C1025     1.0  0.04546  0.74808  0.85765  1.0000
  H   H1796     1.0  0.21663  0.73396  0.91279  1.0000
  H   H1797     1.0  0.20447  0.73528  0.97387  1.0000
  H   H1798     1.0  0.23629  0.77366  0.59145  1.0000
  C   C1026     1.0  0.23610  0.77339  0.57872  1.0000
  H   H1799     1.0  0.10175  0.98179  0.69946  1.0000
  H   H1800     1.0  0.23965  0.84641  0.81633  1.0000
  C   C1027     1.0  0.21174  0.73385  0.92621  1.0000
  H   H1801     1.0  0.01593  0.75670  0.87721  1.0000
  C   C1028     1.0  0.22077  0.73360  0.83746  1.0000
  H   H1802     1.0  0.23947  0.78513  0.57069  1.0000
  H   H1803     1.0  0.01240  0.74742  0.86305  1.0000
  C   C1029     1.0  0.01773  0.74441  0.87413  1.0000
  H   H1804     1.0  0.99020  0.83036  0.62983  1.0000
  H   H1805     1.0  0.99324  0.74007  0.88780  1.0000
  N   N77       1.0  0.03597  0.73624  0.87079  1.0000
  H   H1806     1.0  0.03847  0.74513  0.89116  1.0000
  H   H1807     1.0  0.00795  0.73467  0.90059  1.0000
  C   C1030     1.0  0.00646  0.73434  0.88827  1.0000
  H   H1808     1.0  0.06800  0.73624  0.87860  1.0000
  C   C1031     1.0  0.04188  0.73340  0.88657  1.0000
  H   H1809     1.0  0.34187  0.11699  0.33292  1.0000
  H   H1810     1.0  0.43146  0.21562  0.31602  1.0000
  H   H1811     1.0  0.26219  0.02813  0.06538  1.0000
  H   H1812     1.0  0.26233  0.20791  0.42596  1.0000
  Fe  Fe159     1.0  0.30762  0.17147  0.41650  1.0000
  S   S307      1.0  0.32594  0.18729  0.40157  1.0000
  S   S308      1.0  0.29956  0.16607  0.44462  1.0000
  Fe  Fe160     1.0  0.29867  0.16808  0.38529  1.0000
  S   S309      1.0  0.31629  0.18366  0.36820  1.0000
  H   H1813     1.0  0.30663  0.11903  0.47255  1.0000
  Fe  Fe161     1.0  0.33383  0.16920  0.38478  1.0000
  S   S310      1.0  0.36046  0.15761  0.37466  1.0000
  Fe  Fe162     1.0  0.30663  0.20011  0.38646  1.0000
  H   H1814     1.0  0.33339  0.12816  0.06775  1.0000
  S   S311      1.0  0.31685  0.15217  0.40080  1.0000
  S   S312      1.0  0.28770  0.18567  0.40253  1.0000
  Fe  Fe163     1.0  0.44400  0.15265  0.27843  1.0000
  S   S313      1.0  0.43429  0.17991  0.26960  1.0000
  S   S314      1.0  0.46899  0.14318  0.28596  1.0000
  Fe  Fe164     1.0  0.41211  0.14360  0.27663  1.0000
  S   S315      1.0  0.40035  0.17027  0.26782  1.0000
  S   S316      1.0  0.39478  0.12623  0.28147  1.0000
  Fe  Fe165     1.0  0.42542  0.17186  0.25146  1.0000
  S   S317      1.0  0.42901  0.18311  0.22422  1.0000
  Fe  Fe166     1.0  0.41031  0.17528  0.28706  1.0000
  S   S318      1.0  0.39468  0.19299  0.30338  1.0000
  S   S319      1.0  0.43678  0.14475  0.25889  1.0000
  S   S320      1.0  0.42042  0.14847  0.29712  1.0000
  Fe  Fe167     1.0  0.28968  0.02564  0.13624  1.0000
  S   S321      1.0  0.26277  0.03824  0.14255  1.0000
  H   H1815     1.0  0.28035  0.20751  0.37164  1.0000
  Fe  Fe168     1.0  0.30177  0.05739  0.13336  1.0000
  S   S322      1.0  0.27583  0.07236  0.13888  1.0000
  S   S323      1.0  0.32368  0.07000  0.12460  1.0000
  Fe  Fe169     1.0  0.27090  0.04985  0.15861  1.0000
  S   S324      1.0  0.25807  0.05382  0.18426  1.0000
  Fe  Fe170     1.0  0.27018  0.05957  0.12221  1.0000
  S   S325      1.0  0.25396  0.07419  0.10412  1.0000
  S   S326      1.0  0.29743  0.03544  0.15415  1.0000
  S   S327      1.0  0.29654  0.04639  0.11481  1.0000
  Fe  Fe171     1.0  0.28979  0.15761  0.01522  1.0000
  S   S328      1.0  0.27347  0.14325  0.03606  1.0000
  S   S329      1.0  0.30708  0.17166  0.01857  1.0000
  Fe  Fe172     1.0  0.27606  0.15110  0.98840  1.0000
  S   S330      1.0  0.25874  0.13622  0.00730  1.0000
  Fe  Fe173     1.0  0.25364  0.15607  0.02165  1.0000
  C   C1032     1.0  0.27273  0.20078  0.05936  1.0000
  Fe  Fe174     1.0  0.28031  0.12483  0.01981  1.0000
  S   S331      1.0  0.28909  0.09733  0.02918  1.0000
  S   S332      1.0  0.26946  0.17180  0.00182  1.0000
  S   S333      1.0  0.29822  0.13825  0.99981  1.0000
  Fe  Fe175     1.0  0.36812  0.10500  0.21228  1.0000
  S   S334      1.0  0.34377  0.11255  0.22918  1.0000
  S   S335      1.0  0.39281  0.10215  0.21866  1.0000
  Fe  Fe176     1.0  0.35158  0.10858  0.18367  1.0000
  S   S336      1.0  0.32606  0.11715  0.19811  1.0000
  S   S337      1.0  0.35580  0.10892  0.15650  1.0000
  Fe  Fe177     1.0  0.33785  0.13223  0.20726  1.0000
  S   S338      1.0  0.32645  0.15810  0.21097  1.0000
  Fe  Fe178     1.0  0.33423  0.09664  0.21873  1.0000
  S   S339      1.0  0.31653  0.08079  0.23542  1.0000
  S   S340      1.0  0.36270  0.12585  0.19081  1.0000
  S   S341      1.0  0.35932  0.08687  0.20367  1.0000
  H   H1816     1.0  0.29626  0.21884  0.05902  1.0000
  H   H1817     1.0  0.46592  0.19815  0.33893  1.0000
  S   S342      1.0  0.28645  0.10201  0.34203  1.0000
  H   H1818     1.0  0.32670  0.15349  0.35113  1.0000
  H   H1819     1.0  0.28492  0.15676  0.17480  1.0000
  C   C1033     1.0  0.33713  0.15592  0.34030  1.0000
  H   H1820     1.0  0.36679  0.13801  0.34625  1.0000
  Fe  Fe179     1.0  0.32446  0.18410  0.09652  1.0000
  S   S343      1.0  0.29981  0.20043  0.10437  1.0000
  S   S344      1.0  0.32356  0.16140  0.08860  1.0000
  Fe  Fe180     1.0  0.30886  0.19979  0.12653  1.0000
  S   S345      1.0  0.29187  0.19770  0.15166  1.0000
  S   S346      1.0  0.33249  0.18161  0.11996  1.0000
  C   C1034     1.0  0.31688  0.16895  0.19449  1.0000
  C   C1035     1.0  0.32325  0.16485  0.17896  1.0000
  C   C1036     1.0  0.31578  0.17384  0.16564  1.0000
  C   C1037     1.0  0.30162  0.18652  0.16800  1.0000
  C   C1038     1.0  0.29504  0.19033  0.18364  1.0000
  C   C1039     1.0  0.30281  0.18170  0.19684  1.0000
  H   H1821     1.0  0.33396  0.15479  0.17721  1.0000
  H   H1822     1.0  0.32069  0.17061  0.15373  1.0000
  H   H1823     1.0  0.28400  0.20005  0.18553  1.0000
  H   H1824     1.0  0.29775  0.18472  0.20892  1.0000
  C   C1040     1.0  0.29808  0.09302  0.24464  1.0000
  C   C1041     1.0  0.29385  0.11012  0.23821  1.0000
  C   C1042     1.0  0.27989  0.12002  0.24650  1.0000
  C   C1043     1.0  0.27034  0.11291  0.26146  1.0000
  C   C1044     1.0  0.27419  0.09572  0.26760  1.0000
  C   C1045     1.0  0.28803  0.08578  0.25917  1.0000
  H   H1825     1.0  0.30152  0.11587  0.22710  1.0000
  H   H1826     1.0  0.27697  0.13333  0.24172  1.0000
  H   H1827     1.0  0.26844  0.10114  0.97842  1.0000
  H   H1828     1.0  0.29130  0.07260  0.26426  1.0000
  C   C1046     1.0  0.31097  0.16921  0.03828  1.0000
  C   C1047     1.0  0.32236  0.17742  0.03988  1.0000
  C   C1048     1.0  0.32577  0.17566  0.05543  1.0000
  C   C1049     1.0  0.31811  0.16532  0.06939  1.0000
  C   C1050     1.0  0.30655  0.15730  0.06785  1.0000
  C   C1051     1.0  0.30282  0.15942  0.05238  1.0000
  H   H1829     1.0  0.32863  0.18511  0.02904  1.0000
  H   H1830     1.0  0.33473  0.18188  0.05650  1.0000
  H   H1831     1.0  0.30033  0.14958  0.07869  1.0000
  H   H1832     1.0  0.29366  0.15351  0.05135  1.0000
  H   H1833     1.0  0.43330  0.22020  0.23400  1.0000
  C   C1052     1.0  0.33182  0.08022  0.13485  1.0000
  C   C1053     1.0  0.34422  0.08872  0.12514  1.0000
  C   C1054     1.0  0.35142  0.09717  0.13213  1.0000
  C   C1055     1.0  0.34646  0.09722  0.14902  1.0000
  C   C1056     1.0  0.33402  0.08869  0.15898  1.0000
  C   C1057     1.0  0.32664  0.08020  0.15186  1.0000
  H   H1834     1.0  0.34843  0.08868  0.11208  1.0000
  H   H1835     1.0  0.36102  0.10356  0.12433  1.0000
  H   H1836     1.0  0.33010  0.08865  0.17207  1.0000
  H   H1837     1.0  0.31714  0.07354  0.15949  1.0000
  C   C1058     1.0  0.26361  0.07999  0.08316  1.0000
  C   C1059     1.0  0.27794  0.06979  0.07578  1.0000
  C   C1060     1.0  0.28553  0.07496  0.05905  1.0000
  C   C1061     1.0  0.27889  0.09040  0.04974  1.0000
  C   C1062     1.0  0.26443  0.10043  0.05708  1.0000
  C   C1063     1.0  0.25673  0.09515  0.07369  1.0000
  H   H1838     1.0  0.28328  0.05804  0.08300  1.0000
  H   H1839     1.0  0.29671  0.06716  0.05340  1.0000
  H   H1840     1.0  0.25909  0.11225  0.04994  1.0000
  H   H1841     1.0  0.25714  0.99118  0.08244  1.0000
  C   C1064     1.0  0.41499  0.20183  0.21908  1.0000
  H   H1842     1.0  0.37558  0.15618  0.30082  1.0000
  H   H1843     1.0  0.33748  0.18014  0.32295  1.0000
  N   N78       1.0  0.31236  0.10105  0.07696  1.0000
  C   C1065     1.0  0.38347  0.15716  0.23369  1.0000
  C   C1066     1.0  0.39460  0.11885  0.26434  1.0000
  C   C1067     1.0  0.37977  0.11582  0.26307  1.0000
  C   C1068     1.0  0.37906  0.11062  0.24916  1.0000
  C   C1069     1.0  0.39331  0.10808  0.23660  1.0000
  C   C1070     1.0  0.40826  0.11070  0.23811  1.0000
  C   C1071     1.0  0.40886  0.11628  0.25182  1.0000
  H   H1844     1.0  0.36878  0.11784  0.27273  1.0000
  H   H1845     1.0  0.36760  0.10839  0.24825  1.0000
  H   H1846     1.0  0.41936  0.10862  0.22853  1.0000
  H   H1847     1.0  0.42040  0.11843  0.25278  1.0000
  H   H1848     1.0  0.24186  0.05196  0.06078  1.0000
  C   C1072     1.0  0.28469  0.14600  0.36370  1.0000
  C   C1073     1.0  0.32949  0.21398  0.18372  1.0000
  C   C1074     1.0  0.32985  0.17052  0.32725  1.0000
  C   C1075     1.0  0.28587  0.11898  0.35030  1.0000
  C   C1076     1.0  0.29516  0.11691  0.36216  1.0000
  C   C1077     1.0  0.29450  0.13039  0.36896  1.0000
  C   C1078     1.0  0.36262  0.22134  0.17091  1.0000
  S   S347      1.0  0.36768  0.20367  0.11267  1.0000
  H   H1849     1.0  0.30250  0.10477  0.36644  1.0000
  H   H1850     1.0  0.30104  0.12856  0.37864  1.0000
  C   C1079     1.0  0.37031  0.16826  0.35547  1.0000
  C   C1080     1.0  0.38570  0.16026  0.34730  1.0000
  C   C1081     1.0  0.39327  0.16784  0.33139  1.0000
  C   C1082     1.0  0.38562  0.18358  0.32361  1.0000
  C   C1083     1.0  0.37051  0.19187  0.33204  1.0000
  C   C1084     1.0  0.36277  0.18416  0.34789  1.0000
  H   H1851     1.0  0.39161  0.14800  0.35316  1.0000
  H   H1852     1.0  0.40500  0.16143  0.32523  1.0000
  H   H1853     1.0  0.36459  0.20412  0.32617  1.0000
  H   H1854     1.0  0.35098  0.19052  0.35420  1.0000
  H   H1855     1.0  0.30770  0.22824  0.02299  1.0000
  C   C1085     1.0  0.44650  0.21784  0.23457  1.0000
  C   C1086     1.0  0.37050  0.15262  0.31435  1.0000
  C   C1087     1.0  0.47988  0.15762  0.28680  1.0000
  C   C1088     1.0  0.47741  0.17387  0.27731  1.0000
  H   H1856     1.0  0.34162  0.06335  0.07525  1.0000
  H   H1857     1.0  0.34951  0.14906  0.30799  1.0000
  H   H1858     1.0  0.44561  0.19959  0.28585  1.0000
  H   H1859     1.0  0.46892  0.17768  0.26906  1.0000
  H   H1860     1.0  0.45481  0.15394  0.32910  1.0000
  C   C1089     1.0  0.43915  0.17466  0.31449  1.0000
  Fe  Fe181     1.0  0.31313  0.22116  0.09199  1.0000
  C   C1090     1.0  0.34769  0.19718  0.15537  1.0000
  C   C1091     1.0  0.24441  0.01136  0.09588  1.0000
  H   H1861     1.0  0.26354  0.00056  0.14419  1.0000
  H   H1862     1.0  0.36351  0.13051  0.31392  1.0000
  C   C1092     1.0  0.26179  0.06780  0.24075  1.0000
  H   H1863     1.0  0.43263  0.15414  0.33554  1.0000
  C   C1093     1.0  0.28380  0.15913  0.12541  1.0000
  Fe  Fe182     1.0  0.34328  0.20413  0.10680  1.0000
  H   H1864     1.0  0.44860  0.17481  0.30269  1.0000
  C   C1094     1.0  0.25632  0.22312  0.36941  1.0000
  C   C1095     1.0  0.41478  0.20873  0.20238  1.0000
  C   C1096     1.0  0.30773  0.17474  0.45628  1.0000
  C   C1097     1.0  0.32167  0.18183  0.44923  1.0000
  C   C1098     1.0  0.32835  0.18792  0.45902  1.0000
  H   H1865     1.0  0.36553  0.16420  0.31906  1.0000
  H   H1866     1.0  0.31448  0.12691  0.32703  1.0000
  H   H1867     1.0  0.32749  0.18240  0.43629  1.0000
  H   H1868     1.0  0.33923  0.19326  0.45348  1.0000
  H   H1869     1.0  0.27662  0.11470  0.08724  1.0000
  C   C1099     1.0  0.27416  0.00940  0.09113  1.0000
  H   H1870     1.0  0.25966  0.19968  0.06105  1.0000
  C   C1100     1.0  0.24950  0.23031  0.44538  1.0000
  C   C1101     1.0  0.32162  0.13649  0.32540  1.0000
  H   H1871     1.0  0.44625  0.21918  0.24712  1.0000
  C   C1102     1.0  0.25852  0.22077  0.41881  1.0000
  H   H1872     1.0  0.31709  0.08112  0.06426  1.0000
  H   H1873     1.0  0.42173  0.16055  0.20656  1.0000
  S   S348      1.0  0.33753  0.20490  0.08243  1.0000
  C   C1103     1.0  0.30451  0.11368  0.06361  1.0000
  H   H1874     1.0  0.28057  0.19164  0.05182  1.0000
  C   C1104     1.0  0.29670  0.05692  0.21377  1.0000
  N   N79       1.0  0.34651  0.13995  0.33479  1.0000
  C   C1105     1.0  0.27692  0.09844  0.98695  1.0000
  H   H1875     1.0  0.33400  0.09079  0.05947  1.0000
  H   H1876     1.0  0.42626  0.13891  0.20681  1.0000
  H   H1877     1.0  0.30494  0.04638  0.20831  1.0000
  S   S349      1.0  0.29920  0.99919  0.13212  1.0000
  H   H1878     1.0  0.41602  0.14572  0.22556  1.0000
  C   C1106     1.0  0.37035  0.22200  0.11640  1.0000
  H   H1879     1.0  0.34537  0.16085  0.34487  1.0000
  H   H1880     1.0  0.33983  0.07709  0.08824  1.0000
  H   H1881     1.0  0.45238  0.20479  0.23345  1.0000
  C   C1107     1.0  0.28355  0.10707  0.09691  1.0000
  Fe  Fe183     1.0  0.26427  0.10396  0.33139  1.0000
  H   H1882     1.0  0.44462  0.14783  0.31707  1.0000
  H   H1883     1.0  0.45498  0.21186  0.17605  1.0000
  C   C1108     1.0  0.28603  0.98696  0.13111  1.0000
  C   C1109     1.0  0.27654  0.13473  0.34481  1.0000
  H   H1884     1.0  0.26906  0.22720  0.07322  1.0000
  S   S350      1.0  0.26468  0.09030  0.31223  1.0000
  C   C1110     1.0  0.38872  0.17966  0.20889  1.0000
  C   C1111     1.0  0.37469  0.19404  0.21429  1.0000
  H   H1885     1.0  0.39948  0.18032  0.21332  1.0000
  H   H1886     1.0  0.39301  0.18276  0.19517  1.0000
  H   H1887     1.0  0.34630  0.19026  0.14681  1.0000
  H   H1888     1.0  0.37507  0.19552  0.22662  1.0000
  H   H1889     1.0  0.36216  0.19278  0.21442  1.0000
  H   H1890     1.0  0.37647  0.20579  0.20518  1.0000
  C   C1112     1.0  0.32397  0.08672  0.06985  1.0000
  H   H1891     1.0  0.32963  0.13261  0.11705  1.0000
  H   H1892     1.0  0.29874  0.10495  0.98895  1.0000
  N   N80       1.0  0.38534  0.16241  0.21510  1.0000
  H   H1893     1.0  0.29792  0.03826  0.23620  1.0000
  C   C1113     1.0  0.25784  0.03408  0.07624  1.0000
  C   C1114     1.0  0.33477  0.12916  0.33604  1.0000
  C   C1115     1.0  0.26948  0.03912  0.25559  1.0000
  H   H1894     1.0  0.27880  0.17270  0.12164  1.0000
  H   H1895     1.0  0.29315  0.10239  0.15727  1.0000
  H   H1896     1.0  0.26165  0.03993  0.10277  1.0000
  C   C1116     1.0  0.25487  0.02963  0.10664  1.0000
  H   H1897     1.0  0.30343  0.08605  0.10110  1.0000
  H   H1898     1.0  0.32816  0.16711  0.31645  1.0000
  C   C1117     1.0  0.40451  0.22423  0.19778  1.0000
  S   S351      1.0  0.28068  0.16257  0.37364  1.0000
  H   H1899     1.0  0.34442  0.11481  0.08322  1.0000
  H   H1900     1.0  0.32708  0.13985  0.31200  1.0000
  H   H1901     1.0  0.46789  0.21314  0.19774  1.0000
  C   C1118     1.0  0.26300  0.08201  0.22524  1.0000
  N   N81       1.0  0.29503  0.13750  0.14958  1.0000
  C   C1119     1.0  0.28057  0.12892  0.15547  1.0000
  C   C1120     1.0  0.28873  0.15557  0.14220  1.0000
  C   C1121     1.0  0.30274  0.13652  0.16369  1.0000
  C   C1122     1.0  0.30804  0.12895  0.13702  1.0000
  H   H1902     1.0  0.48393  0.19780  0.27111  1.0000
  C   C1123     1.0  0.41683  0.14904  0.21200  1.0000
  H   H1903     1.0  0.36049  0.19938  0.15096  1.0000
  H   H1904     1.0  0.36693  0.20851  0.16897  1.0000
  H   H1905     1.0  0.26990  0.13592  0.16340  1.0000
  H   H1906     1.0  0.27572  0.12873  0.14480  1.0000
  H   H1907     1.0  0.29791  0.16321  0.14069  1.0000
  H   H1908     1.0  0.27751  0.16110  0.15074  1.0000
  H   H1909     1.0  0.29463  0.15580  0.11544  1.0000
  H   H1910     1.0  0.33790  0.22062  0.14121  1.0000
  H   H1911     1.0  0.31298  0.11589  0.14285  1.0000
  H   H1912     1.0  0.30277  0.12759  0.12710  1.0000
  H   H1913     1.0  0.28705  0.06307  0.20650  1.0000
  C   C1124     1.0  0.29300  0.21866  0.04740  1.0000
  H   H1914     1.0  0.32579  0.21490  0.20960  1.0000
  H   H1915     1.0  0.31031  0.07776  0.98312  1.0000
  H   H1916     1.0  0.27389  0.21653  0.01054  1.0000
  C   C1125     1.0  0.27734  0.19422  0.07648  1.0000
  H   H1917     1.0  0.34598  0.18889  0.16781  1.0000
  H   H1918     1.0  0.25157  0.12102  0.38083  1.0000
  H   H1919     1.0  0.27376  0.99855  0.10179  1.0000
  H   H1920     1.0  0.25133  0.21671  0.45086  1.0000
  H   H1921     1.0  0.28889  0.20521  0.42733  1.0000
  H   H1922     1.0  0.34031  0.20384  0.18633  1.0000
  N   N82       1.0  0.38262  0.14791  0.11887  1.0000
  C   C1126     1.0  0.39943  0.14991  0.11931  1.0000
  C   C1127     1.0  0.38290  0.12960  0.12223  1.0000
  C   C1128     1.0  0.36912  0.15538  0.13190  1.0000
  C   C1129     1.0  0.37897  0.15679  0.10207  1.0000
  C   C1130     1.0  0.40093  0.16789  0.11769  1.0000
  C   C1131     1.0  0.39480  0.12014  0.10914  1.0000
  C   C1132     1.0  0.37209  0.14976  0.14968  1.0000
  C   C1133     1.0  0.36380  0.15335  0.09813  1.0000
  H   H1923     1.0  0.40339  0.14211  0.13083  1.0000
  H   H1924     1.0  0.40914  0.14530  0.10902  1.0000
  H   H1925     1.0  0.37027  0.12749  0.12379  1.0000
  H   H1926     1.0  0.38656  0.12298  0.13419  1.0000
  H   H1927     1.0  0.36680  0.16919  0.12861  1.0000
  H   H1928     1.0  0.35707  0.15232  0.13270  1.0000
  H   H1929     1.0  0.37681  0.17052  0.10056  1.0000
  H   H1930     1.0  0.38996  0.15352  0.09212  1.0000
  H   H1931     1.0  0.39908  0.17590  0.10550  1.0000
  H   H1932     1.0  0.39221  0.17374  0.12770  1.0000
  H   H1933     1.0  0.41369  0.16771  0.11853  1.0000
  H   H1934     1.0  0.40800  0.11973  0.10849  1.0000
  H   H1935     1.0  0.39332  0.10702  0.11283  1.0000
  H   H1936     1.0  0.39197  0.12524  0.09668  1.0000
  H   H1937     1.0  0.38308  0.15345  0.15082  1.0000
  H   H1938     1.0  0.37326  0.13617  0.15434  1.0000
  H   H1939     1.0  0.36116  0.15586  0.15803  1.0000
  H   H1940     1.0  0.35722  0.16504  0.09106  1.0000
  H   H1941     1.0  0.35451  0.14894  0.10911  1.0000
  H   H1942     1.0  0.36783  0.14449  0.08977  1.0000
  H   H1943     1.0  0.29878  0.21489  0.43654  1.0000
  H   H1944     1.0  0.28099  0.13615  0.18483  1.0000
  H   H1945     1.0  0.36029  0.17512  0.24170  1.0000
  H   H1946     1.0  0.39209  0.16204  0.23783  1.0000
  H   H1947     1.0  0.40444  0.20477  0.24421  1.0000
  C   C1134     1.0  0.27605  0.14815  0.35137  1.0000
  N   N83       1.0  0.27202  0.05078  0.23876  1.0000
  H   H1948     1.0  0.41282  0.19801  0.35960  1.0000
  C   C1135     1.0  0.38309  0.22116  0.12420  1.0000
  H   H1949     1.0  0.25147  0.21322  0.36815  1.0000
  C   C1136     1.0  0.27415  0.02720  0.22436  1.0000
  H   H1950     1.0  0.25618  0.03823  0.26023  1.0000
  H   H1951     1.0  0.36861  0.14770  0.21467  1.0000
  C   C1137     1.0  0.29029  0.05096  0.23266  1.0000
  H   H1952     1.0  0.42276  0.20220  0.19297  1.0000
  H   H1953     1.0  0.24595  0.00961  0.07029  1.0000
  C   C1138     1.0  0.28417  0.11068  0.16512  1.0000
  H   H1954     1.0  0.47059  0.20574  0.31719  1.0000
  H   H1955     1.0  0.26661  0.05461  0.27347  1.0000
  H   H1956     1.0  0.41852  0.21322  0.34168  1.0000
  H   H1957     1.0  0.26970  0.02523  0.21420  1.0000
  H   H1958     1.0  0.28781  0.02579  0.22033  1.0000
  H   H1959     1.0  0.27104  0.01724  0.23532  1.0000
  H   H1960     1.0  0.32369  0.10066  0.09690  1.0000
  H   H1961     1.0  0.29170  0.02628  0.07912  1.0000
  H   H1962     1.0  0.45828  0.20709  0.29471  1.0000
  H   H1963     1.0  0.26873  0.20098  0.08590  1.0000
  S   S352      1.0  0.25475  0.12587  0.27305  1.0000
  N   N84       1.0  0.43889  0.18851  0.32236  1.0000
  C   C1139     1.0  0.43351  0.20468  0.31069  1.0000
  C   C1140     1.0  0.42598  0.18716  0.33839  1.0000
  C   C1141     1.0  0.45601  0.18631  0.32536  1.0000
  S   S353      1.0  0.29820  0.22779  0.37904  1.0000
  C   C1142     1.0  0.42292  0.20044  0.34849  1.0000
  C   C1143     1.0  0.46058  0.20169  0.32773  1.0000
  C   C1144     1.0  0.27770  0.21091  0.02256  1.0000
  H   H1964     1.0  0.42112  0.20533  0.30841  1.0000
  H   H1965     1.0  0.41374  0.18740  0.33601  1.0000
  H   H1966     1.0  0.42932  0.17512  0.34707  1.0000
  H   H1967     1.0  0.45797  0.17616  0.33640  1.0000
  H   H1968     1.0  0.27365  0.03300  0.28057  1.0000
  C   C1145     1.0  0.37031  0.16080  0.21021  1.0000
  H   H1969     1.0  0.27655  0.02627  0.25480  1.0000
  H   H1970     1.0  0.31113  0.23024  0.19911  1.0000
  H   H1971     1.0  0.25425  0.09348  0.22848  1.0000
  C   C1146     1.0  0.27266  0.21986  0.37148  1.0000
  H   H1972     1.0  0.26737  0.04139  0.07434  1.0000
  C   C1147     1.0  0.28641  0.21412  0.43540  1.0000
  H   H1973     1.0  0.31919  0.10723  0.03994  1.0000
  H   H1974     1.0  0.35758  0.15431  0.24375  1.0000
  H   H1975     1.0  0.29374  0.08609  0.08549  1.0000
  C   C1148     1.0  0.36600  0.16173  0.24461  1.0000
  N   N85       1.0  0.31855  0.10619  0.28327  1.0000
  C   C1149     1.0  0.31200  0.09053  0.29144  1.0000
  C   C1150     1.0  0.31293  0.11757  0.29525  1.0000
  C   C1151     1.0  0.33727  0.10237  0.27851  1.0000
  C   C1152     1.0  0.31187  0.11426  0.26781  1.0000
  C   C1153     1.0  0.31963  0.07584  0.28265  1.0000
  C   C1154     1.0  0.29400  0.12417  0.30000  1.0000
  C   C1155     1.0  0.34623  0.09348  0.29289  1.0000
  C   C1156     1.0  0.31489  0.13189  0.25908  1.0000
  H   H1976     1.0  0.31350  0.08597  0.30450  1.0000
  H   H1977     1.0  0.29835  0.09308  0.29237  1.0000
  H   H1978     1.0  0.31899  0.12843  0.29044  1.0000
  H   H1979     1.0  0.31679  0.11101  0.30713  1.0000
  H   H1980     1.0  0.34190  0.09484  0.26881  1.0000
  H   H1981     1.0  0.34195  0.11398  0.27272  1.0000
  H   H1982     1.0  0.31723  0.10644  0.25845  1.0000
  H   H1983     1.0  0.29824  0.11516  0.27050  1.0000
  H   H1984     1.0  0.31927  0.07948  0.26936  1.0000
  H   H1985     1.0  0.33264  0.07016  0.28389  1.0000
  H   H1986     1.0  0.31235  0.06599  0.28848  1.0000
  H   H1987     1.0  0.28855  0.13178  0.28932  1.0000
  H   H1988     1.0  0.28748  0.11386  0.30621  1.0000
  H   H1989     1.0  0.29136  0.13222  0.30896  1.0000
  H   H1990     1.0  0.34496  0.10195  0.30109  1.0000
  H   H1991     1.0  0.35975  0.08963  0.28766  1.0000
  H   H1992     1.0  0.34187  0.08210  0.30038  1.0000
  H   H1993     1.0  0.30815  0.14120  0.26672  1.0000
  H   H1994     1.0  0.31002  0.13598  0.24755  1.0000
  H   H1995     1.0  0.32823  0.13232  0.25533  1.0000
  C   C1157     1.0  0.33265  0.07256  0.08211  1.0000
  H   H1996     1.0  0.29858  0.12561  0.06763  1.0000
  C   C1158     1.0  0.35818  0.13038  0.34622  1.0000
  C   C1159     1.0  0.34995  0.12460  0.36462  1.0000
  H   H1997     1.0  0.36628  0.11912  0.34182  1.0000
  H   H1998     1.0  0.27557  0.08487  0.22125  1.0000
  H   H1999     1.0  0.42707  0.17640  0.31107  1.0000
  H   H2000     1.0  0.32043  0.15029  0.12566  1.0000
  H   H2001     1.0  0.34423  0.11387  0.36655  1.0000
  H   H2002     1.0  0.35969  0.12034  0.37204  1.0000
  S   S354      1.0  0.31998  0.22219  0.11499  1.0000
  H   H2003     1.0  0.31735  0.17681  0.33328  1.0000
  H   H2004     1.0  0.38114  0.14496  0.31992  1.0000
  H   H2005     1.0  0.32248  0.21045  0.15550  1.0000
  N   N86       1.0  0.25746  0.02141  0.09239  1.0000
  H   H2006     1.0  0.34459  0.10720  0.06618  1.0000
  C   C1160     1.0  0.45501  0.22051  0.19754  1.0000
  H   H2007     1.0  0.35845  0.16517  0.18966  1.0000
  C   C1161     1.0  0.26520  0.04460  0.22772  1.0000
  H   H2008     1.0  0.30047  0.00627  0.09009  1.0000
  H   H2009     1.0  0.34064  0.13478  0.36977  1.0000
  C   C1162     1.0  0.40019  0.15059  0.20734  1.0000
  H   H2010     1.0  0.40270  0.15428  0.19360  1.0000
  H   H2011     1.0  0.35861  0.16827  0.21625  1.0000
  H   H2012     1.0  0.44689  0.21185  0.20541  1.0000
  C   C1163     1.0  0.33655  0.11514  0.07475  1.0000
  C   C1164     1.0  0.29866  0.09418  0.09015  1.0000
  C   C1165     1.0  0.39417  0.22574  0.22660  1.0000
  H   H2013     1.0  0.31243  0.14720  0.32973  1.0000
  C   C1166     1.0  0.45238  0.22392  0.17976  1.0000
  H   H2014     1.0  0.38711  0.14345  0.23745  1.0000
  C   C1167     1.0  0.48603  0.18520  0.27838  1.0000
  H   H2015     1.0  0.33251  0.13253  0.13713  1.0000
  H   H2016     1.0  0.32748  0.12618  0.34894  1.0000
  H   H2017     1.0  0.31202  0.12001  0.08933  1.0000
  C   C1168     1.0  0.37057  0.16585  0.19150  1.0000
  H   H2018     1.0  0.39771  0.13782  0.21057  1.0000
  C   C1169     1.0  0.32074  0.10897  0.08513  1.0000
  H   H2019     1.0  0.28708  0.11519  0.10281  1.0000
  H   H2020     1.0  0.38020  0.15717  0.18453  1.0000
  C   C1170     1.0  0.26852  0.22233  0.03488  1.0000
  H   H2021     1.0  0.27245  0.10602  0.16913  1.0000
  H   H2022     1.0  0.37211  0.17880  0.18611  1.0000
  H   H2023     1.0  0.28776  0.02126  0.10157  1.0000
  H   H2024     1.0  0.29425  0.10940  0.06147  1.0000
  C   C1171     1.0  0.32351  0.13657  0.12895  1.0000
  H   H2025     1.0  0.27631  0.18100  0.08101  1.0000
  C   C1172     1.0  0.35703  0.14267  0.31740  1.0000
  H   H2026     1.0  0.27465  0.10031  0.10660  1.0000
  H   H2027     1.0  0.45022  0.21251  0.32928  1.0000
  H   H2028     1.0  0.30896  0.12845  0.03840  1.0000
  H   H2029     1.0  0.30903  0.12351  0.16845  1.0000
  C   C1173     1.0  0.40439  0.21012  0.23126  1.0000
  H   H2030     1.0  0.32369  0.06573  0.09154  1.0000
  H   H2031     1.0  0.27741  0.00416  0.07987  1.0000
  H   H2032     1.0  0.26867  0.16024  0.34707  1.0000
  H   H2033     1.0  0.25929  0.07965  0.21488  1.0000
  H   H2034     1.0  0.36708  0.15846  0.25777  1.0000
  C   C1174     1.0  0.45618  0.23017  0.22134  1.0000
  H   H2035     1.0  0.48397  0.23147  0.18194  1.0000
  H   H2036     1.0  0.46572  0.18205  0.31483  1.0000
  H   H2037     1.0  0.26507  0.05317  0.21552  1.0000
  C   C1175     1.0  0.27483  0.04331  0.26945  1.0000
  H   H2038     1.0  0.29037  0.19453  0.07578  1.0000
  C   C1176     1.0  0.31586  0.11775  0.04628  1.0000
  H   H2039     1.0  0.43399  0.19962  0.35319  1.0000
  H   H2040     1.0  0.30458  0.06600  0.21168  1.0000
  H   H2041     1.0  0.26966  0.13668  0.33547  1.0000
  H   H2042     1.0  0.40438  0.22938  0.18492  1.0000
  H   H2043     1.0  0.28853  0.10930  0.17651  1.0000
  H   H2044     1.0  0.25185  0.04417  0.23317  1.0000
  C   C1177     1.0  0.44303  0.15677  0.32489  1.0000
  H   H2045     1.0  0.28044  0.08486  0.99177  1.0000
  H   H2046     1.0  0.28799  0.04446  0.26594  1.0000
  S   S355      1.0  0.25190  0.12860  0.31800  1.0000
  H   H2047     1.0  0.26657  0.09008  0.27887  1.0000
  H   H2048     1.0  0.31290  0.14350  0.15930  1.0000
  C   C1178     1.0  0.28918  0.01648  0.09041  1.0000
  H   H2049     1.0  0.29375  0.05883  0.23901  1.0000
  H   H2050     1.0  0.46948  0.22369  0.22009  1.0000
  H   H2051     1.0  0.32721  0.12132  0.04652  1.0000
  C   C1179     1.0  0.33464  0.21364  0.15421  1.0000
  H   H2052     1.0  0.29783  0.14262  0.18780  1.0000
  C   C1180     1.0  0.29073  0.14342  0.17849  1.0000
  H   H2053     1.0  0.24446  0.17911  0.36110  1.0000
  H   H2054     1.0  0.39121  0.20930  0.12779  1.0000
  H   H2055     1.0  0.44101  0.22085  0.28688  1.0000
  H   H2056     1.0  0.27391  0.15273  0.12614  1.0000
  H   H2057     1.0  0.27966  0.20906  0.44800  1.0000
  C   C1181     1.0  0.44545  0.20801  0.29364  1.0000
  H   H2058     1.0  0.30094  0.20699  0.04384  1.0000
  C   C1182     1.0  0.26894  0.99038  0.13788  1.0000
  H   H2059     1.0  0.27432  0.19856  0.02694  1.0000
  H   H2060     1.0  0.24840  0.06732  0.24543  1.0000
  H   H2061     1.0  0.26533  0.07215  0.25005  1.0000
  H   H2062     1.0  0.31786  0.13519  0.46564  1.0000
  H   H2063     1.0  0.26965  0.10379  0.99784  1.0000
  H   H2064     1.0  0.26029  0.02068  0.11688  1.0000
  C   C1183     1.0  0.26423  0.22973  0.06180  1.0000
  H   H2065     1.0  0.25508  0.22189  0.03792  1.0000
  H   H2066     1.0  0.26760  0.22172  0.40670  1.0000
  H   H2067     1.0  0.31929  0.20753  0.18538  1.0000
  N   N87       1.0  0.27487  0.21823  0.05057  1.0000
  H   H2068     1.0  0.24555  0.10300  0.07929  1.0000
  H   H2069     1.0  0.24863  0.19092  0.02316  1.0000
  Fe  Fe184     1.0  0.25019  0.11460  0.30028  1.0000
  H   H2070     1.0  0.29140  0.20921  0.02007  1.0000
  C   C1184     1.0  0.34813  0.23155  0.16248  1.0000
  H   H2071     1.0  0.24458  0.00223  0.10797  1.0000
  C   C1185     1.0  0.32443  0.22374  0.19762  1.0000
  H   H2072     1.0  0.43935  0.23008  0.17892  1.0000
  C   C1186     1.0  0.24598  0.00150  0.08279  1.0000
  C   C1187     1.0  0.29218  0.10649  0.97890  1.0000
  H   H2073     1.0  0.28709  0.12007  0.97527  1.0000
  H   H2074     1.0  0.35934  0.22104  0.18436  1.0000
  H   H2075     1.0  0.25306  0.14607  0.38224  1.0000
  H   H2076     1.0  0.25249  0.14157  0.41171  1.0000
  H   H2077     1.0  0.37338  0.22749  0.16556  1.0000
  N   N88       1.0  0.33297  0.22419  0.16630  1.0000
  H   H2078     1.0  0.25131  0.22758  0.06597  1.0000
  H   H2079     1.0  0.24321  0.22083  0.00966  1.0000
  H   H2080     1.0  0.24315  0.12704  0.36234  1.0000
  C   C1188     1.0  0.24176  0.04724  0.07420  1.0000
  H   H2081     1.0  0.24099  0.22368  0.97822  1.0000
  H   H2082     1.0  0.24240  0.12718  0.40898  1.0000
  H   H2083     1.0  0.24090  0.05792  0.07961  1.0000
  C   C1189     1.0  0.24165  0.22147  0.41528  1.0000
  H   H2084     1.0  0.24349  0.21209  0.40785  1.0000
  S   S356      1.0  0.24046  0.09727  0.34756  1.0000
  H   H2085     1.0  0.46092  0.23142  0.17058  1.0000
  H   H2086     1.0  0.24106  0.19565  0.98795  1.0000
  C   C1190     1.0  0.24119  0.15089  0.39036  1.0000
  H   H2087     1.0  0.24196  0.16367  0.39036  1.0000
  C   C1191     1.0  0.24135  0.14057  0.40811  1.0000
  H   H2088     1.0  0.24559  0.98328  0.14184  1.0000
  C   C1192     1.0  0.30040  0.17403  0.47315  1.0000
  H   H2089     1.0  0.24094  0.15406  0.35835  1.0000
  C   C1193     1.0  0.27887  0.23245  0.37363  1.0000
  C   C1194     1.0  0.27730  0.23159  0.42770  1.0000
  C   C1195     1.0  0.24037  0.12266  0.37600  1.0000
  H   H2090     1.0  0.38643  0.23246  0.23598  1.0000
  Fe  Fe185     1.0  0.34340  0.18022  0.54474  1.0000
  H   H2091     1.0  0.25790  0.20120  0.54834  1.0000
  S   S357      1.0  0.36590  0.18282  0.55208  1.0000
  S   S358      1.0  0.30524  0.17350  0.53224  1.0000
  Fe  Fe186     1.0  0.32481  0.15463  0.54409  1.0000
  S   S359      1.0  0.32647  0.12716  0.54924  1.0000
  S   S360      1.0  0.34631  0.16463  0.52652  1.0000
  H   H2092     1.0  0.28472  0.22068  0.75099  1.0000
  H   H2093     1.0  0.28904  0.11783  0.94804  1.0000
  Fe  Fe187     1.0  0.40377  0.19941  0.64552  1.0000
  S   S361      1.0  0.37804  0.21466  0.64637  1.0000
  S   S362      1.0  0.41066  0.17529  0.66337  1.0000
  Fe  Fe188     1.0  0.38448  0.21867  0.61862  1.0000
  H   H2094     1.0  0.39033  0.22697  0.76363  1.0000
  C   C1196     1.0  0.30715  0.18003  0.48298  1.0000
  H   H2095     1.0  0.42697  0.20517  0.72369  1.0000
  S   S363      1.0  0.40976  0.20150  0.61798  1.0000
  H   H2096     1.0  0.32885  0.10288  0.94994  1.0000
  C   C1197     1.0  0.29514  0.10446  0.95041  1.0000
  C   C1198     1.0  0.29789  0.11558  0.81930  1.0000
  H   H2097     1.0  0.32701  0.07547  0.94688  1.0000
  H   H2098     1.0  0.31291  0.23062  0.67380  1.0000
  Fe  Fe189     1.0  0.26056  0.05053  0.77469  1.0000
  S   S364      1.0  0.28312  0.06149  0.76128  1.0000
  C   C1199     1.0  0.24529  0.98657  0.76729  1.0000
  H   H2099     1.0  0.25894  0.22895  0.57587  1.0000
  Fe  Fe190     1.0  0.26111  0.14881  0.85844  1.0000
  S   S365      1.0  0.27540  0.12502  0.87173  1.0000
  S   S366      1.0  0.26795  0.17236  0.84159  1.0000
  H   H2100     1.0  0.24797  0.12269  0.70814  1.0000
  H   H2101     1.0  0.35696  0.14114  0.49638  1.0000
  Fe  Fe191     1.0  0.25423  0.10569  0.62320  1.0000
  C   C1200     1.0  0.24830  0.21287  0.74778  1.0000
  S   S367      1.0  0.28140  0.09486  0.61523  1.0000
  C   C1201     1.0  0.27906  0.19680  0.76253  1.0000
  S   S368      1.0  0.44338  0.23061  0.60141  1.0000
  Fe  Fe192     1.0  0.30594  0.18825  0.54986  1.0000
  S   S369      1.0  0.25132  0.03445  0.76397  1.0000
  C   C1202     1.0  0.38055  0.17011  0.72329  1.0000
  H   H2102     1.0  0.39109  0.19022  0.56317  1.0000
  H   H2103     1.0  0.31684  0.12974  0.78629  1.0000
  H   H2104     1.0  0.34305  0.21607  0.66601  1.0000
  H   H2105     1.0  0.26697  0.13053  0.81330  1.0000
  H   H2106     1.0  0.30955  0.13134  0.94337  1.0000
  H   H2107     1.0  0.24778  0.19181  0.53913  1.0000
  H   H2108     1.0  0.44873  0.21102  0.63380  1.0000
  Fe  Fe193     1.0  0.34226  0.19913  0.78413  1.0000
  S   S370      1.0  0.32840  0.20433  0.76414  1.0000
  S   S371      1.0  0.34178  0.17424  0.80170  1.0000
  Fe  Fe194     1.0  0.34935  0.21577  0.74780  1.0000
  S   S372      1.0  0.35881  0.21129  0.72230  1.0000
  H   H2109     1.0  0.32709  0.10196  0.78912  1.0000
  H   H2110     1.0  0.26030  0.08298  0.74125  1.0000
  S   S373      1.0  0.36470  0.20811  0.76695  1.0000
  C   C1203     1.0  0.27646  0.12634  0.80262  1.0000
  Fe  Fe195     1.0  0.32889  0.14837  0.70807  1.0000
  S   S374      1.0  0.32008  0.16555  0.68591  1.0000
  S   S375      1.0  0.35552  0.13661  0.70921  1.0000
  Fe  Fe196     1.0  0.29393  0.14752  0.72864  1.0000
  S   S376      1.0  0.28179  0.16459  0.70831  1.0000
  S   S377      1.0  0.27836  0.13807  0.75348  1.0000
  Fe  Fe197     1.0  0.30149  0.14961  0.69160  1.0000
  S   S378      1.0  0.29912  0.13953  0.67109  1.0000
  Fe  Fe198     1.0  0.30128  0.17900  0.70449  1.0000
  S   S379      1.0  0.29549  0.20656  0.70242  1.0000
  S   S380      1.0  0.31186  0.13120  0.71226  1.0000
  S   S381      1.0  0.31183  0.16319  0.72629  1.0000
  H   H2111     1.0  0.31716  0.10722  0.49686  1.0000
  C   C1204     1.0  0.34144  0.21175  0.71527  1.0000
  C   C1205     1.0  0.34295  0.20195  0.70418  1.0000
  C   C1206     1.0  0.32875  0.20069  0.70002  1.0000
  C   C1207     1.0  0.31316  0.20980  0.70634  1.0000
  C   C1208     1.0  0.31178  0.22056  0.71650  1.0000
  C   C1209     1.0  0.32589  0.22120  0.72134  1.0000
  H   H2112     1.0  0.35501  0.19488  0.69931  1.0000
  H   H2113     1.0  0.32986  0.19270  0.69185  1.0000
  N   N89       1.0  0.30410  0.09991  0.96438  1.0000
  H   H2114     1.0  0.25568  0.13493  0.97167  1.0000
  C   C1210     1.0  0.31441  0.13658  0.50797  1.0000
  C   C1211     1.0  0.28295  0.22540  0.53772  1.0000
  C   C1212     1.0  0.27530  0.10305  0.71802  1.0000
  H   H2115     1.0  0.34898  0.19238  0.63691  1.0000
  H   H2116     1.0  0.28825  0.13464  0.51560  1.0000
  H   H2117     1.0  0.29692  0.09094  0.70120  1.0000
  H   H2118     1.0  0.29253  0.07849  0.72221  1.0000
  C   C1213     1.0  0.26117  0.12678  0.66202  1.0000
  C   C1214     1.0  0.27703  0.12813  0.66212  1.0000
  C   C1215     1.0  0.27896  0.13839  0.67128  1.0000
  C   C1216     1.0  0.26491  0.14742  0.68033  1.0000
  H   H2119     1.0  0.42978  0.22846  0.69832  1.0000
  H   H2120     1.0  0.25989  0.11838  0.65532  1.0000
  H   H2121     1.0  0.28781  0.12073  0.65556  1.0000
  H   H2122     1.0  0.26630  0.15552  0.68728  1.0000
  S   S382      1.0  0.24113  0.09496  0.64883  1.0000
  C   C1217     1.0  0.25788  0.13300  0.93185  1.0000
  C   C1218     1.0  0.26759  0.14477  0.92348  1.0000
  C   C1219     1.0  0.27324  0.15276  0.93250  1.0000
  C   C1220     1.0  0.26919  0.14909  0.94991  1.0000
  H   H2123     1.0  0.27106  0.14744  0.91008  1.0000
  C   C1221     1.0  0.29257  0.14458  0.80515  1.0000
  C   C1222     1.0  0.28867  0.17254  0.83111  1.0000
  C   C1223     1.0  0.30180  0.15930  0.83493  1.0000
  C   C1224     1.0  0.31817  0.15984  0.82592  1.0000
  C   C1225     1.0  0.32139  0.17359  0.81314  1.0000
  C   C1226     1.0  0.30821  0.18675  0.80940  1.0000
  C   C1227     1.0  0.29194  0.18625  0.81839  1.0000
  H   H2124     1.0  0.29935  0.14876  0.84487  1.0000
  H   H2125     1.0  0.32837  0.14970  0.82896  1.0000
  H   H2126     1.0  0.31050  0.19743  0.79962  1.0000
  H   H2127     1.0  0.28189  0.19653  0.81541  1.0000
  H   H2128     1.0  0.31387  0.12716  0.82673  1.0000
  C   C1228     1.0  0.28206  0.08236  0.76114  1.0000
  C   C1229     1.0  0.29615  0.08915  0.75342  1.0000
  C   C1230     1.0  0.29516  0.10621  0.75127  1.0000
  C   C1231     1.0  0.28007  0.11658  0.75689  1.0000
  C   C1232     1.0  0.26615  0.10975  0.76517  1.0000
  C   C1233     1.0  0.26717  0.09266  0.76740  1.0000
  H   H2129     1.0  0.30776  0.08124  0.74870  1.0000
  H   H2130     1.0  0.30609  0.11130  0.74528  1.0000
  H   H2131     1.0  0.25450  0.11776  0.76952  1.0000
  H   H2132     1.0  0.25634  0.08761  0.77358  1.0000
  H   H2133     1.0  0.27642  0.11540  0.70960  1.0000
  H   H2134     1.0  0.28263  0.20995  0.73711  1.0000
  C   C1234     1.0  0.26491  0.07240  0.83227  1.0000
  C   C1235     1.0  0.25873  0.08116  0.84508  1.0000
  H   H2135     1.0  0.25923  0.05915  0.81722  1.0000
  H   H2136     1.0  0.27780  0.07130  0.82578  1.0000
  H   H2137     1.0  0.39730  0.20735  0.67715  1.0000
  H   H2138     1.0  0.31809  0.10229  0.93039  1.0000
  H   H2139     1.0  0.42089  0.15075  0.62480  1.0000
  S   S383      1.0  0.27191  0.09123  0.84965  1.0000
  H   H2140     1.0  0.25171  0.21672  0.77646  1.0000
  H   H2141     1.0  0.30804  0.13310  0.96431  1.0000
  C   C1236     1.0  0.25350  0.12963  0.94926  1.0000
  H   H2142     1.0  0.33439  0.11028  0.48064  1.0000
  H   H2143     1.0  0.37492  0.18176  0.62278  1.0000
  N   N90       1.0  0.32879  0.12676  0.49744  1.0000
  C   C1237     1.0  0.39488  0.16527  0.67631  1.0000
  C   C1238     1.0  0.39944  0.14889  0.68492  1.0000
  C   C1239     1.0  0.38726  0.14017  0.69483  1.0000
  C   C1240     1.0  0.37041  0.14778  0.69625  1.0000
  C   C1241     1.0  0.36577  0.16418  0.68775  1.0000
  C   C1242     1.0  0.37801  0.17299  0.67784  1.0000
  H   H2144     1.0  0.41247  0.14287  0.68378  1.0000
  H   H2145     1.0  0.39091  0.12747  0.70138  1.0000
  H   H2146     1.0  0.35278  0.17011  0.68898  1.0000
  H   H2147     1.0  0.37438  0.18570  0.67149  1.0000
  C   C1243     1.0  0.31279  0.11848  0.56680  1.0000
  C   C1244     1.0  0.31818  0.10213  0.57496  1.0000
  C   C1245     1.0  0.30818  0.09497  0.58955  1.0000
  C   C1246     1.0  0.29247  0.10391  0.59589  1.0000
  C   C1247     1.0  0.28672  0.12016  0.58747  1.0000
  C   C1248     1.0  0.29699  0.12753  0.57297  1.0000
  H   H2148     1.0  0.33034  0.09509  0.57023  1.0000
  H   H2149     1.0  0.31269  0.08246  0.59603  1.0000
  H   H2150     1.0  0.27458  0.12713  0.59234  1.0000
  H   H2151     1.0  0.29272  0.14015  0.56660  1.0000
  C   C1249     1.0  0.36460  0.19221  0.56842  1.0000
  C   C1250     1.0  0.34937  0.19756  0.57875  1.0000
  C   C1251     1.0  0.34880  0.20557  0.59123  1.0000
  C   C1252     1.0  0.36347  0.20791  0.59374  1.0000
  C   C1253     1.0  0.37873  0.20212  0.58375  1.0000
  C   C1254     1.0  0.37925  0.19440  0.57108  1.0000
  H   H2152     1.0  0.33806  0.19555  0.57708  1.0000
  H   H2153     1.0  0.33698  0.20985  0.59907  1.0000
  H   H2154     1.0  0.47106  0.20713  0.64844  1.0000
  H   H2155     1.0  0.35334  0.18109  0.65677  1.0000
  C   C1255     1.0  0.27409  0.10933  0.80221  1.0000
  S   S384      1.0  0.25968  0.03296  0.79953  1.0000
  H   H2156     1.0  0.29817  0.10246  0.81981  1.0000
  H   H2157     1.0  0.26337  0.22408  0.81861  1.0000
  H   H2158     1.0  0.35564  0.17784  0.73635  1.0000
  H   H2159     1.0  0.30535  0.08751  0.93321  1.0000
  N   N91       1.0  0.36367  0.15198  0.74803  1.0000
  H   H2160     1.0  0.29199  0.21645  0.53130  1.0000
  H   H2161     1.0  0.30722  0.09608  0.79610  1.0000
  S   S385      1.0  0.36212  0.21821  0.60940  1.0000
  C   C1256     1.0  0.47187  0.21461  0.63597  1.0000
  N   N92       1.0  0.40329  0.23023  0.70252  1.0000
  H   H2162     1.0  0.27659  0.09981  0.81331  1.0000
  H   H2163     1.0  0.35262  0.11021  0.49947  1.0000
  C   C1257     1.0  0.33815  0.13881  0.48435  1.0000
  C   C1258     1.0  0.37230  0.17374  0.63541  1.0000
  S   S386      1.0  0.33033  0.22340  0.79193  1.0000
  C   C1259     1.0  0.34079  0.11521  0.50770  1.0000
  H   H2164     1.0  0.32710  0.05879  0.96463  1.0000
  H   H2165     1.0  0.25714  0.16192  0.58034  1.0000
  H   H2166     1.0  0.27351  0.10488  0.73072  1.0000
  H   H2167     1.0  0.29934  0.10913  0.92362  1.0000
  H   H2168     1.0  0.40683  0.16644  0.63463  1.0000
  H   H2169     1.0  0.25007  0.12429  0.73534  1.0000
  H   H2170     1.0  0.27535  0.08330  0.69784  1.0000
  H   H2171     1.0  0.30029  0.22085  0.57772  1.0000
  H   H2172     1.0  0.39448  0.12263  0.64882  1.0000
  N   N93       1.0  0.26068  0.09743  0.71636  1.0000
  C   C1260     1.0  0.25445  0.06533  0.82750  1.0000
  S   S387      1.0  0.28330  0.20089  0.56583  1.0000
  H   H2173     1.0  0.32472  0.22905  0.72970  1.0000
  H   H2174     1.0  0.29986  0.22810  0.72093  1.0000
  H   H2175     1.0  0.32049  0.15872  0.76395  1.0000
  H   H2176     1.0  0.35457  0.17475  0.61267  1.0000
  C   C1261     1.0  0.32594  0.07247  0.96041  1.0000
  C   C1262     1.0  0.30030  0.12776  0.51898  1.0000
  H   H2177     1.0  0.26622  0.19496  0.73360  1.0000
  H   H2178     1.0  0.26093  0.11039  0.80204  1.0000
  C   C1263     1.0  0.34648  0.14899  0.49067  1.0000
  C   C1264     1.0  0.32333  0.11710  0.48838  1.0000
  H   H2179     1.0  0.38974  0.15927  0.71928  1.0000
  C   C1265     1.0  0.36654  0.15090  0.62645  1.0000
  H   H2180     1.0  0.35770  0.16363  0.72397  1.0000
  H   H2181     1.0  0.28806  0.11859  0.83029  1.0000
  H   H2182     1.0  0.24837  0.07793  0.70036  1.0000
  H   H2183     1.0  0.36943  0.15157  0.78685  1.0000
  H   H2184     1.0  0.33661  0.07536  0.96322  1.0000
  H   H2185     1.0  0.29191  0.15679  0.77892  1.0000
  C   C1266     1.0  0.39406  0.21198  0.68871  1.0000
  H   H2186     1.0  0.26885  0.10491  0.68993  1.0000
  H   H2187     1.0  0.37879  0.17953  0.71177  1.0000
  H   H2188     1.0  0.33452  0.16638  0.77037  1.0000
  C   C1267     1.0  0.33243  0.16291  0.75970  1.0000
  H   H2189     1.0  0.30189  0.11468  0.51852  1.0000
  C   C1268     1.0  0.39508  0.15199  0.62523  1.0000
  H   H2190     1.0  0.32883  0.21055  0.65779  1.0000
  C   C1269     1.0  0.28597  0.15887  0.79158  1.0000
  N   N94       1.0  0.25921  0.22301  0.74977  1.0000
  C   C1270     1.0  0.36348  0.16609  0.73294  1.0000
  H   H2191     1.0  0.36121  0.16957  0.76325  1.0000
  H   H2192     1.0  0.27627  0.19917  0.77516  1.0000
  S   S388      1.0  0.32560  0.20131  0.53250  1.0000
  H   H2193     1.0  0.25729  0.19487  0.94247  1.0000
  H   H2194     1.0  0.31899  0.14139  0.51627  1.0000
  H   H2195     1.0  0.34285  0.14510  0.74403  1.0000
  H   H2196     1.0  0.38010  0.17683  0.64208  1.0000
  C   C1271     1.0  0.25903  0.13772  0.95828  1.0000
  H   H2197     1.0  0.29894  0.12801  0.53215  1.0000
  N   N95       1.0  0.37734  0.15555  0.63492  1.0000
  H   H2198     1.0  0.28450  0.14693  0.81727  1.0000
  Fe  Fe199     1.0  0.32661  0.18469  0.51583  1.0000
  C   C1272     1.0  0.30525  0.10038  0.93364  1.0000
  H   H2199     1.0  0.41829  0.22831  0.74543  1.0000
  H   H2200     1.0  0.34519  0.09289  0.52666  1.0000
  C   C1273     1.0  0.40851  0.15362  0.63315  1.0000
  H   H2201     1.0  0.26064  0.21094  0.84393  1.0000
  H   H2202     1.0  0.32718  0.21919  0.55797  1.0000
  H   H2203     1.0  0.30143  0.17944  0.49595  1.0000
  H   H2204     1.0  0.35429  0.14942  0.63480  1.0000
  H   H2205     1.0  0.38162  0.15980  0.75596  1.0000
  C   C1274     1.0  0.38112  0.12655  0.65444  1.0000
  H   H2206     1.0  0.35668  0.22896  0.51756  1.0000
  C   C1275     1.0  0.40230  0.21688  0.71816  1.0000
  C   C1276     1.0  0.37559  0.14557  0.65247  1.0000
  H   H2207     1.0  0.38575  0.17568  0.73041  1.0000
  C   C1277     1.0  0.30624  0.12376  0.78814  1.0000
  H   H2208     1.0  0.36245  0.14812  0.65946  1.0000
  H   H2209     1.0  0.32757  0.13095  0.95013  1.0000
  H   H2210     1.0  0.33227  0.09147  0.51435  1.0000
  C   C1278     1.0  0.37606  0.13690  0.74289  1.0000
  H   H2211     1.0  0.34558  0.17190  0.64493  1.0000
  C   C1279     1.0  0.37305  0.11959  0.75282  1.0000
  C   C1280     1.0  0.36956  0.14485  0.77744  1.0000
  H   H2212     1.0  0.34563  0.13777  0.76458  1.0000
  H   H2213     1.0  0.37648  0.13682  0.72988  1.0000
  H   H2214     1.0  0.38891  0.13732  0.74301  1.0000
  S   S389      1.0  0.27744  0.15865  0.96066  1.0000
  C   C1281     1.0  0.31464  0.11576  0.82259  1.0000
  H   H2215     1.0  0.38401  0.10996  0.74881  1.0000
  H   H2216     1.0  0.36219  0.11695  0.75009  1.0000
  H   H2217     1.0  0.37131  0.11805  0.76633  1.0000
  H   H2218     1.0  0.38110  0.13500  0.77647  1.0000
  H   H2219     1.0  0.35848  0.13929  0.78252  1.0000
  H   H2220     1.0  0.39535  0.20080  0.69885  1.0000
  C   C1282     1.0  0.25832  0.08186  0.72941  1.0000
  H   H2221     1.0  0.31768  0.10511  0.83288  1.0000
  H   H2222     1.0  0.24545  0.18133  0.94019  1.0000
  H   H2223     1.0  0.25557  0.20721  0.80532  1.0000
  Fe  Fe200     1.0  0.25334  0.12738  0.89336  1.0000
  H   H2224     1.0  0.38091  0.21882  0.69005  1.0000
  H   H2225     1.0  0.25033  0.19197  0.57799  1.0000
  H   H2226     1.0  0.34910  0.21744  0.53762  1.0000
  C   C1283     1.0  0.45903  0.21701  0.62777  1.0000
  C   C1284     1.0  0.25065  0.22858  0.81624  1.0000
  H   H2227     1.0  0.39010  0.20387  0.58556  1.0000
  C   C1285     1.0  0.24791  0.21596  0.96899  1.0000
  H   H2228     1.0  0.29236  0.19030  0.75996  1.0000
  C   C1286     1.0  0.27629  0.22088  0.55468  1.0000
  C   C1287     1.0  0.31900  0.10774  0.95992  1.0000
  H   H2229     1.0  0.30083  0.12963  0.77699  1.0000
  H   H2230     1.0  0.32503  0.11457  0.81168  1.0000
  S   S390      1.0  0.41461  0.22079  0.64439  1.0000
  C   C1288     1.0  0.45978  0.22678  0.61171  1.0000
  S   S391      1.0  0.25159  0.12164  0.92120  1.0000
  S   S392      1.0  0.33060  0.19386  0.48798  1.0000
  C   C1289     1.0  0.31140  0.12751  0.47692  1.0000
  C   C1290     1.0  0.31411  0.10530  0.78739  1.0000
  H   H2231     1.0  0.37474  0.16579  0.60136  1.0000
  C   C1291     1.0  0.36318  0.16299  0.61018  1.0000
  H   H2232     1.0  0.28174  0.10509  0.79090  1.0000
  H   H2233     1.0  0.31506  0.10362  0.77478  1.0000
  H   H2234     1.0  0.30504  0.14627  0.80502  1.0000
  H   H2235     1.0  0.27225  0.16094  0.79353  1.0000
  H   H2236     1.0  0.26142  0.21413  0.96832  1.0000
  C   C1292     1.0  0.29247  0.09125  0.71454  1.0000
  H   H2237     1.0  0.30838  0.14794  0.50006  1.0000
  H   H2238     1.0  0.24453  0.20379  0.82630  1.0000
  H   H2239     1.0  0.26193  0.17173  0.55896  1.0000
  H   H2240     1.0  0.34422  0.12206  0.51511  1.0000
  H   H2241     1.0  0.28453  0.09814  0.95389  1.0000
  H   H2242     1.0  0.37939  0.12071  0.66789  1.0000
  C   C1293     1.0  0.41757  0.20227  0.71885  1.0000
  C   C1294     1.0  0.24580  0.11165  0.71820  1.0000
  H   H2243     1.0  0.30175  0.09603  0.71772  1.0000
  H   H2244     1.0  0.41878  0.21641  0.68379  1.0000
  H   H2245     1.0  0.28105  0.16159  0.92594  1.0000
  H   H2246     1.0  0.28866  0.17056  0.79242  1.0000
  C   C1295     1.0  0.24562  0.20189  0.54585  1.0000
  H   H2247     1.0  0.33739  0.15623  0.49941  1.0000
  H   H2248     1.0  0.39093  0.21187  0.72119  1.0000
  H   H2249     1.0  0.32430  0.10388  0.53018  1.0000
  H   H2250     1.0  0.33068  0.17398  0.74949  1.0000
  H   H2251     1.0  0.39867  0.13928  0.62268  1.0000
  H   H2252     1.0  0.27167  0.18820  0.76212  1.0000
  C   C1296     1.0  0.40578  0.22335  0.68741  1.0000
  C   C1297     1.0  0.24945  0.21494  0.85319  1.0000
  H   H2253     1.0  0.32980  0.14816  0.47676  1.0000
  C   C1298     1.0  0.48671  0.23127  0.61193  1.0000
  Fe  Fe201     1.0  0.24774  0.01842  0.78958  1.0000
  H   H2254     1.0  0.42359  0.19893  0.70672  1.0000
  H   H2255     1.0  0.41352  0.19094  0.72710  1.0000
  N   N96       1.0  0.31132  0.14152  0.61347  1.0000
  C   C1299     1.0  0.30043  0.15225  0.60173  1.0000
  C   C1300     1.0  0.32929  0.14042  0.60450  1.0000
  C   C1301     1.0  0.30841  0.14897  0.62825  1.0000
  C   C1302     1.0  0.30719  0.12455  0.61934  1.0000
  C   C1303     1.0  0.28153  0.15569  0.60907  1.0000
  C   C1304     1.0  0.33556  0.13006  0.59097  1.0000
  C   C1305     1.0  0.30984  0.16729  0.62444  1.0000
  C   C1306     1.0  0.31795  0.11152  0.63070  1.0000
  H   H2256     1.0  0.30393  0.16451  0.59618  1.0000
  H   H2257     1.0  0.30226  0.14654  0.59108  1.0000
  H   H2258     1.0  0.33770  0.13520  0.61336  1.0000
  H   H2259     1.0  0.33165  0.15305  0.59824  1.0000
  H   H2260     1.0  0.29598  0.14803  0.63638  1.0000
  H   H2261     1.0  0.31746  0.14188  0.63616  1.0000
  H   H2262     1.0  0.29408  0.12529  0.62630  1.0000
  H   H2263     1.0  0.30810  0.11929  0.60861  1.0000
  H   H2264     1.0  0.27512  0.16448  0.59944  1.0000
  H   H2265     1.0  0.27661  0.14423  0.61246  1.0000
  H   H2266     1.0  0.27804  0.16157  0.61986  1.0000
  H   H2267     1.0  0.33616  0.11660  0.59613  1.0000
  H   H2268     1.0  0.32790  0.13430  0.58157  1.0000
  H   H2269     1.0  0.34839  0.13146  0.58432  1.0000
  H   H2270     1.0  0.29989  0.17584  0.61836  1.0000
  H   H2271     1.0  0.32219  0.16923  0.61684  1.0000
  H   H2272     1.0  0.30825  0.17090  0.63634  1.0000
  H   H2273     1.0  0.33127  0.10883  0.62452  1.0000
  H   H2274     1.0  0.31363  0.09966  0.63408  1.0000
  H   H2275     1.0  0.31672  0.11524  0.64242  1.0000
  C   C1307     1.0  0.48568  0.22181  0.62815  1.0000
  C   C1308     1.0  0.34637  0.14858  0.75399  1.0000
  C   C1309     1.0  0.35405  0.17995  0.64404  1.0000
  S   S393      1.0  0.24507  0.13186  0.62617  1.0000
  Fe  Fe202     1.0  0.26041  0.11246  0.86292  1.0000
  C   C1310     1.0  0.24713  0.13555  0.67128  1.0000
  H   H2276     1.0  0.40914  0.14478  0.64522  1.0000
  H   H2277     1.0  0.27288  0.13487  0.79122  1.0000
  S   S394      1.0  0.32367  0.16835  0.56319  1.0000
  H   H2278     1.0  0.39649  0.16054  0.61280  1.0000
  H   H2279     1.0  0.37223  0.13845  0.62340  1.0000
  C   C1311     1.0  0.36887  0.15733  0.76079  1.0000
  H   H2280     1.0  0.35710  0.15738  0.60388  1.0000
  C   C1312     1.0  0.24152  0.18657  0.57471  1.0000
  H   H2281     1.0  0.25293  0.22081  0.86140  1.0000
  H   H2282     1.0  0.37344  0.12158  0.64928  1.0000
  C   C1313     1.0  0.33497  0.10012  0.52027  1.0000
  H   H2283     1.0  0.38263  0.14937  0.65932  1.0000
  N   N97       1.0  0.29352  0.12715  0.80363  1.0000
  H   H2284     1.0  0.25170  0.21809  0.52163  1.0000
  C   C1314     1.0  0.27680  0.21315  0.74939  1.0000
  Fe  Fe203     1.0  0.31801  0.22912  0.77061  1.0000
  C   C1315     1.0  0.26474  0.09411  0.69920  1.0000
  Fe  Fe204     1.0  0.41892  0.22423  0.61694  1.0000
  C   C1316     1.0  0.31557  0.12684  0.95413  1.0000
  H   H2285     1.0  0.24819  0.04378  0.68440  1.0000
  C   C1317     1.0  0.24562  0.21326  0.81453  1.0000
  H   H2286     1.0  0.40078  0.22219  0.72904  1.0000
  H   H2287     1.0  0.24622  0.20090  0.92622  1.0000
  C   C1318     1.0  0.33465  0.22086  0.65721  1.0000
  H   H2288     1.0  0.26795  0.07090  0.72601  1.0000
  C   C1319     1.0  0.30922  0.08124  0.96990  1.0000
  C   C1320     1.0  0.32128  0.18683  0.47597  1.0000
  S   S395      1.0  0.25342  0.99027  0.79506  1.0000
  C   C1321     1.0  0.25095  0.09025  0.69353  1.0000
  C   C1322     1.0  0.24896  0.14605  0.68028  1.0000
  C   C1323     1.0  0.25224  0.22793  0.76625  1.0000
  H   H2289     1.0  0.25546  0.08953  0.68027  1.0000
  H   H2290     1.0  0.30047  0.13558  0.48332  1.0000
  H   H2291     1.0  0.35178  0.15817  0.47999  1.0000
  C   C1324     1.0  0.25152  0.16997  0.56986  1.0000
  H   H2292     1.0  0.24287  0.06365  0.73531  1.0000
  H   H2293     1.0  0.25464  0.18942  0.97045  1.0000
  H   H2294     1.0  0.24377  0.99989  0.76291  1.0000
  H   H2295     1.0  0.24595  0.12056  0.95580  1.0000
  H   H2296     1.0  0.28951  0.16872  0.47866  1.0000
  H   H2297     1.0  0.34198  0.22400  0.64439  1.0000
  H   H2298     1.0  0.24348  0.16295  0.56770  1.0000
  C   C1325     1.0  0.35199  0.22965  0.53081  1.0000
  S   S396      1.0  0.24806  0.13606  0.84799  1.0000
  C   C1326     1.0  0.25477  0.20478  0.73259  1.0000
  H   H2299     1.0  0.24617  0.22298  0.95654  1.0000
  H   H2300     1.0  0.25708  0.21407  0.72082  1.0000
  H   H2301     1.0  0.32497  0.10443  0.97073  1.0000
  H   H2302     1.0  0.29949  0.07510  0.96942  1.0000
  C   C1327     1.0  0.24569  0.19442  0.93940  1.0000
  H   H2303     1.0  0.24522  0.19865  0.73180  1.0000
  H   H2304     1.0  0.24598  0.20283  0.75898  1.0000
  H   H2305     1.0  0.24572  0.20317  0.86066  1.0000
  H   H2306     1.0  0.24296  0.03392  0.66090  1.0000
  C   C1328     1.0  0.24220  0.08190  0.85379  1.0000
  H   H2307     1.0  0.24275  0.02059  0.71531  1.0000
  H   H2308     1.0  0.31405  0.22893  0.58400  1.0000
  S   S397      1.0  0.24043  0.15213  0.88067  1.0000
  H   H2309     1.0  0.34737  0.23166  0.56217  1.0000
  C   C1329     1.0  0.24217  0.21859  0.53335  1.0000
  C   C1330     1.0  0.24111  0.11733  0.73475  1.0000
  H   H2310     1.0  0.24339  0.22904  0.53792  1.0000
  H   H2311     1.0  0.24017  0.10682  0.74564  1.0000
  C   C1331     1.0  0.24326  0.19880  0.97421  1.0000
  H   H2312     1.0  0.31055  0.23100  0.54860  1.0000
  H   H2313     1.0  0.36239  0.23139  0.53503  1.0000
  C   C1332     1.0  0.24110  0.07729  0.73374  1.0000
  C   C1333     1.0  0.30685  0.23125  0.57439  1.0000
  C   C1334     1.0  0.31823  0.23135  0.55698  1.0000
  H   H2314     1.0  0.34808  0.13222  0.47544  1.0000
  C   C1335     1.0  0.26405  0.23238  0.56273  1.0000
  H   H2315     1.0  0.24007  0.17143  0.96749  1.0000
  C   C1336     1.0  0.31202  0.45810  0.15896  1.0000
  H   H2316     1.0  0.31166  0.33082  0.13743  1.0000
  H   H2317     1.0  0.46694  0.34965  0.12199  1.0000
  C   C1337     1.0  0.25115  0.37565  0.22781  1.0000
  H   H2318     1.0  0.24076  0.34668  0.16340  1.0000
  C   C1338     1.0  0.24169  0.46031  0.28923  1.0000
  H   H2319     1.0  0.31624  0.24681  0.17260  1.0000
  H   H2320     1.0  0.32955  0.29432  0.16882  1.0000
  C   C1339     1.0  0.48086  0.27819  0.14858  1.0000
  Fe  Fe205     1.0  0.26041  0.38306  0.18508  1.0000
  S   S398      1.0  0.25962  0.40033  0.16034  1.0000
  C   C1340     1.0  0.32343  0.33544  0.13322  1.0000
  Fe  Fe206     1.0  0.29791  0.37719  0.17942  1.0000
  S   S399      1.0  0.30047  0.39421  0.15422  1.0000
  S   S400      1.0  0.31811  0.36207  0.19283  1.0000
  Fe  Fe207     1.0  0.27795  0.41138  0.16616  1.0000
  S   S401      1.0  0.27119  0.43895  0.16653  1.0000
  Fe  Fe208     1.0  0.28190  0.38170  0.15075  1.0000
  S   S402      1.0  0.28628  0.36868  0.12975  1.0000
  S   S403      1.0  0.27702  0.39517  0.19159  1.0000
  S   S404      1.0  0.28108  0.36362  0.17525  1.0000
  Fe  Fe209     1.0  0.42440  0.27434  0.15235  1.0000
  S   S405      1.0  0.40909  0.28619  0.17346  1.0000
  S   S406      1.0  0.45270  0.26972  0.14674  1.0000
  Fe  Fe210     1.0  0.39314  0.27192  0.14207  1.0000
  S   S407      1.0  0.37616  0.28355  0.16275  1.0000
  C   C1341     1.0  0.45349  0.33386  0.14339  1.0000
  Fe  Fe211     1.0  0.39298  0.30139  0.15560  1.0000
  S   S408      1.0  0.38475  0.32926  0.14878  1.0000
  Fe  Fe212     1.0  0.39395  0.26695  0.17819  1.0000
  S   S409      1.0  0.38382  0.25357  0.20400  1.0000
  S   S410      1.0  0.40920  0.29079  0.13404  1.0000
  S   S411      1.0  0.41015  0.25404  0.15800  1.0000
  H   H2321     1.0  0.27485  0.25211  0.05257  1.0000
  H   H2322     1.0  0.31078  0.35029  0.15179  1.0000
  H   H2323     1.0  0.34590  0.30077  0.11816  1.0000
  H   H2324     1.0  0.33008  0.43834  0.21318  1.0000
  C   C1342     1.0  0.48063  0.24146  0.18892  1.0000
  H   H2325     1.0  0.27866  0.24017  0.43465  1.0000
  H   H2326     1.0  0.33311  0.31343  0.09449  1.0000
  C   C1343     1.0  0.46167  0.24804  0.19363  1.0000
  C   C1344     1.0  0.48186  0.29437  0.16742  1.0000
  H   H2327     1.0  0.42342  0.35295  0.15615  1.0000
  C   C1345     1.0  0.25492  0.26980  0.10989  1.0000
  C   C1346     1.0  0.26503  0.25509  0.11670  1.0000
  H   H2328     1.0  0.48710  0.27191  0.13849  1.0000
  C   C1347     1.0  0.28208  0.25311  0.08926  1.0000
  C   C1348     1.0  0.27176  0.26764  0.08243  1.0000
  C   C1349     1.0  0.25808  0.27583  0.09270  1.0000
  H   H2329     1.0  0.25754  0.25311  0.04352  1.0000
  C   C1350     1.0  0.42672  0.25737  0.21647  1.0000
  H   H2330     1.0  0.27440  0.27265  0.06921  1.0000
  H   H2331     1.0  0.26566  0.46610  0.25282  1.0000
  C   C1351     1.0  0.27851  0.24669  0.10638  1.0000
  S   S412      1.0  0.29939  0.24311  0.07635  1.0000
  H   H2332     1.0  0.32417  0.30752  0.12459  1.0000
  C   C1352     1.0  0.48989  0.28585  0.15466  1.0000
  H   H2333     1.0  0.25534  0.37089  0.01541  1.0000
  H   H2334     1.0  0.31911  0.29876  0.15222  1.0000
  H   H2335     1.0  0.25005  0.28685  0.08727  1.0000
  H   H2336     1.0  0.46978  0.32864  0.11951  1.0000
  H   H2337     1.0  0.44794  0.32347  0.11084  1.0000
  H   H2338     1.0  0.40631  0.35786  0.13004  1.0000
  C   C1353     1.0  0.26916  0.36729  0.12288  1.0000
  C   C1354     1.0  0.27007  0.35338  0.11675  1.0000
  C   C1355     1.0  0.25701  0.35244  0.11027  1.0000
  H   H2339     1.0  0.34847  0.37947  0.21379  1.0000
  H   H2340     1.0  0.33015  0.25390  0.14149  1.0000
  C   C1356     1.0  0.25509  0.38026  0.12252  1.0000
  H   H2341     1.0  0.28095  0.34335  0.11691  1.0000
  H   H2342     1.0  0.37343  0.30745  0.12825  1.0000
  C   C1357     1.0  0.24026  0.35752  0.16830  1.0000
  H   H2343     1.0  0.31647  0.24283  0.13821  1.0000
  C   C1358     1.0  0.36612  0.33811  0.16105  1.0000
  C   C1359     1.0  0.35813  0.35453  0.15532  1.0000
  C   C1360     1.0  0.34316  0.36185  0.16487  1.0000
  C   C1361     1.0  0.33636  0.35287  0.18034  1.0000
  C   C1362     1.0  0.34448  0.33653  0.18616  1.0000
  C   C1363     1.0  0.35921  0.32906  0.17642  1.0000
  H   H2344     1.0  0.36345  0.36156  0.14343  1.0000
  H   H2345     1.0  0.33701  0.37449  0.16037  1.0000
  H   H2346     1.0  0.33929  0.32960  0.19818  1.0000
  H   H2347     1.0  0.36536  0.31640  0.18094  1.0000
  C   C1364     1.0  0.26281  0.24853  0.05475  1.0000
  C   C1365     1.0  0.35349  0.32931  0.12256  1.0000
  C   C1366     1.0  0.34128  0.30957  0.14629  1.0000
  H   H2348     1.0  0.25785  0.34170  0.10554  1.0000
  H   H2349     1.0  0.31696  0.31452  0.16354  1.0000
  H   H2350     1.0  0.24484  0.26407  0.37084  1.0000
  H   H2351     1.0  0.25440  0.23558  0.45311  1.0000
  H   H2352     1.0  0.48637  0.23723  0.19985  1.0000
  H   H2353     1.0  0.45731  0.25357  0.18189  1.0000
  H   H2354     1.0  0.27412  0.35640  0.04190  1.0000
  H   H2355     1.0  0.26781  0.26638  0.42226  1.0000
  H   H2356     1.0  0.45307  0.34279  0.15089  1.0000
  H   H2357     1.0  0.30803  0.26043  0.14735  1.0000
  H   H2358     1.0  0.32688  0.37955  0.21755  1.0000
  H   H2359     1.0  0.28495  0.47182  0.25027  1.0000
  H   H2360     1.0  0.27383  0.25833  0.37432  1.0000
  H   H2361     1.0  0.41349  0.26293  0.21583  1.0000
  H   H2362     1.0  0.27307  0.33555  0.05254  1.0000
  H   H2363     1.0  0.35138  0.33942  0.11154  1.0000
  C   C1367     1.0  0.46376  0.27901  0.15514  1.0000
  C   C1368     1.0  0.45592  0.28697  0.16833  1.0000
  C   C1369     1.0  0.46492  0.29459  0.17442  1.0000
  H   H2364     1.0  0.30968  0.45134  0.21216  1.0000
  H   H2365     1.0  0.45800  0.30599  0.12474  1.0000
  H   H2366     1.0  0.44291  0.28732  0.17383  1.0000
  H   H2367     1.0  0.45865  0.30105  0.18437  1.0000
  H   H2368     1.0  0.33957  0.38143  0.19676  1.0000
  H   H2369     1.0  0.25511  0.45643  0.28915  1.0000
  C   C1370     1.0  0.35997  0.23740  0.11174  1.0000
  C   C1371     1.0  0.28960  0.47288  0.17715  1.0000
  C   C1372     1.0  0.46815  0.33637  0.12844  1.0000
  H   H2370     1.0  0.41522  0.33324  0.18155  1.0000
  C   C1373     1.0  0.27905  0.46311  0.17652  1.0000
  C   C1374     1.0  0.28503  0.45056  0.16738  1.0000
  C   C1375     1.0  0.30156  0.44811  0.15857  1.0000
  H   H2371     1.0  0.33058  0.33890  0.15486  1.0000
  C   C1376     1.0  0.41700  0.35361  0.12034  1.0000
  H   H2372     1.0  0.26624  0.46519  0.18326  1.0000
  H   H2373     1.0  0.43068  0.25003  0.19359  1.0000
  H   H2374     1.0  0.27598  0.41422  0.22228  1.0000
  C   C1377     1.0  0.26564  0.34851  0.05049  1.0000
  H   H2375     1.0  0.45546  0.24095  0.22658  1.0000
  H   H2376     1.0  0.38013  0.32406  0.11234  1.0000
  H   H2377     1.0  0.44353  0.34845  0.11401  1.0000
  H   H2378     1.0  0.28325  0.42339  0.20100  1.0000
  C   C1378     1.0  0.26897  0.24851  0.37291  1.0000
  H   H2379     1.0  0.26166  0.37746  0.24721  1.0000
  H   H2380     1.0  0.32188  0.34451  0.12140  1.0000
  H   H2381     1.0  0.25862  0.37955  0.03010  1.0000
  H   H2382     1.0  0.25165  0.47615  0.30571  1.0000
  H   H2383     1.0  0.32758  0.43544  0.18824  1.0000
  H   H2384     1.0  0.41514  0.34264  0.11715  1.0000
  C   C1379     1.0  0.33587  0.31217  0.11918  1.0000
  H   H2385     1.0  0.32948  0.40831  0.16006  1.0000
  H   H2386     1.0  0.42362  0.31583  0.17214  1.0000
  H   H2387     1.0  0.28615  0.23532  0.11176  1.0000
  H   H2388     1.0  0.30589  0.43945  0.19290  1.0000
  N   N98       1.0  0.43659  0.33591  0.13987  1.0000
  C   C1380     1.0  0.24610  0.23893  0.36967  1.0000
  H   H2389     1.0  0.43976  0.30550  0.11856  1.0000
  H   H2390     1.0  0.30619  0.43874  0.15119  1.0000
  C   C1381     1.0  0.33475  0.32190  0.10138  1.0000
  N   N99       1.0  0.33851  0.32165  0.13032  1.0000
  H   H2391     1.0  0.24613  0.42626  0.20574  1.0000
  H   H2392     1.0  0.39538  0.23490  0.13312  1.0000
  H   H2393     1.0  0.43352  0.26762  0.21168  1.0000
  H   H2394     1.0  0.35027  0.29795  0.14368  1.0000
  C   C1382     1.0  0.37525  0.25108  0.12226  1.0000
  H   H2395     1.0  0.24448  0.39850  0.00583  1.0000
  C   C1383     1.0  0.32367  0.34594  0.14511  1.0000
  H   H2396     1.0  0.33217  0.23294  0.19538  1.0000
  H   H2397     1.0  0.24206  0.29848  0.31879  1.0000
  C   C1384     1.0  0.42356  0.34032  0.15482  1.0000
  H   H2398     1.0  0.34626  0.32634  0.09445  1.0000
  C   C1385     1.0  0.31798  0.23822  0.16433  1.0000
  H   H2399     1.0  0.43490  0.36188  0.12790  1.0000
  H   H2400     1.0  0.33340  0.42463  0.16654  1.0000
  H   H2401     1.0  0.26997  0.47456  0.27751  1.0000
  H   H2402     1.0  0.24398  0.33966  0.05213  1.0000
  H   H2403     1.0  0.35462  0.26376  0.11054  1.0000
  C   C1386     1.0  0.32568  0.30411  0.15824  1.0000
  H   H2404     1.0  0.28487  0.43208  0.21723  1.0000
  H   H2405     1.0  0.32382  0.33246  0.10117  1.0000
  H   H2406     1.0  0.28955  0.24349  0.02934  1.0000
  H   H2407     1.0  0.26252  0.25024  0.12995  1.0000
  H   H2408     1.0  0.45729  0.32131  0.15103  1.0000
  H   H2409     1.0  0.25411  0.25528  0.06419  1.0000
  C   C1387     1.0  0.44587  0.31354  0.12202  1.0000
  H   H2410     1.0  0.25437  0.39112  0.12701  1.0000
  C   C1388     1.0  0.27130  0.47663  0.25184  1.0000
  H   H2411     1.0  0.30685  0.23848  0.03867  1.0000
  H   H2412     1.0  0.41680  0.36380  0.10909  1.0000
  H   H2413     1.0  0.47984  0.33268  0.13307  1.0000
  C   C1389     1.0  0.36997  0.31710  0.11747  1.0000
  C   C1390     1.0  0.43454  0.31991  0.13734  1.0000
  H   H2414     1.0  0.43723  0.32734  0.17490  1.0000
  C   C1391     1.0  0.24319  0.36566  0.10942  1.0000
  H   H2415     1.0  0.34479  0.24390  0.16587  1.0000
  H   H2416     1.0  0.34348  0.40321  0.17349  1.0000
  H   H2417     1.0  0.32475  0.45623  0.15198  1.0000
  C   C1392     1.0  0.43382  0.35018  0.12534  1.0000
  H   H2418     1.0  0.32905  0.35696  0.13818  1.0000
  C   C1393     1.0  0.31843  0.24935  0.14677  1.0000
  H   H2419     1.0  0.35571  0.33558  0.13127  1.0000
  H   H2420     1.0  0.25214  0.36163  0.16220  1.0000
  H   H2421     1.0  0.33342  0.40648  0.21874  1.0000
  H   H2422     1.0  0.34728  0.31452  0.15333  1.0000
  C   C1394     1.0  0.25473  0.26510  0.42486  1.0000
  C   C1395     1.0  0.25346  0.25074  0.41799  1.0000
  H   H2423     1.0  0.34434  0.40874  0.19788  1.0000
  H   H2424     1.0  0.42141  0.32036  0.13742  1.0000
  C   C1396     1.0  0.43343  0.24394  0.20606  1.0000
  H   H2425     1.0  0.31155  0.43115  0.22512  1.0000
  H   H2426     1.0  0.36961  0.31106  0.10775  1.0000
  H   H2427     1.0  0.28462  0.23510  0.41481  1.0000
  N   N100      1.0  0.25922  0.23344  0.42767  1.0000
  C   C1397     1.0  0.38546  0.23563  0.12724  1.0000
  C   C1398     1.0  0.36251  0.25186  0.11452  1.0000
  C   C1399     1.0  0.42527  0.32835  0.17166  1.0000
  C   C1400     1.0  0.25035  0.37826  0.24347  1.0000
  C   C1401     1.0  0.30611  0.47050  0.16827  1.0000
  H   H2428     1.0  0.26308  0.37263  0.21961  1.0000
  C   C1402     1.0  0.25252  0.25172  0.37110  1.0000
  H   H2429     1.0  0.43699  0.30960  0.14803  1.0000
  H   H2430     1.0  0.41088  0.34087  0.15346  1.0000
  S   S413      1.0  0.37788  0.26976  0.12522  1.0000
  N   N101      1.0  0.31753  0.41354  0.20118  1.0000
  C   C1403     1.0  0.31675  0.40953  0.18543  1.0000
  C   C1404     1.0  0.30298  0.40855  0.21452  1.0000
  C   C1405     1.0  0.33345  0.40416  0.20662  1.0000
  C   C1406     1.0  0.31683  0.43189  0.19807  1.0000
  C   C1407     1.0  0.33175  0.41163  0.17074  1.0000
  C   C1408     1.0  0.28588  0.42036  0.21352  1.0000
  C   C1409     1.0  0.33709  0.38511  0.20874  1.0000
  C   C1410     1.0  0.31713  0.43838  0.21305  1.0000
  H   H2431     1.0  0.31528  0.39655  0.18769  1.0000
  H   H2432     1.0  0.30549  0.41731  0.18096  1.0000
  H   H2433     1.0  0.30499  0.40708  0.22713  1.0000
  H   H2434     1.0  0.30164  0.39600  0.21434  1.0000
  H   H2435     1.0  0.35024  0.23826  0.10558  1.0000
  H   H2436     1.0  0.45984  0.25870  0.19945  1.0000
  S   S414      1.0  0.31984  0.48243  0.16871  1.0000
  H   H2437     1.0  0.42687  0.25203  0.22974  1.0000
  H   H2438     1.0  0.25634  0.34391  0.03185  1.0000
  C   C1411     1.0  0.24852  0.37701  0.02597  1.0000
  H   H2439     1.0  0.26077  0.25228  0.40499  1.0000
  H   H2440     1.0  0.48638  0.25183  0.18060  1.0000
  H   H2441     1.0  0.30637  0.23328  0.16807  1.0000
  H   H2442     1.0  0.26153  0.35195  0.06276  1.0000
  C   C1412     1.0  0.24227  0.37954  0.11560  1.0000
  H   H2443     1.0  0.24269  0.35832  0.31945  1.0000
  H   H2444     1.0  0.26889  0.23518  0.02782  1.0000
  N   N102      1.0  0.45159  0.23564  0.20467  1.0000
  H   H2445     1.0  0.24649  0.34485  0.27943  1.0000
  H   H2446     1.0  0.24532  0.33011  0.31809  1.0000
  H   H2447     1.0  0.42552  0.23466  0.21125  1.0000
  S   S415      1.0  0.24125  0.32110  0.08659  1.0000
  C   C1413     1.0  0.25084  0.34897  0.04325  1.0000
  H   H2448     1.0  0.24421  0.42516  0.22723  1.0000
  H   H2449     1.0  0.28498  0.48220  0.18455  1.0000
  H   H2450     1.0  0.24317  0.37781  0.05703  1.0000
  H   H2451     1.0  0.24929  0.26370  0.43831  1.0000
  H   H2452     1.0  0.24351  0.31948  0.29678  1.0000
  H   H2453     1.0  0.24773  0.27699  0.41849  1.0000
  H   H2454     1.0  0.24042  0.25314  0.41687  1.0000
  C   C1414     1.0  0.39460  0.23303  0.20980  1.0000
  H   H2455     1.0  0.35337  0.23418  0.14892  1.0000
  C   C1415     1.0  0.29925  0.23307  0.03380  1.0000
  H   H2456     1.0  0.34235  0.26750  0.64858  1.0000
  H   H2457     1.0  0.36310  0.30870  0.74640  1.0000
  H   H2458     1.0  0.44626  0.32970  0.73388  1.0000
  H   H2459     1.0  0.24411  0.32603  0.73280  1.0000
  Fe  Fe213     1.0  0.32951  0.40480  0.69595  1.0000
  S   S416      1.0  0.32194  0.40545  0.72299  1.0000
  S   S417      1.0  0.35591  0.39810  0.68202  1.0000
  Fe  Fe214     1.0  0.29391  0.41251  0.69200  1.0000
  S   S418      1.0  0.28346  0.41391  0.71855  1.0000
  S   S419      1.0  0.27662  0.41829  0.67481  1.0000
  Fe  Fe215     1.0  0.30301  0.42827  0.71509  1.0000
  S   S420      1.0  0.29374  0.45214  0.72440  1.0000
  Fe  Fe216     1.0  0.30332  0.39108  0.72357  1.0000
  S   S421      1.0  0.29909  0.36775  0.74243  1.0000
  S   S422      1.0  0.31192  0.42873  0.68790  1.0000
  S   S423      1.0  0.31237  0.38868  0.69719  1.0000
  Fe  Fe217     1.0  0.42667  0.30297  0.67885  1.0000
  S   S424      1.0  0.44930  0.28593  0.68685  1.0000
  S   S425      1.0  0.42311  0.30262  0.65410  1.0000
  Fe  Fe218     1.0  0.41662  0.31810  0.70887  1.0000
  S   S426      1.0  0.43866  0.30249  0.71943  1.0000
  S   S427      1.0  0.39753  0.33573  0.72329  1.0000
  Fe  Fe219     1.0  0.45326  0.30801  0.69325  1.0000
  H   H2460     1.0  0.30472  0.26220  0.52823  1.0000
  Fe  Fe220     1.0  0.43274  0.28193  0.71209  1.0000
  H   H2461     1.0  0.46881  0.25373  0.66011  1.0000
  S   S428      1.0  0.43175  0.32551  0.68326  1.0000
  S   S429      1.0  0.40958  0.29703  0.70354  1.0000
  H   H2462     1.0  0.33199  0.24548  0.57335  1.0000
  H   H2463     1.0  0.34546  0.29727  0.72638  1.0000
  H   H2464     1.0  0.26727  0.25909  0.83254  1.0000
  H   H2465     1.0  0.26900  0.45825  0.70594  1.0000
  C   C1416     1.0  0.29208  0.27686  0.79108  1.0000
  C   C1417     1.0  0.27523  0.28447  0.79484  1.0000
  H   H2466     1.0  0.30128  0.28180  0.79355  1.0000
  H   H2467     1.0  0.30381  0.47228  0.65721  1.0000
  C   C1418     1.0  0.40334  0.26945  0.74518  1.0000
  H   H2468     1.0  0.40694  0.28131  0.74017  1.0000
  C   C1419     1.0  0.30690  0.46518  0.72349  1.0000
  C   C1420     1.0  0.32966  0.46681  0.67387  1.0000
  H   H2469     1.0  0.29321  0.27733  0.54019  1.0000
  C   C1421     1.0  0.25899  0.34709  0.75742  1.0000
  C   C1422     1.0  0.38287  0.25254  0.71780  1.0000
  C   C1423     1.0  0.32418  0.45965  0.72093  1.0000
  C   C1424     1.0  0.28508  0.25662  0.78057  1.0000
  C   C1425     1.0  0.27256  0.36731  0.78925  1.0000
  H   H2470     1.0  0.46188  0.26872  0.60056  1.0000
  H   H2471     1.0  0.32979  0.44701  0.71956  1.0000
  C   C1426     1.0  0.28030  0.36289  0.74284  1.0000
  C   C1427     1.0  0.27519  0.34938  0.75473  1.0000
  H   H2472     1.0  0.28344  0.34116  0.76250  1.0000
  C   C1428     1.0  0.36701  0.38031  0.69345  1.0000
  C   C1429     1.0  0.37905  0.36868  0.68534  1.0000
  C   C1430     1.0  0.38815  0.35462  0.69445  1.0000
  C   C1431     1.0  0.38553  0.35243  0.71164  1.0000
  C   C1432     1.0  0.37353  0.36405  0.71971  1.0000
  C   C1433     1.0  0.36417  0.37786  0.71068  1.0000
  H   H2473     1.0  0.38123  0.37049  0.67202  1.0000
  H   H2474     1.0  0.39727  0.34561  0.68813  1.0000
  H   H2475     1.0  0.37156  0.36249  0.73298  1.0000
  H   H2476     1.0  0.35518  0.38690  0.71700  1.0000
  C   C1434     1.0  0.26845  0.40201  0.67364  1.0000
  C   C1435     1.0  0.27361  0.38551  0.68173  1.0000
  C   C1436     1.0  0.26785  0.37273  0.67909  1.0000
  H   H2477     1.0  0.28217  0.38255  0.68981  1.0000
  H   H2478     1.0  0.27192  0.35998  0.68526  1.0000
  H   H2479     1.0  0.27227  0.24662  0.81774  1.0000
  H   H2480     1.0  0.25232  0.23712  0.80382  1.0000
  C   C1437     1.0  0.40976  0.28992  0.65511  1.0000
  C   C1438     1.0  0.39475  0.29017  0.66688  1.0000
  C   C1439     1.0  0.26629  0.25212  0.73781  1.0000
  C   C1440     1.0  0.24574  0.25180  0.83026  1.0000
  H   H2481     1.0  0.39116  0.29843  0.67537  1.0000
  H   H2482     1.0  0.42010  0.25120  0.67450  1.0000
  H   H2483     1.0  0.32833  0.24271  0.52521  1.0000
  H   H2484     1.0  0.25497  0.33722  0.76730  1.0000
  H   H2485     1.0  0.32392  0.31673  0.72959  1.0000
  C   C1441     1.0  0.48560  0.31743  0.71088  1.0000
  C   C1442     1.0  0.41421  0.27945  0.64392  1.0000
  H   H2486     1.0  0.45647  0.37447  0.71072  1.0000
  C   C1443     1.0  0.47450  0.25922  0.64718  1.0000
  C   C1444     1.0  0.40971  0.23958  0.74819  1.0000
  C   C1445     1.0  0.35116  0.30633  0.74580  1.0000
  C   C1446     1.0  0.48307  0.25747  0.71209  1.0000
  C   C1447     1.0  0.25847  0.24841  0.55378  1.0000
  H   H2487     1.0  0.26383  0.40410  0.75852  1.0000
  H   H2488     1.0  0.47375  0.31432  0.71748  1.0000
  C   C1448     1.0  0.46580  0.27772  0.64288  1.0000
  S   S430      1.0  0.25974  0.27339  0.52589  1.0000
  C   C1449     1.0  0.25617  0.46546  0.70967  1.0000
  C   C1450     1.0  0.41788  0.23770  0.70069  1.0000
  S   S431      1.0  0.33762  0.24125  0.75217  1.0000
  H   H2489     1.0  0.36645  0.30034  0.72220  1.0000
  H   H2490     1.0  0.33016  0.31874  0.77077  1.0000
  H   H2491     1.0  0.44986  0.32733  0.63157  1.0000
  C   C1451     1.0  0.29701  0.26287  0.78396  1.0000
  C   C1452     1.0  0.24920  0.33152  0.71969  1.0000
  N   N103      1.0  0.32661  0.25030  0.66326  1.0000
  H   H2492     1.0  0.32612  0.26532  0.69118  1.0000
  C   C1453     1.0  0.27069  0.34922  0.79718  1.0000
  H   H2493     1.0  0.31270  0.23961  0.65275  1.0000
  H   H2494     1.0  0.32330  0.33934  0.75981  1.0000
  H   H2495     1.0  0.34982  0.32365  0.70882  1.0000
  H   H2496     1.0  0.44279  0.35035  0.73631  1.0000
  H   H2497     1.0  0.26751  0.23437  0.72391  1.0000
  H   H2498     1.0  0.34234  0.27004  0.55441  1.0000
  H   H2499     1.0  0.37974  0.24433  0.73015  1.0000
  S   S432      1.0  0.39406  0.24174  0.61504  1.0000
  H   H2500     1.0  0.31949  0.46441  0.68502  1.0000
  H   H2501     1.0  0.30989  0.26465  0.56181  1.0000
  C   C1454     1.0  0.26962  0.37327  0.73266  1.0000
  H   H2502     1.0  0.35718  0.45872  0.66825  1.0000
  C   C1455     1.0  0.25722  0.37643  0.66812  1.0000
  C   C1456     1.0  0.29809  0.26032  0.68168  1.0000
  H   H2503     1.0  0.33827  0.34830  0.73201  1.0000
  H   H2504     1.0  0.25295  0.41839  0.65734  1.0000
  C   C1457     1.0  0.26551  0.25306  0.53690  1.0000
  C   C1458     1.0  0.26342  0.27796  0.79164  1.0000
  N   N104      1.0  0.32727  0.24545  0.54983  1.0000
  H   H2505     1.0  0.46439  0.31093  0.60983  1.0000
  H   H2506     1.0  0.32228  0.29462  0.75670  1.0000
  H   H2507     1.0  0.37942  0.27982  0.75902  1.0000
  H   H2508     1.0  0.27363  0.38341  0.72309  1.0000
  H   H2509     1.0  0.46611  0.28331  0.65297  1.0000
  H   H2510     1.0  0.42683  0.34310  0.73149  1.0000
  H   H2511     1.0  0.47939  0.28658  0.60029  1.0000
  H   H2512     1.0  0.28297  0.39377  0.76542  1.0000
  H   H2513     1.0  0.25350  0.46430  0.73590  1.0000
  N   N105      1.0  0.47293  0.28763  0.62623  1.0000
  H   H2514     1.0  0.43122  0.25702  0.68604  1.0000
  C   C1459     1.0  0.25340  0.37090  0.73528  1.0000
  C   C1460     1.0  0.38428  0.27984  0.66751  1.0000
  H   H2515     1.0  0.34627  0.44346  0.68197  1.0000
  S   S433      1.0  0.36293  0.25284  0.77491  1.0000
  H   H2516     1.0  0.31004  0.25702  0.78104  1.0000
  H   H2517     1.0  0.27362  0.47298  0.66010  1.0000
  H   H2518     1.0  0.37157  0.26249  0.71639  1.0000
  H   H2519     1.0  0.35832  0.33486  0.72971  1.0000
  H   H2520     1.0  0.35913  0.32344  0.76512  1.0000
  H   H2521     1.0  0.26628  0.37359  0.81941  1.0000
  H   H2522     1.0  0.30526  0.26796  0.65541  1.0000
  H   H2523     1.0  0.24054  0.36641  0.80997  1.0000
  C   C1461     1.0  0.33883  0.25621  0.64777  1.0000
  S   S434      1.0  0.37666  0.25495  0.65865  1.0000
  H   H2524     1.0  0.30295  0.30578  0.75129  1.0000
  H   H2525     1.0  0.26673  0.26200  0.72630  1.0000
  H   H2526     1.0  0.46155  0.34644  0.71000  1.0000
  H   H2527     1.0  0.26245  0.34534  0.79174  1.0000
  C   C1462     1.0  0.33896  0.24417  0.56062  1.0000
  H   H2528     1.0  0.25612  0.37942  0.76524  1.0000
  H   H2529     1.0  0.32839  0.23717  0.68829  1.0000
  C   C1463     1.0  0.38775  0.26862  0.75583  1.0000
  H   H2530     1.0  0.34357  0.33790  0.77564  1.0000
  N   N106      1.0  0.33826  0.32239  0.74397  1.0000
  H   H2531     1.0  0.42222  0.39525  0.71893  1.0000
  C   C1464     1.0  0.31387  0.30708  0.75505  1.0000
  C   C1465     1.0  0.47383  0.23366  0.60372  1.0000
  C   C1466     1.0  0.38908  0.26889  0.65674  1.0000
  H   H2532     1.0  0.33112  0.33996  0.71066  1.0000
  H   H2533     1.0  0.45687  0.31062  0.64739  1.0000
  C   C1467     1.0  0.26832  0.26431  0.78423  1.0000
  C   C1468     1.0  0.39388  0.23882  0.75842  1.0000
  S   S435      1.0  0.25032  0.36058  0.66421  1.0000
  N   N107      1.0  0.44100  0.36469  0.70125  1.0000
  C   C1469     1.0  0.44982  0.36608  0.68324  1.0000
  C   C1470     1.0  0.42285  0.36606  0.70210  1.0000
  H   H2534     1.0  0.24938  0.40716  0.78788  1.0000
  C   C1471     1.0  0.44397  0.37817  0.70762  1.0000
  C   C1472     1.0  0.46891  0.36388  0.67948  1.0000
  C   C1473     1.0  0.41414  0.38230  0.69188  1.0000
  H   H2535     1.0  0.44721  0.35678  0.67794  1.0000
  H   H2536     1.0  0.44519  0.37847  0.67568  1.0000
  H   H2537     1.0  0.41534  0.36475  0.71493  1.0000
  H   H2538     1.0  0.42130  0.35556  0.69780  1.0000
  H   H2539     1.0  0.44760  0.33788  0.70454  1.0000
  C   C1474     1.0  0.35584  0.29647  0.73202  1.0000
  H   H2540     1.0  0.44422  0.38969  0.69768  1.0000
  H   H2541     1.0  0.47513  0.35080  0.68371  1.0000
  H   H2542     1.0  0.47467  0.24096  0.59118  1.0000
  H   H2543     1.0  0.47034  0.26535  0.71460  1.0000
  H   H2544     1.0  0.32242  0.27142  0.63077  1.0000
  C   C1475     1.0  0.34505  0.33562  0.73001  1.0000
  H   H2545     1.0  0.43768  0.38657  0.73075  1.0000
  C   C1476     1.0  0.38285  0.25336  0.76222  1.0000
  H   H2546     1.0  0.35967  0.28301  0.73751  1.0000
  C   C1477     1.0  0.33302  0.26056  0.63134  1.0000
  H   H2547     1.0  0.44893  0.28564  0.60933  1.0000
  H   H2548     1.0  0.24498  0.37935  0.72781  1.0000
  H   H2549     1.0  0.34773  0.29768  0.75790  1.0000
  H   H2550     1.0  0.48459  0.24749  0.72331  1.0000
  H   H2551     1.0  0.48796  0.25734  0.64645  1.0000
  C   C1478     1.0  0.34821  0.33383  0.76368  1.0000
  C   C1479     1.0  0.34989  0.25723  0.55460  1.0000
  H   H2552     1.0  0.34532  0.47798  0.64509  1.0000
  Fe  Fe221     1.0  0.38934  0.23635  0.64271  1.0000
  C   C1480     1.0  0.34633  0.45696  0.67863  1.0000
  C   C1481     1.0  0.26081  0.39728  0.78583  1.0000
  C   C1482     1.0  0.41434  0.25493  0.74131  1.0000
  C   C1483     1.0  0.25270  0.47399  0.68102  1.0000
  H   H2553     1.0  0.29187  0.25621  0.54852  1.0000
  H   H2554     1.0  0.41741  0.39350  0.69305  1.0000
  H   H2555     1.0  0.34095  0.25583  0.52550  1.0000
  C   C1484     1.0  0.41951  0.25335  0.68679  1.0000
  H   H2556     1.0  0.30896  0.31094  0.76709  1.0000
  H   H2557     1.0  0.34329  0.26854  0.67383  1.0000
  H   H2558     1.0  0.42566  0.27940  0.63466  1.0000
  H   H2559     1.0  0.32167  0.27234  0.54211  1.0000
  H   H2560     1.0  0.48327  0.25197  0.70181  1.0000
  C   C1485     1.0  0.30055  0.26435  0.54102  1.0000
  H   H2561     1.0  0.34756  0.46614  0.71848  1.0000
  H   H2562     1.0  0.45430  0.26534  0.62240  1.0000
  H   H2563     1.0  0.41762  0.24089  0.71243  1.0000
  N   N108      1.0  0.28736  0.42541  0.61960  1.0000
  C   C1486     1.0  0.29579  0.40961  0.62984  1.0000
  C   C1487     1.0  0.27268  0.42161  0.61597  1.0000
  C   C1488     1.0  0.28115  0.43836  0.63004  1.0000
  C   C1489     1.0  0.29988  0.43086  0.60412  1.0000
  C   C1490     1.0  0.31036  0.41088  0.63641  1.0000
  C   C1491     1.0  0.27680  0.40720  0.60698  1.0000
  C   C1492     1.0  0.27224  0.45567  0.62203  1.0000
  C   C1493     1.0  0.29291  0.44201  0.58896  1.0000
  H   H2564     1.0  0.28666  0.40452  0.64073  1.0000
  H   H2565     1.0  0.30099  0.39968  0.62262  1.0000
  H   H2566     1.0  0.26562  0.43252  0.60853  1.0000
  H   H2567     1.0  0.26345  0.41842  0.62766  1.0000
  H   H2568     1.0  0.27245  0.43390  0.64167  1.0000
  H   H2569     1.0  0.29149  0.44065  0.63395  1.0000
  H   H2570     1.0  0.30798  0.43748  0.60689  1.0000
  H   H2571     1.0  0.30834  0.41975  0.59973  1.0000
  H   H2572     1.0  0.30595  0.41760  0.64668  1.0000
  H   H2573     1.0  0.29130  0.25152  0.68048  1.0000
  H   H2574     1.0  0.31976  0.41669  0.62651  1.0000
  H   H2575     1.0  0.28765  0.40787  0.59643  1.0000
  H   H2576     1.0  0.27896  0.39497  0.61573  1.0000
  H   H2577     1.0  0.26597  0.40768  0.60200  1.0000
  H   H2578     1.0  0.26174  0.45521  0.61721  1.0000
  H   H2579     1.0  0.28106  0.46233  0.61217  1.0000
  H   H2580     1.0  0.26687  0.46328  0.63162  1.0000
  H   H2581     1.0  0.30126  0.45070  0.58191  1.0000
  H   H2582     1.0  0.28032  0.44981  0.59183  1.0000
  H   H2583     1.0  0.29324  0.43444  0.58021  1.0000
  C   C1494     1.0  0.32227  0.32017  0.74153  1.0000
  H   H2584     1.0  0.47161  0.32092  0.63119  1.0000
  H   H2585     1.0  0.35112  0.34496  0.70340  1.0000
  H   H2586     1.0  0.32821  0.46062  0.66472  1.0000
  H   H2587     1.0  0.34664  0.25362  0.69240  1.0000
  C   C1495     1.0  0.44817  0.34768  0.71051  1.0000
  H   H2588     1.0  0.29711  0.24278  0.57494  1.0000
  H   H2589     1.0  0.26824  0.39779  0.79439  1.0000
  H   H2590     1.0  0.31300  0.33223  0.74070  1.0000
  H   H2591     1.0  0.28316  0.24512  0.51582  1.0000
  H   H2592     1.0  0.28306  0.34070  0.79482  1.0000
  H   H2593     1.0  0.27935  0.36742  0.77620  1.0000
  C   C1496     1.0  0.27055  0.46608  0.67314  1.0000
  C   C1497     1.0  0.31520  0.26205  0.54918  1.0000
  C   C1498     1.0  0.33408  0.32848  0.75984  1.0000
  H   H2594     1.0  0.47285  0.37216  0.68486  1.0000
  H   H2595     1.0  0.28877  0.27197  0.68341  1.0000
  H   H2596     1.0  0.37264  0.28009  0.67657  1.0000
  C   C1499     1.0  0.47492  0.27884  0.61261  1.0000
  H   H2597     1.0  0.40926  0.26403  0.68951  1.0000
  C   C1500     1.0  0.33524  0.24498  0.67756  1.0000
  H   H2598     1.0  0.44832  0.30271  0.62475  1.0000
  C   C1501     1.0  0.25029  0.45765  0.72818  1.0000
  H   H2599     1.0  0.27973  0.46712  0.67950  1.0000
  C   C1502     1.0  0.40402  0.26874  0.64490  1.0000
  C   C1503     1.0  0.33420  0.47047  0.72040  1.0000
  H   H2600     1.0  0.35075  0.24681  0.64636  1.0000
  S   S436      1.0  0.26865  0.30240  0.80300  1.0000
  S   S437      1.0  0.47863  0.31416  0.68248  1.0000
  H   H2601     1.0  0.31541  0.27566  0.66606  1.0000
  H   H2602     1.0  0.42408  0.37414  0.73097  1.0000
  C   C1504     1.0  0.46120  0.30430  0.62298  1.0000
  C   C1505     1.0  0.46002  0.31630  0.63400  1.0000
  H   H2603     1.0  0.40772  0.26042  0.63644  1.0000
  C   C1506     1.0  0.34415  0.33576  0.71232  1.0000
  C   C1507     1.0  0.45900  0.27450  0.61139  1.0000
  H   H2604     1.0  0.31674  0.39815  0.64175  1.0000
  C   C1508     1.0  0.33786  0.25907  0.68393  1.0000
  S   S438      1.0  0.24725  0.37767  0.61750  1.0000
  C   C1509     1.0  0.44030  0.34277  0.72906  1.0000
  H   H2605     1.0  0.47270  0.25193  0.63924  1.0000
  C   C1510     1.0  0.24773  0.37906  0.77766  1.0000
  H   H2606     1.0  0.48895  0.29517  0.63722  1.0000
  S   S439      1.0  0.43355  0.25598  0.72734  1.0000
  H   H2607     1.0  0.35219  0.34455  0.75420  1.0000
  C   C1511     1.0  0.24569  0.44757  0.69907  1.0000
  C   C1512     1.0  0.27088  0.40259  0.76807  1.0000
  H   H2608     1.0  0.27193  0.45297  0.67276  1.0000
  H   H2609     1.0  0.27373  0.41488  0.76666  1.0000
  H   H2610     1.0  0.40045  0.38380  0.69630  1.0000
  C   C1513     1.0  0.26445  0.24817  0.83010  1.0000
  H   H2611     1.0  0.30306  0.25521  0.69308  1.0000
  H   H2612     1.0  0.48705  0.27795  0.67790  1.0000
  H   H2613     1.0  0.35818  0.25472  0.56334  1.0000
  N   N109      1.0  0.24561  0.46538  0.69832  1.0000
  H   H2614     1.0  0.28144  0.36997  0.79497  1.0000
  H   H2615     1.0  0.38695  0.25238  0.69195  1.0000
  C   C1514     1.0  0.38719  0.24304  0.70377  1.0000
  H   H2616     1.0  0.25907  0.25967  0.78147  1.0000
  H   H2617     1.0  0.32989  0.24987  0.62887  1.0000
  H   H2618     1.0  0.34342  0.26406  0.62099  1.0000
  C   C1515     1.0  0.43109  0.38354  0.72286  1.0000
  H   H2619     1.0  0.35802  0.25666  0.54218  1.0000
  H   H2620     1.0  0.26832  0.23726  0.83966  1.0000
  C   C1516     1.0  0.25267  0.37833  0.82133  1.0000
  C   C1517     1.0  0.32083  0.23571  0.66185  1.0000
  S   S440      1.0  0.29080  0.23886  0.77237  1.0000
  H   H2621     1.0  0.48464  0.26714  0.61379  1.0000
  H   H2622     1.0  0.47363  0.36700  0.66585  1.0000
  H   H2623     1.0  0.45243  0.27809  0.64411  1.0000
  C   C1518     1.0  0.31164  0.26425  0.66591  1.0000
  H   H2624     1.0  0.41700  0.38177  0.67860  1.0000
  H   H2625     1.0  0.39281  0.25869  0.71744  1.0000
  C   C1519     1.0  0.33665  0.24417  0.53241  1.0000
  H   H2626     1.0  0.24912  0.25735  0.56002  1.0000
  H   H2627     1.0  0.34775  0.23686  0.67434  1.0000
  H   H2628     1.0  0.24375  0.32060  0.57917  1.0000
  N   N110      1.0  0.25661  0.38042  0.78996  1.0000
  C   C1520     1.0  0.25727  0.40568  0.66334  1.0000
  C   C1521     1.0  0.25963  0.23803  0.73556  1.0000
  H   H2629     1.0  0.25949  0.33704  0.71980  1.0000
  C   C1522     1.0  0.25210  0.39292  0.66022  1.0000
  H   H2630     1.0  0.24434  0.39585  0.65148  1.0000
  H   H2631     1.0  0.25657  0.44432  0.73105  1.0000
  H   H2632     1.0  0.24482  0.44794  0.67359  1.0000
  H   H2633     1.0  0.25858  0.43992  0.69750  1.0000
  Fe  Fe222     1.0  0.24259  0.31234  0.79944  1.0000
  H   H2634     1.0  0.37651  0.23725  0.70563  1.0000
  C   C1523     1.0  0.24787  0.35814  0.74807  1.0000
  H   H2635     1.0  0.24411  0.36685  0.78115  1.0000
  H   H2636     1.0  0.25802  0.25806  0.74798  1.0000
  H   H2637     1.0  0.25805  0.47816  0.70845  1.0000
  H   H2638     1.0  0.24468  0.47515  0.67241  1.0000
  H   H2639     1.0  0.24368  0.26266  0.81983  1.0000
  C   C1524     1.0  0.27779  0.24156  0.52891  1.0000
  H   H2640     1.0  0.27908  0.24777  0.74004  1.0000
  H   H2641     1.0  0.25474  0.32163  0.71252  1.0000
  H   H2642     1.0  0.26614  0.34719  0.81081  1.0000
  C   C1525     1.0  0.29975  0.48152  0.72547  1.0000
  H   H2643     1.0  0.34810  0.45989  0.68969  1.0000
  H   H2644     1.0  0.24977  0.39116  0.82342  1.0000
  H   H2645     1.0  0.25039  0.28327  0.79509  1.0000
  H   H2646     1.0  0.40402  0.23364  0.67643  1.0000
  C   C1526     1.0  0.48973  0.28976  0.62657  1.0000
  Fe  Fe223     1.0  0.35135  0.23310  0.77276  1.0000
  H   H2647     1.0  0.24725  0.37006  0.83283  1.0000
  H   H2648     1.0  0.24266  0.35196  0.69984  1.0000
  H   H2649     1.0  0.48994  0.28142  0.70277  1.0000
  H   H2650     1.0  0.24712  0.24367  0.73266  1.0000
  C   C1527     1.0  0.24534  0.37800  0.80692  1.0000
  H   H2651     1.0  0.26057  0.23419  0.76912  1.0000
  N   N111      1.0  0.24617  0.48973  0.27243  1.0000
  C   C1528     1.0  0.47427  0.62682  0.19496  1.0000
  H   H2652     1.0  0.32607  0.64770  0.35238  1.0000
  Fe  Fe224     1.0  0.30061  0.51876  0.21143  1.0000
  S   S441      1.0  0.29419  0.51397  0.23910  1.0000
  Fe  Fe225     1.0  0.28563  0.53714  0.18208  1.0000
  S   S442      1.0  0.30961  0.53076  0.16404  1.0000
  S   S443      1.0  0.26151  0.55184  0.17523  1.0000
  Fe  Fe226     1.0  0.31162  0.50507  0.18036  1.0000
  Fe  Fe227     1.0  0.32160  0.53683  0.18127  1.0000
  S   S444      1.0  0.33920  0.55460  0.17119  1.0000
  S   S445      1.0  0.28671  0.51113  0.19719  1.0000
  S   S446      1.0  0.29726  0.54538  0.19781  1.0000
  Fe  Fe228     1.0  0.37722  0.60227  0.21098  1.0000
  S   S447      1.0  0.39154  0.61011  0.18520  1.0000
  S   S448      1.0  0.36816  0.57807  0.21966  1.0000
  Fe  Fe229     1.0  0.37711  0.63447  0.22016  1.0000
  S   S449      1.0  0.39085  0.64508  0.19478  1.0000
  S   S450      1.0  0.36831  0.64905  0.24033  1.0000
  Fe  Fe230     1.0  0.37418  0.63493  0.18580  1.0000
  S   S451      1.0  0.36036  0.64606  0.16526  1.0000
  Fe  Fe231     1.0  0.40695  0.61932  0.19672  1.0000
  S   S452      1.0  0.35891  0.62664  0.21099  1.0000
  S   S453      1.0  0.39419  0.60923  0.22273  1.0000
  S   S454      1.0  0.44000  0.67851  0.29377  1.0000
  S   S455      1.0  0.39946  0.68739  0.29707  1.0000
  Fe  Fe232     1.0  0.41702  0.68714  0.31222  1.0000
  S   S456      1.0  0.41226  0.67559  0.33950  1.0000
  Fe  Fe233     1.0  0.42232  0.68149  0.27758  1.0000
  S   S457      1.0  0.42747  0.66405  0.26047  1.0000
  S   S458      1.0  0.32711  0.69967  0.39456  1.0000
  S   S459      1.0  0.34310  0.69691  0.42627  1.0000
  Fe  Fe234     1.0  0.34063  0.71451  0.40180  1.0000
  H   H2653     1.0  0.28499  0.66127  0.46629  1.0000
  Fe  Fe235     1.0  0.32728  0.68357  0.41979  1.0000
  S   S460      1.0  0.33262  0.65575  0.42392  1.0000
  H   H2654     1.0  0.32224  0.53132  0.24655  1.0000
  H   H2655     1.0  0.29808  0.50501  0.11956  1.0000
  H   H2656     1.0  0.37053  0.68568  0.33304  1.0000
  C   C1529     1.0  0.31128  0.58282  0.20564  1.0000
  C   C1530     1.0  0.31371  0.54274  0.25015  1.0000
  H   H2657     1.0  0.29566  0.72286  0.04840  1.0000
  H   H2658     1.0  0.44941  0.62689  0.26475  1.0000
  S   S461      1.0  0.25756  0.68930  0.08061  1.0000
  H   H2659     1.0  0.25601  0.57989  0.25636  1.0000
  H   H2660     1.0  0.28887  0.51274  0.15494  1.0000
  C   C1531     1.0  0.39038  0.70733  0.23776  1.0000
  H   H2661     1.0  0.34033  0.71858  0.15470  1.0000
  C   C1532     1.0  0.26128  0.63508  0.45339  1.0000
  S   S462      1.0  0.36622  0.71648  0.11926  1.0000
  Fe  Fe236     1.0  0.30769  0.72606  0.11314  1.0000
  S   S463      1.0  0.28895  0.71070  0.12791  1.0000
  S   S464      1.0  0.33121  0.71562  0.09661  1.0000
  C   C1533     1.0  0.26584  0.69580  0.09373  1.0000
  C   C1534     1.0  0.28030  0.70217  0.08735  1.0000
  C   C1535     1.0  0.28715  0.70725  0.09772  1.0000
  C   C1536     1.0  0.27976  0.70561  0.11460  1.0000
  C   C1537     1.0  0.26534  0.69920  0.12100  1.0000
  C   C1538     1.0  0.25827  0.69452  0.11054  1.0000
  H   H2662     1.0  0.28641  0.70289  0.07446  1.0000
  H   H2663     1.0  0.29835  0.71210  0.09269  1.0000
  H   H2664     1.0  0.25950  0.69803  0.13403  1.0000
  H   H2665     1.0  0.30264  0.53870  0.25887  1.0000
  C   C1539     1.0  0.27027  0.52997  0.26123  1.0000
  C   C1540     1.0  0.26769  0.58408  0.24932  1.0000
  C   C1541     1.0  0.31901  0.67856  0.35647  1.0000
  C   C1542     1.0  0.39672  0.68864  0.35115  1.0000
  C   C1543     1.0  0.39374  0.68444  0.36849  1.0000
  C   C1544     1.0  0.38192  0.69518  0.37791  1.0000
  C   C1545     1.0  0.37332  0.71033  0.37000  1.0000
  H   H2666     1.0  0.40073  0.67296  0.37464  1.0000
  H   H2667     1.0  0.37987  0.69201  0.39130  1.0000
  C   C1546     1.0  0.38461  0.65365  0.24576  1.0000
  C   C1547     1.0  0.38144  0.66031  0.25979  1.0000
  C   C1548     1.0  0.39441  0.66413  0.26416  1.0000
  C   C1549     1.0  0.41054  0.66135  0.25444  1.0000
  C   C1550     1.0  0.41351  0.65533  0.24008  1.0000
  C   C1551     1.0  0.40063  0.65134  0.23582  1.0000
  H   H2668     1.0  0.36901  0.66225  0.26743  1.0000
  H   H2669     1.0  0.39200  0.66879  0.27526  1.0000
  H   H2670     1.0  0.42583  0.65356  0.23228  1.0000
  H   H2671     1.0  0.40313  0.64644  0.22486  1.0000
  C   C1552     1.0  0.36254  0.66554  0.15267  1.0000
  C   C1553     1.0  0.37108  0.67548  0.15617  1.0000
  C   C1554     1.0  0.37250  0.69107  0.14568  1.0000
  C   C1555     1.0  0.36504  0.69680  0.13197  1.0000
  C   C1556     1.0  0.35647  0.68683  0.12859  1.0000
  C   C1557     1.0  0.35538  0.67117  0.13882  1.0000
  H   H2672     1.0  0.37646  0.67124  0.16698  1.0000
  H   H2673     1.0  0.37908  0.69883  0.14833  1.0000
  H   H2674     1.0  0.35094  0.69108  0.11790  1.0000
  H   H2675     1.0  0.34893  0.66339  0.13604  1.0000
  C   C1558     1.0  0.26446  0.56949  0.15954  1.0000
  C   C1559     1.0  0.28020  0.57329  0.15351  1.0000
  C   C1560     1.0  0.28270  0.58675  0.14017  1.0000
  C   C1561     1.0  0.26941  0.59664  0.13304  1.0000
  H   H2676     1.0  0.26544  0.71773  0.29590  1.0000
  H   H2677     1.0  0.39465  0.70702  0.24894  1.0000
  H   H2678     1.0  0.29052  0.56577  0.15898  1.0000
  H   H2679     1.0  0.29498  0.58945  0.13532  1.0000
  Fe  Fe237     1.0  0.34362  0.72800  0.10822  1.0000
  Fe  Fe238     1.0  0.24726  0.65709  0.36497  1.0000
  C   C1562     1.0  0.34771  0.56066  0.18462  1.0000
  C   C1563     1.0  0.34898  0.55090  0.20039  1.0000
  C   C1564     1.0  0.35560  0.55619  0.21086  1.0000
  C   C1565     1.0  0.36077  0.57139  0.20578  1.0000
  C   C1566     1.0  0.35952  0.58113  0.19000  1.0000
  C   C1567     1.0  0.35316  0.57570  0.17942  1.0000
  H   H2680     1.0  0.34497  0.53921  0.20446  1.0000
  H   H2681     1.0  0.35664  0.54853  0.22300  1.0000
  H   H2682     1.0  0.36340  0.59288  0.18594  1.0000
  H   H2683     1.0  0.35226  0.58331  0.16724  1.0000
  C   C1568     1.0  0.24584  0.70937  0.35816  1.0000
  C   C1569     1.0  0.32256  0.64782  0.41343  1.0000
  C   C1570     1.0  0.32832  0.63126  0.41190  1.0000
  C   C1571     1.0  0.32122  0.62475  0.40289  1.0000
  H   H2684     1.0  0.47944  0.68779  0.20106  1.0000
  H   H2685     1.0  0.33855  0.62351  0.41741  1.0000
  H   H2686     1.0  0.32605  0.61204  0.40144  1.0000
  H   H2687     1.0  0.27349  0.56580  0.11902  1.0000
  C   C1572     1.0  0.24978  0.54613  0.23871  1.0000
  C   C1573     1.0  0.26519  0.53579  0.23369  1.0000
  C   C1574     1.0  0.27533  0.52751  0.24503  1.0000
  H   H2688     1.0  0.43172  0.70113  0.33736  1.0000
  H   H2689     1.0  0.26888  0.53384  0.22119  1.0000
  C   C1575     1.0  0.24550  0.59037  0.35822  1.0000
  C   C1576     1.0  0.47359  0.58405  0.25585  1.0000
  H   H2690     1.0  0.32031  0.54770  0.25652  1.0000
  H   H2691     1.0  0.30831  0.59312  0.19506  1.0000
  H   H2692     1.0  0.34597  0.71181  0.45859  1.0000
  H   H2693     1.0  0.36128  0.68619  0.31675  1.0000
  S   S465      1.0  0.32593  0.51050  0.19608  1.0000
  H   H2694     1.0  0.39186  0.70714  0.20550  1.0000
  H   H2695     1.0  0.26984  0.71239  0.05322  1.0000
  H   H2696     1.0  0.25536  0.59602  0.35824  1.0000
  Fe  Fe239     1.0  0.40168  0.71392  0.28662  1.0000
  C   C1577     1.0  0.37148  0.70829  0.24266  1.0000
  H   H2697     1.0  0.42811  0.66716  0.14926  1.0000
  H   H2698     1.0  0.32344  0.51545  0.11696  1.0000
  S   S466      1.0  0.27310  0.61289  0.11585  1.0000
  H   H2699     1.0  0.27043  0.59123  0.25683  1.0000
  H   H2700     1.0  0.39599  0.68496  0.21083  1.0000
  C   C1578     1.0  0.30488  0.58011  0.24632  1.0000
  H   H2701     1.0  0.28724  0.71313  0.20515  1.0000
  C   C1579     1.0  0.32289  0.58259  0.23965  1.0000
  H   H2702     1.0  0.28241  0.56086  0.25924  1.0000
  H   H2703     1.0  0.30355  0.57357  0.25960  1.0000
  C   C1580     1.0  0.47938  0.65468  0.34004  1.0000
  H   H2704     1.0  0.26504  0.59230  0.23748  1.0000
  H   H2705     1.0  0.40899  0.71517  0.35318  1.0000
  H   H2706     1.0  0.32346  0.59446  0.23035  1.0000
  H   H2707     1.0  0.24090  0.71202  0.33427  1.0000
  H   H2708     1.0  0.25189  0.64374  0.32908  1.0000
  H   H2709     1.0  0.27479  0.71913  0.34983  1.0000
  H   H2710     1.0  0.36063  0.64615  0.38802  1.0000
  H   H2711     1.0  0.33151  0.57225  0.23435  1.0000
  H   H2712     1.0  0.48420  0.64108  0.34139  1.0000
  H   H2713     1.0  0.38486  0.69589  0.19499  1.0000
  S   S467      1.0  0.41783  0.71416  0.30314  1.0000
  C   C1581     1.0  0.24757  0.59881  0.44967  1.0000
  C   C1582     1.0  0.27192  0.72824  0.33841  1.0000
  C   C1583     1.0  0.29620  0.65113  0.46707  1.0000
  C   C1584     1.0  0.30184  0.65108  0.39757  1.0000
  H   H2714     1.0  0.34243  0.66488  0.45294  1.0000
  H   H2715     1.0  0.29514  0.69494  0.30859  1.0000
  N   N112      1.0  0.24638  0.69978  0.44256  1.0000
  N   N113      1.0  0.42219  0.64194  0.13620  1.0000
  C   C1585     1.0  0.44247  0.69340  0.21282  1.0000
  C   C1586     1.0  0.29602  0.58303  0.22023  1.0000
  S   S468      1.0  0.47861  0.65256  0.20599  1.0000
  Fe  Fe240     1.0  0.31869  0.71275  0.43639  1.0000
  H   H2716     1.0  0.44767  0.61367  0.12909  1.0000
  C   C1587     1.0  0.38759  0.70348  0.34328  1.0000
  C   C1588     1.0  0.34465  0.71019  0.23688  1.0000
  C   C1589     1.0  0.47316  0.67368  0.25155  1.0000
  C   C1590     1.0  0.24450  0.54822  0.25505  1.0000
  C   C1591     1.0  0.44540  0.59311  0.23138  1.0000
  H   H2717     1.0  0.44317  0.68935  0.23848  1.0000
  H   H2718     1.0  0.29117  0.59621  0.22142  1.0000
  C   C1592     1.0  0.25504  0.54058  0.26611  1.0000
  N   N114      1.0  0.29843  0.57180  0.23676  1.0000
  H   H2719     1.0  0.27093  0.49455  0.26531  1.0000
  H   H2720     1.0  0.25404  0.52539  0.13328  1.0000
  H   H2721     1.0  0.25298  0.71556  0.41823  1.0000
  H   H2722     1.0  0.26013  0.63989  0.42772  1.0000
  H   H2723     1.0  0.47275  0.57714  0.24704  1.0000
  H   H2724     1.0  0.25379  0.67771  0.41902  1.0000
  H   H2725     1.0  0.26818  0.69179  0.41212  1.0000
  H   H2726     1.0  0.33881  0.72100  0.24295  1.0000
  Fe  Fe241     1.0  0.24228  0.62247  0.38368  1.0000
  C   C1593     1.0  0.33455  0.67587  0.36342  1.0000
  H   H2727     1.0  0.27819  0.52381  0.26998  1.0000
  H   H2728     1.0  0.44661  0.70757  0.34413  1.0000
  H   H2729     1.0  0.26074  0.54617  0.10808  1.0000
  C   C1594     1.0  0.31177  0.65757  0.46574  1.0000
  H   H2730     1.0  0.32713  0.69545  0.25333  1.0000
  H   H2731     1.0  0.33033  0.67211  0.37709  1.0000
  H   H2732     1.0  0.29656  0.71069  0.03443  1.0000
  H   H2733     1.0  0.46257  0.66781  0.25343  1.0000
  H   H2734     1.0  0.41936  0.62257  0.15873  1.0000
  C   C1595     1.0  0.45230  0.60670  0.23429  1.0000
  C   C1596     1.0  0.29033  0.72276  0.03805  1.0000
  S   S469      1.0  0.24559  0.67616  0.34117  1.0000
  C   C1597     1.0  0.25334  0.64151  0.44000  1.0000
  C   C1598     1.0  0.33400  0.72408  0.16566  1.0000
  H   H2735     1.0  0.38594  0.63930  0.13524  1.0000
  H   H2736     1.0  0.46659  0.70799  0.19915  1.0000
  H   H2737     1.0  0.31396  0.50832  0.13800  1.0000
  H   H2738     1.0  0.44833  0.58444  0.26861  1.0000
  H   H2739     1.0  0.24575  0.49565  0.31156  1.0000
  H   H2740     1.0  0.42235  0.62858  0.27473  1.0000
  N   N115      1.0  0.44819  0.60872  0.25193  1.0000
  S   S470      1.0  0.30064  0.62631  0.38310  1.0000
  H   H2741     1.0  0.47720  0.67747  0.32147  1.0000
  N   N116      1.0  0.46718  0.69463  0.22457  1.0000
  C   C1599     1.0  0.48960  0.67294  0.28590  1.0000
  H   H2742     1.0  0.35121  0.66749  0.38963  1.0000
  S   S471      1.0  0.43503  0.61339  0.18825  1.0000
  H   H2743     1.0  0.36555  0.67771  0.36077  1.0000
  H   H2744     1.0  0.42678  0.64478  0.19870  1.0000
  C   C1600     1.0  0.26406  0.68127  0.42179  1.0000
  H   H2745     1.0  0.45884  0.70816  0.30848  1.0000
  C   C1601     1.0  0.28281  0.71881  0.19349  1.0000
  H   H2746     1.0  0.27698  0.56141  0.24054  1.0000
  S   S472      1.0  0.46320  0.71514  0.27268  1.0000
  H   H2747     1.0  0.43620  0.72077  0.32794  1.0000
  H   H2748     1.0  0.44324  0.60094  0.14942  1.0000
  C   C1602     1.0  0.30797  0.63459  0.39569  1.0000
  H   H2749     1.0  0.48899  0.66062  0.28473  1.0000
  H   H2750     1.0  0.45762  0.59748  0.27430  1.0000
  H   H2751     1.0  0.28645  0.57978  0.21582  1.0000
  S   S473      1.0  0.42313  0.70813  0.26579  1.0000
  H   H2752     1.0  0.42881  0.60693  0.28465  1.0000
  H   H2753     1.0  0.43206  0.59769  0.23083  1.0000
  H   H2754     1.0  0.31160  0.53042  0.12901  1.0000
  H   H2755     1.0  0.29789  0.52545  0.10814  1.0000
  H   H2756     1.0  0.24934  0.61025  0.44019  1.0000
  C   C1603     1.0  0.36330  0.72693  0.21745  1.0000
  H   H2757     1.0  0.28860  0.64768  0.15428  1.0000
  C   C1604     1.0  0.24473  0.70073  0.46026  1.0000
  C   C1605     1.0  0.25164  0.48950  0.30090  1.0000
  C   C1606     1.0  0.28335  0.55422  0.11943  1.0000
  H   H2758     1.0  0.24365  0.51074  0.28303  1.0000
  H   H2759     1.0  0.47004  0.60684  0.18692  1.0000
  H   H2760     1.0  0.26944  0.71844  0.19623  1.0000
  H   H2761     1.0  0.25917  0.57987  0.33700  1.0000
  H   H2762     1.0  0.36569  0.71872  0.24926  1.0000
  C   C1607     1.0  0.24165  0.73179  0.43527  1.0000
  C   C1608     1.0  0.40130  0.73187  0.38423  1.0000
  C   C1609     1.0  0.45632  0.59378  0.26335  1.0000
  C   C1610     1.0  0.26479  0.48400  0.26747  1.0000
  H   H2763     1.0  0.29614  0.62709  0.14957  1.0000
  C   C1611     1.0  0.27140  0.72363  0.04322  1.0000
  S   S474      1.0  0.25471  0.62255  0.40354  1.0000
  H   H2764     1.0  0.34644  0.68289  0.24533  1.0000
  H   H2765     1.0  0.37007  0.69669  0.25214  1.0000
  C   C1612     1.0  0.37608  0.71440  0.35268  1.0000
  H   H2766     1.0  0.31153  0.69133  0.35694  1.0000
  C   C1613     1.0  0.24061  0.50283  0.25805  1.0000
  H   H2767     1.0  0.29437  0.55769  0.12088  1.0000
  C   C1614     1.0  0.48108  0.71200  0.31292  1.0000
  H   H2768     1.0  0.28615  0.55105  0.10722  1.0000
  H   H2769     1.0  0.30365  0.54893  0.22832  1.0000
  C   C1615     1.0  0.39787  0.62998  0.13519  1.0000
  H   H2770     1.0  0.34679  0.64841  0.47041  1.0000
  S   S475      1.0  0.24728  0.64618  0.08559  1.0000
  H   H2771     1.0  0.36217  0.72112  0.19422  1.0000
  C   C1616     1.0  0.47539  0.69907  0.20646  1.0000
  H   H2772     1.0  0.40400  0.66494  0.13843  1.0000
  H   H2773     1.0  0.32149  0.55645  0.22579  1.0000
  H   H2774     1.0  0.33968  0.64437  0.37679  1.0000
  C   C1617     1.0  0.29673  0.51793  0.12094  1.0000
  H   H2775     1.0  0.47876  0.57463  0.26596  1.0000
  C   C1618     1.0  0.34700  0.64593  0.36380  1.0000
  H   H2776     1.0  0.27536  0.69594  0.33821  1.0000
  C   C1619     1.0  0.26639  0.52192  0.12506  1.0000
  H   H2777     1.0  0.43850  0.62862  0.15311  1.0000
  C   C1620     1.0  0.30929  0.65777  0.40626  1.0000
  H   H2778     1.0  0.39761  0.62024  0.12905  1.0000
  H   H2779     1.0  0.34626  0.63768  0.34191  1.0000
  H   H2780     1.0  0.26462  0.49133  0.29667  1.0000
  H   H2781     1.0  0.42107  0.63080  0.11674  1.0000
  H   H2782     1.0  0.24181  0.55212  0.23003  1.0000
  Fe  Fe242     1.0  0.25047  0.63281  0.11124  1.0000
  H   H2783     1.0  0.38957  0.70672  0.32992  1.0000
  C   C1621     1.0  0.48293  0.66405  0.32179  1.0000
  H   H2784     1.0  0.35908  0.63682  0.36424  1.0000
  H   H2785     1.0  0.48490  0.67101  0.22661  1.0000
  H   H2786     1.0  0.44426  0.65987  0.20524  1.0000
  Fe  Fe243     1.0  0.30406  0.71528  0.40687  1.0000
  C   C1622     1.0  0.28162  0.56859  0.24665  1.0000
  H   H2787     1.0  0.33569  0.62724  0.36121  1.0000
  H   H2788     1.0  0.34455  0.69344  0.26165  1.0000
  C   C1623     1.0  0.42226  0.61555  0.27510  1.0000
  H   H2789     1.0  0.25164  0.54306  0.27833  1.0000
  H   H2790     1.0  0.30482  0.67061  0.40734  1.0000
  H   H2791     1.0  0.28422  0.73026  0.33056  1.0000
  H   H2792     1.0  0.37312  0.66027  0.38642  1.0000
  H   H2793     1.0  0.26487  0.50606  0.17375  1.0000
  H   H2794     1.0  0.43102  0.68829  0.21708  1.0000
  C   C1624     1.0  0.27749  0.54080  0.13460  1.0000
  C   C1625     1.0  0.36384  0.66469  0.36409  1.0000
  H   H2795     1.0  0.26527  0.71449  0.43200  1.0000
  H   H2796     1.0  0.37182  0.68400  0.22942  1.0000
  H   H2797     1.0  0.25692  0.52594  0.16210  1.0000
  C   C1626     1.0  0.34080  0.69449  0.24999  1.0000
  S   S476      1.0  0.28296  0.72219  0.39382  1.0000
  H   H2798     1.0  0.40872  0.66878  0.16386  1.0000
  C   C1627     1.0  0.43465  0.71189  0.33999  1.0000
  H   H2799     1.0  0.45620  0.70587  0.24580  1.0000
  H   H2800     1.0  0.24521  0.65552  0.31013  1.0000
  H   H2801     1.0  0.28401  0.54056  0.14423  1.0000
  H   H2802     1.0  0.29224  0.71663  0.30606  1.0000
  H   H2803     1.0  0.31313  0.66737  0.45420  1.0000
  H   H2804     1.0  0.47360  0.71338  0.23278  1.0000
  C   C1628     1.0  0.46237  0.70934  0.23259  1.0000
  H   H2805     1.0  0.27447  0.63632  0.15319  1.0000
  C   C1629     1.0  0.47068  0.71166  0.30292  1.0000
  C   C1630     1.0  0.46438  0.61843  0.19093  1.0000
  H   H2806     1.0  0.27412  0.62838  0.45137  1.0000
  C   C1631     1.0  0.25358  0.59305  0.13933  1.0000
  C   C1632     1.0  0.46702  0.64175  0.20022  1.0000
  S   S477      1.0  0.26249  0.63154  0.36297  1.0000
  C   C1633     1.0  0.36185  0.65926  0.38310  1.0000
  H   H2807     1.0  0.34238  0.73129  0.20521  1.0000
  H   H2808     1.0  0.32593  0.68395  0.47036  1.0000
  C   C1634     1.0  0.36987  0.69590  0.22022  1.0000
  H   H2809     1.0  0.48850  0.63752  0.30756  1.0000
  C   C1635     1.0  0.25071  0.64304  0.31679  1.0000
  N   N117      1.0  0.26321  0.72141  0.32959  1.0000
  H   H2810     1.0  0.47548  0.66007  0.31550  1.0000
  H   H2811     1.0  0.45590  0.67359  0.22808  1.0000
  H   H2812     1.0  0.44988  0.68854  0.20166  1.0000
  H   H2813     1.0  0.31436  0.57114  0.20113  1.0000
  C   C1636     1.0  0.29135  0.70502  0.31557  1.0000
  C   C1637     1.0  0.24639  0.71881  0.33997  1.0000
  H   H2814     1.0  0.32176  0.67789  0.34333  1.0000
  H   H2815     1.0  0.25408  0.59817  0.45944  1.0000
  H   H2816     1.0  0.31111  0.66961  0.36404  1.0000
  S   S478      1.0  0.37735  0.73210  0.28539  1.0000
  C   C1638     1.0  0.31214  0.51814  0.12676  1.0000
  H   H2817     1.0  0.32240  0.58446  0.20860  1.0000
  H   H2818     1.0  0.24213  0.49733  0.24728  1.0000
  H   H2819     1.0  0.26770  0.72168  0.03258  1.0000
  H   H2820     1.0  0.32805  0.58288  0.25007  1.0000
  C   C1639     1.0  0.45043  0.72469  0.22497  1.0000
  H   H2821     1.0  0.39830  0.62377  0.14819  1.0000
  C   C1640     1.0  0.35528  0.66704  0.33870  1.0000
  H   H2822     1.0  0.40730  0.65006  0.11765  1.0000
  H   H2823     1.0  0.44372  0.67046  0.10623  1.0000
  C   C1641     1.0  0.33821  0.63959  0.35408  1.0000
  H   H2824     1.0  0.30907  0.73190  0.16172  1.0000
  H   H2825     1.0  0.25648  0.70272  0.46190  1.0000
  C   C1642     1.0  0.43757  0.61105  0.14005  1.0000
  C   C1643     1.0  0.45223  0.68735  0.22677  1.0000
  H   H2826     1.0  0.35430  0.66703  0.46600  1.0000
  C   C1644     1.0  0.25277  0.63743  0.46931  1.0000
  H   H2827     1.0  0.47875  0.61653  0.25569  1.0000
  C   C1645     1.0  0.41051  0.65390  0.14639  1.0000
  N   N118      1.0  0.31113  0.70656  0.17584  1.0000
  C   C1646     1.0  0.29237  0.70943  0.17952  1.0000
  C   C1647     1.0  0.31769  0.69865  0.16100  1.0000
  C   C1648     1.0  0.31546  0.72341  0.17152  1.0000
  C   C1649     1.0  0.31724  0.69577  0.19103  1.0000
  S   S479      1.0  0.36040  0.72497  0.38144  1.0000
  C   C1650     1.0  0.31277  0.68203  0.16305  1.0000
  S   S480      1.0  0.25968  0.66048  0.38327  1.0000
  C   C1651     1.0  0.33552  0.68594  0.18827  1.0000
  H   H2828     1.0  0.43809  0.72201  0.22651  1.0000
  H   H2829     1.0  0.28826  0.69742  0.18324  1.0000
  H   H2830     1.0  0.33140  0.69634  0.15716  1.0000
  H   H2831     1.0  0.24852  0.51216  0.25364  1.0000
  H   H2832     1.0  0.45556  0.72967  0.21176  1.0000
  H   H2833     1.0  0.25564  0.67302  0.44760  1.0000
  H   H2834     1.0  0.31558  0.70334  0.20026  1.0000
  H   H2835     1.0  0.30955  0.68626  0.19728  1.0000
  H   H2836     1.0  0.24679  0.69019  0.11547  1.0000
  H   H2837     1.0  0.26359  0.63950  0.30961  1.0000
  H   H2838     1.0  0.25379  0.58781  0.44413  1.0000
  H   H2839     1.0  0.29967  0.68413  0.16203  1.0000
  H   H2840     1.0  0.32058  0.67595  0.15282  1.0000
  H   H2841     1.0  0.31472  0.67323  0.17482  1.0000
  C   C1652     1.0  0.33989  0.71469  0.47059  1.0000
  C   C1653     1.0  0.35902  0.68443  0.33042  1.0000
  C   C1654     1.0  0.47572  0.71571  0.28566  1.0000
  H   H2842     1.0  0.34064  0.68498  0.19912  1.0000
  H   H2843     1.0  0.34398  0.69151  0.17724  1.0000
  H   H2844     1.0  0.33622  0.67289  0.18787  1.0000
  N   N119      1.0  0.30454  0.65077  0.11913  1.0000
  C   C1655     1.0  0.30752  0.66401  0.12588  1.0000
  C   C1656     1.0  0.28800  0.64688  0.12898  1.0000
  C   C1657     1.0  0.30384  0.65786  0.10112  1.0000
  C   C1658     1.0  0.31879  0.63594  0.12094  1.0000
  C   C1659     1.0  0.32202  0.67248  0.11554  1.0000
  C   C1660     1.0  0.28703  0.63907  0.14755  1.0000
  C   C1661     1.0  0.29482  0.64976  0.09322  1.0000
  C   C1662     1.0  0.31741  0.61992  0.11698  1.0000
  H   H2845     1.0  0.29619  0.67413  0.12728  1.0000
  H   H2846     1.0  0.31002  0.65889  0.13853  1.0000
  H   H2847     1.0  0.28405  0.63831  0.12400  1.0000
  H   H2848     1.0  0.27805  0.65843  0.12797  1.0000
  H   H2849     1.0  0.29727  0.67115  0.09938  1.0000
  H   H2850     1.0  0.31659  0.65769  0.09322  1.0000
  H   H2851     1.0  0.33056  0.63906  0.11272  1.0000
  H   H2852     1.0  0.32146  0.63262  0.13356  1.0000
  H   H2853     1.0  0.33411  0.66350  0.11399  1.0000
  H   H2854     1.0  0.31973  0.67981  0.10326  1.0000
  H   H2855     1.0  0.32308  0.68153  0.12210  1.0000
  H   H2856     1.0  0.30038  0.70305  0.32339  1.0000
  C   C1663     1.0  0.45308  0.62432  0.25210  1.0000
  H   H2857     1.0  0.27463  0.67037  0.42112  1.0000
  H   H2858     1.0  0.29899  0.63611  0.09515  1.0000
  H   H2859     1.0  0.29715  0.65487  0.07963  1.0000
  H   H2860     1.0  0.28116  0.65302  0.09779  1.0000
  H   H2861     1.0  0.32264  0.61980  0.10366  1.0000
  H   H2862     1.0  0.30464  0.61780  0.12042  1.0000
  H   H2863     1.0  0.32451  0.60896  0.12446  1.0000
  C   C1664     1.0  0.43660  0.64921  0.12495  1.0000
  C   C1665     1.0  0.41268  0.63835  0.12569  1.0000
  C   C1666     1.0  0.43206  0.66649  0.11364  1.0000
  C   C1667     1.0  0.42908  0.62636  0.14774  1.0000
  H   H2864     1.0  0.44442  0.64079  0.11661  1.0000
  N   N120      1.0  0.36279  0.71015  0.22898  1.0000
  H   H2865     1.0  0.25083  0.67468  0.47393  1.0000
  H   H2866     1.0  0.31090  0.72937  0.18236  1.0000
  H   H2867     1.0  0.42505  0.67619  0.12077  1.0000
  H   H2868     1.0  0.27124  0.68475  0.44244  1.0000
  H   H2869     1.0  0.42504  0.66627  0.10467  1.0000
  H   H2870     1.0  0.29832  0.64528  0.45640  1.0000
  C   C1668     1.0  0.47967  0.68146  0.23318  1.0000
  S   S481      1.0  0.30980  0.71928  0.46169  1.0000
  C   C1669     1.0  0.38650  0.69628  0.20724  1.0000
  C   C1670     1.0  0.26289  0.51291  0.16123  1.0000
  H   H2871     1.0  0.44730  0.61856  0.22625  1.0000
  C   C1671     1.0  0.30943  0.55517  0.23436  1.0000
  H   H2872     1.0  0.24262  0.71378  0.04859  1.0000
  H   H2873     1.0  0.36672  0.65772  0.33484  1.0000
  C   C1672     1.0  0.44718  0.62476  0.19243  1.0000
  H   H2874     1.0  0.37589  0.65716  0.35848  1.0000
  C   C1673     1.0  0.24764  0.58120  0.34619  1.0000
  H   H2875     1.0  0.26410  0.54564  0.13971  1.0000
  H   H2876     1.0  0.40036  0.64807  0.15515  1.0000
  H   H2877     1.0  0.47306  0.63751  0.24513  1.0000
  H   H2878     1.0  0.47709  0.67959  0.29140  1.0000
  H   H2879     1.0  0.24648  0.60178  0.18261  1.0000
  N   N121      1.0  0.34979  0.66347  0.35733  1.0000
  H   H2880     1.0  0.34601  0.66560  0.33269  1.0000
  H   H2881     1.0  0.42845  0.60618  0.13674  1.0000
  C   C1674     1.0  0.47167  0.62467  0.24634  1.0000
  H   H2882     1.0  0.33750  0.71173  0.22737  1.0000
  H   H2883     1.0  0.43861  0.70708  0.20932  1.0000
  Fe  Fe244     1.0  0.43934  0.70568  0.28333  1.0000
  H   H2884     1.0  0.29709  0.59276  0.24687  1.0000
  H   H2885     1.0  0.28754  0.71643  0.16817  1.0000
  C   C1675     1.0  0.43998  0.63977  0.19754  1.0000
  C   C1676     1.0  0.25114  0.57938  0.15249  1.0000
  C   C1677     1.0  0.41850  0.66013  0.15693  1.0000
  C   C1678     1.0  0.27364  0.70486  0.32638  1.0000
  S   S482      1.0  0.30307  0.69792  0.43168  1.0000
  C   C1679     1.0  0.44991  0.64828  0.20129  1.0000
  H   H2886     1.0  0.44513  0.65019  0.13218  1.0000
  Fe  Fe245     1.0  0.27335  0.63424  0.38293  1.0000
  S   S483      1.0  0.31743  0.73162  0.41234  1.0000
  N   N122      1.0  0.28014  0.52344  0.13200  1.0000
  H   H2887     1.0  0.26719  0.69865  0.32099  1.0000
  H   H2888     1.0  0.26779  0.50873  0.12448  1.0000
  C   C1680     1.0  0.42043  0.71863  0.35352  1.0000
  H   H2889     1.0  0.33740  0.68826  0.36170  1.0000
  H   H2890     1.0  0.24776  0.61765  0.32454  1.0000
  H   H2891     1.0  0.39727  0.69563  0.23372  1.0000
  H   H2892     1.0  0.34068  0.71848  0.17588  1.0000
  H   H2893     1.0  0.29173  0.65883  0.39193  1.0000
  H   H2894     1.0  0.34853  0.69458  0.33406  1.0000
  H   H2895     1.0  0.40899  0.61460  0.27905  1.0000
  H   H2896     1.0  0.36070  0.69469  0.21383  1.0000
  C   C1681     1.0  0.27975  0.51138  0.14862  1.0000
  C   C1682     1.0  0.24104  0.62975  0.31810  1.0000
  C   C1683     1.0  0.24178  0.49773  0.28713  1.0000
  H   H2897     1.0  0.37599  0.72938  0.21299  1.0000
  H   H2898     1.0  0.44684  0.58149  0.24100  1.0000
  C   C1684     1.0  0.42951  0.61126  0.25788  1.0000
  H   H2899     1.0  0.48720  0.71924  0.20596  1.0000
  H   H2900     1.0  0.40240  0.71831  0.38600  1.0000
  H   H2901     1.0  0.42522  0.59988  0.25859  1.0000
  H   H2902     1.0  0.48274  0.59196  0.24953  1.0000
  H   H2903     1.0  0.39394  0.71825  0.22838  1.0000
  C   C1685     1.0  0.25951  0.68446  0.43940  1.0000
  H   H2904     1.0  0.42390  0.64976  0.16624  1.0000
  H   H2905     1.0  0.47714  0.70886  0.32626  1.0000
  H   H2906     1.0  0.48435  0.65948  0.34800  1.0000
  H   H2907     1.0  0.24854  0.71663  0.36559  1.0000
  H   H2908     1.0  0.36942  0.72608  0.34650  1.0000
  H   H2909     1.0  0.44644  0.63529  0.24422  1.0000
  H   H2910     1.0  0.31326  0.70724  0.15003  1.0000
  H   H2911     1.0  0.24323  0.62174  0.18722  1.0000
  H   H2912     1.0  0.42315  0.62123  0.24888  1.0000
  C   C1686     1.0  0.35600  0.73040  0.20199  1.0000
  H   H2913     1.0  0.46968  0.68285  0.25949  1.0000
  H   H2914     1.0  0.32252  0.64714  0.46341  1.0000
  S   S484      1.0  0.24834  0.65589  0.11956  1.0000
  H   H2915     1.0  0.25426  0.69694  0.35928  1.0000
  C   C1687     1.0  0.25229  0.71499  0.43143  1.0000
  H   H2916     1.0  0.24336  0.60044  0.13368  1.0000
  H   H2917     1.0  0.24264  0.62844  0.30524  1.0000
  H   H2918     1.0  0.28358  0.49826  0.14706  1.0000
  H   H2919     1.0  0.28337  0.73215  0.18969  1.0000
  H   H2920     1.0  0.25424  0.50716  0.15823  1.0000
  Fe  Fe246     1.0  0.24322  0.66945  0.09475  1.0000
  H   H2921     1.0  0.25457  0.52975  0.10409  1.0000
  H   H2922     1.0  0.46590  0.60417  0.22910  1.0000
  H   H2923     1.0  0.48332  0.66367  0.25601  1.0000
  H   H2924     1.0  0.27599  0.53038  0.09806  1.0000
  H   H2925     1.0  0.42332  0.71080  0.36546  1.0000
  C   C1688     1.0  0.34361  0.66203  0.46601  1.0000
  H   H2926     1.0  0.29804  0.68834  0.47022  1.0000
  C   C1689     1.0  0.25539  0.72733  0.30124  1.0000
  H   H2927     1.0  0.45209  0.59011  0.21915  1.0000
  H   H2928     1.0  0.46569  0.65667  0.34484  1.0000
  H   H2929     1.0  0.47733  0.62163  0.23401  1.0000
  H   H2930     1.0  0.24391  0.72245  0.30688  1.0000
  H   H2931     1.0  0.26944  0.48628  0.24047  1.0000
  H   H2932     1.0  0.43544  0.73009  0.36891  1.0000
  C   C1690     1.0  0.26465  0.53277  0.10782  1.0000
  H   H2933     1.0  0.24473  0.72619  0.07054  1.0000
  H   H2934     1.0  0.48746  0.62174  0.19401  1.0000
  Fe  Fe247     1.0  0.24023  0.64878  0.40268  1.0000
  H   H2935     1.0  0.24143  0.56794  0.42959  1.0000
  C   C1691     1.0  0.24018  0.68554  0.47372  1.0000
  H   H2936     1.0  0.29388  0.73248  0.02713  1.0000
  Fe  Fe248     1.0  0.26659  0.64821  0.53379  1.0000
  S   S485      1.0  0.29109  0.64861  0.53839  1.0000
  S   S486      1.0  0.26284  0.62400  0.53183  1.0000
  S   S487      1.0  0.25677  0.50601  0.63423  1.0000
  H   H2937     1.0  0.29645  0.58869  0.58316  1.0000
  S   S488      1.0  0.26921  0.51270  0.67136  1.0000
  S   S489      1.0  0.29580  0.69754  0.57962  1.0000
  H   H2938     1.0  0.42545  0.72409  0.51643  1.0000
  S   S490      1.0  0.43045  0.72184  0.62247  1.0000
  H   H2939     1.0  0.25407  0.58267  0.69721  1.0000
  H   H2940     1.0  0.41184  0.51458  0.77053  1.0000
  H   H2941     1.0  0.46101  0.67052  0.71271  1.0000
  Fe  Fe249     1.0  0.45703  0.71391  0.62448  1.0000
  S   S491      1.0  0.46750  0.68663  0.63158  1.0000
  H   H2942     1.0  0.24970  0.72301  0.62381  1.0000
  Fe  Fe250     1.0  0.30812  0.55105  0.74480  1.0000
  S   S492      1.0  0.30976  0.57392  0.72451  1.0000
  S   S493      1.0  0.29587  0.55025  0.77155  1.0000
  S   S494      1.0  0.33225  0.54818  0.70033  1.0000
  Fe  Fe251     1.0  0.33656  0.56141  0.71756  1.0000
  S   S495      1.0  0.35696  0.57608  0.70868  1.0000
  Fe  Fe252     1.0  0.30528  0.55890  0.70909  1.0000
  S   S496      1.0  0.28891  0.56986  0.69062  1.0000
  S   S497      1.0  0.30084  0.53725  0.73022  1.0000
  Fe  Fe253     1.0  0.40825  0.65029  0.70753  1.0000
  S   S498      1.0  0.41692  0.62686  0.72513  1.0000
  S   S499      1.0  0.41311  0.64923  0.68084  1.0000
  Fe  Fe254     1.0  0.39116  0.66891  0.73502  1.0000
  S   S500      1.0  0.39861  0.64690  0.75492  1.0000
  S   S501      1.0  0.37437  0.69375  0.73823  1.0000
  Fe  Fe255     1.0  0.42369  0.64369  0.73716  1.0000
  Fe  Fe256     1.0  0.39129  0.63227  0.74091  1.0000
  S   S502      1.0  0.37419  0.61419  0.75339  1.0000
  S   S503      1.0  0.41669  0.66686  0.71819  1.0000
  S   S504      1.0  0.38218  0.65452  0.72234  1.0000
  H   H2943     1.0  0.27088  0.71867  0.55230  1.0000
  S   S505      1.0  0.35399  0.71842  0.51079  1.0000
  S   S506      1.0  0.28205  0.66438  0.77309  1.0000
  H   H2944     1.0  0.47932  0.63926  0.71407  1.0000
  C   C1692     1.0  0.26100  0.72913  0.57426  1.0000
  S   S507      1.0  0.26391  0.63445  0.75923  1.0000
  Fe  Fe257     1.0  0.30866  0.72097  0.81383  1.0000
  H   H2945     1.0  0.39303  0.70637  0.50790  1.0000
  S   S508      1.0  0.33129  0.70013  0.81008  1.0000
  C   C1693     1.0  0.25454  0.58329  0.72706  1.0000
  H   H2946     1.0  0.39801  0.53324  0.77400  1.0000
  H   H2947     1.0  0.37570  0.69995  0.53726  1.0000
  H   H2948     1.0  0.37089  0.68170  0.66299  1.0000
  H   H2949     1.0  0.42708  0.67630  0.62034  1.0000
  H   H2950     1.0  0.28609  0.69907  0.49477  1.0000
  H   H2951     1.0  0.40868  0.67331  0.61683  1.0000
  S   S509      1.0  0.28396  0.71426  0.82698  1.0000
  Fe  Fe258     1.0  0.25301  0.63875  0.50925  1.0000
  H   H2952     1.0  0.36427  0.55258  0.74012  1.0000
  H   H2953     1.0  0.31863  0.51921  0.67042  1.0000
  C   C1694     1.0  0.25159  0.70700  0.78446  1.0000
  C   C1695     1.0  0.27431  0.68348  0.77925  1.0000
  C   C1696     1.0  0.25763  0.69160  0.77983  1.0000
  C   C1697     1.0  0.40244  0.69462  0.53720  1.0000
  C   C1698     1.0  0.26217  0.71408  0.78891  1.0000
  C   C1699     1.0  0.27874  0.70590  0.78854  1.0000
  C   C1700     1.0  0.28483  0.69072  0.78359  1.0000
  H   H2954     1.0  0.41464  0.69710  0.50493  1.0000
  C   C1701     1.0  0.33136  0.66650  0.76776  1.0000
  H   H2955     1.0  0.28700  0.71126  0.79197  1.0000
  H   H2956     1.0  0.29763  0.68466  0.78333  1.0000
  H   H2957     1.0  0.31942  0.64463  0.76360  1.0000
  H   H2958     1.0  0.37056  0.65873  0.65515  1.0000
  H   H2959     1.0  0.41512  0.71860  0.54932  1.0000
  H   H2960     1.0  0.46249  0.65385  0.63662  1.0000
  H   H2961     1.0  0.39241  0.67503  0.66235  1.0000
  H   H2962     1.0  0.40153  0.71015  0.65636  1.0000
  H   H2963     1.0  0.42841  0.69835  0.54875  1.0000
  C   C1702     1.0  0.45705  0.66224  0.74722  1.0000
  C   C1703     1.0  0.46786  0.67062  0.74986  1.0000
  H   H2964     1.0  0.44459  0.66875  0.74585  1.0000
  H   H2965     1.0  0.46360  0.68357  0.75054  1.0000
  C   C1704     1.0  0.34320  0.69883  0.78999  1.0000
  C   C1705     1.0  0.33906  0.71039  0.77591  1.0000
  C   C1706     1.0  0.34872  0.70877  0.76008  1.0000
  C   C1707     1.0  0.36252  0.69554  0.75823  1.0000
  C   C1708     1.0  0.36664  0.68396  0.77228  1.0000
  C   C1709     1.0  0.35704  0.68564  0.78810  1.0000
  H   H2966     1.0  0.32849  0.72061  0.77720  1.0000
  H   H2967     1.0  0.34540  0.71777  0.74929  1.0000
  H   H2968     1.0  0.37737  0.67387  0.77102  1.0000
  H   H2969     1.0  0.36037  0.67673  0.79895  1.0000
  C   C1710     1.0  0.27802  0.56564  0.77615  1.0000
  C   C1711     1.0  0.26843  0.56390  0.79234  1.0000
  C   C1712     1.0  0.25454  0.57632  0.79660  1.0000
  H   H2970     1.0  0.38167  0.72051  0.66571  1.0000
  C   C1713     1.0  0.25980  0.59239  0.76845  1.0000
  C   C1714     1.0  0.27352  0.57975  0.76411  1.0000
  H   H2971     1.0  0.27185  0.55296  0.80166  1.0000
  H   H2972     1.0  0.28804  0.61326  0.55124  1.0000
  H   H2973     1.0  0.25644  0.60336  0.75920  1.0000
  H   H2974     1.0  0.28083  0.58103  0.75160  1.0000
  C   C1715     1.0  0.36850  0.60478  0.74053  1.0000
  C   C1716     1.0  0.37691  0.60551  0.72401  1.0000
  C   C1717     1.0  0.37307  0.59683  0.71435  1.0000
  C   C1718     1.0  0.36066  0.58751  0.72105  1.0000
  C   C1719     1.0  0.35184  0.58721  0.73743  1.0000
  C   C1720     1.0  0.35582  0.59576  0.74716  1.0000
  H   H2975     1.0  0.38669  0.61244  0.71877  1.0000
  H   H2976     1.0  0.37989  0.59719  0.70166  1.0000
  H   H2977     1.0  0.34224  0.58008  0.74272  1.0000
  H   H2978     1.0  0.34930  0.59510  0.75996  1.0000
  C   C1721     1.0  0.45211  0.67662  0.64528  1.0000
  C   C1722     1.0  0.43958  0.68471  0.65660  1.0000
  C   C1723     1.0  0.42779  0.67619  0.66800  1.0000
  C   C1724     1.0  0.42828  0.65980  0.66767  1.0000
  C   C1725     1.0  0.44069  0.65185  0.65625  1.0000
  C   C1726     1.0  0.45278  0.66013  0.64530  1.0000
  H   H2979     1.0  0.43912  0.69744  0.65669  1.0000
  H   H2980     1.0  0.41816  0.68238  0.67680  1.0000
  H   H2981     1.0  0.30137  0.72570  0.49420  1.0000
  H   H2982     1.0  0.24363  0.54153  0.72167  1.0000
  C   C1727     1.0  0.32243  0.63441  0.49639  1.0000
  C   C1728     1.0  0.41368  0.71788  0.58726  1.0000
  H   H2983     1.0  0.42435  0.71192  0.59276  1.0000
  C   C1729     1.0  0.27429  0.52893  0.67649  1.0000
  C   C1730     1.0  0.26823  0.54566  0.66974  1.0000
  C   C1731     1.0  0.27296  0.55826  0.67385  1.0000
  C   C1732     1.0  0.28377  0.55413  0.68468  1.0000
  C   C1733     1.0  0.28983  0.53741  0.69133  1.0000
  C   C1734     1.0  0.28498  0.52487  0.68739  1.0000
  H   H2984     1.0  0.25993  0.54891  0.66138  1.0000
  H   H2985     1.0  0.26815  0.57117  0.66873  1.0000
  H   H2986     1.0  0.29829  0.53406  0.69953  1.0000
  H   H2987     1.0  0.28956  0.51199  0.69282  1.0000
  C   C1735     1.0  0.29171  0.66319  0.54907  1.0000
  C   C1736     1.0  0.27763  0.66997  0.55995  1.0000
  C   C1737     1.0  0.27894  0.68048  0.56935  1.0000
  C   C1738     1.0  0.29419  0.68469  0.56748  1.0000
  C   C1739     1.0  0.30811  0.67827  0.55624  1.0000
  C   C1740     1.0  0.30693  0.66736  0.54728  1.0000
  H   H2988     1.0  0.26582  0.66692  0.56132  1.0000
  H   H2989     1.0  0.31990  0.68141  0.55471  1.0000
  H   H2990     1.0  0.31786  0.66217  0.53889  1.0000
  H   H2991     1.0  0.26647  0.56600  0.56500  1.0000
  Fe  Fe259     1.0  0.24481  0.53079  0.62034  1.0000
  H   H2992     1.0  0.26810  0.68543  0.57798  1.0000
  S   S510      1.0  0.33533  0.53937  0.73886  1.0000
  H   H2993     1.0  0.34084  0.48675  0.68513  1.0000
  H   H2994     1.0  0.43235  0.70234  0.51927  1.0000
  C   C1741     1.0  0.32432  0.72219  0.50176  1.0000
  C   C1742     1.0  0.24764  0.56262  0.58745  1.0000
  N   N123      1.0  0.47401  0.65824  0.69246  1.0000
  H   H2995     1.0  0.31844  0.67136  0.76579  1.0000
  Fe  Fe260     1.0  0.32823  0.52725  0.72245  1.0000
  H   H2996     1.0  0.29744  0.64894  0.50019  1.0000
  C   C1743     1.0  0.38646  0.68928  0.53773  1.0000
  H   H2997     1.0  0.31964  0.67581  0.79858  1.0000
  C   C1744     1.0  0.40330  0.72153  0.69664  1.0000
  C   C1745     1.0  0.31999  0.65106  0.79499  1.0000
  H   H2998     1.0  0.33096  0.67034  0.48868  1.0000
  H   H2999     1.0  0.41455  0.72572  0.68839  1.0000
  C   C1746     1.0  0.48405  0.66228  0.75178  1.0000
  H   H3000     1.0  0.41307  0.68398  0.53489  1.0000
  H   H3001     1.0  0.31185  0.65608  0.50640  1.0000
  H   H3002     1.0  0.25711  0.61405  0.57542  1.0000
  H   H3003     1.0  0.40941  0.71927  0.48170  1.0000
  H   H3004     1.0  0.32133  0.62805  0.48725  1.0000
  H   H3005     1.0  0.41168  0.69111  0.64203  1.0000
  H   H3006     1.0  0.40697  0.70191  0.62256  1.0000
  H   H3007     1.0  0.38099  0.72621  0.52446  1.0000
  H   H3008     1.0  0.30162  0.59329  0.55272  1.0000
  C   C1747     1.0  0.28921  0.73151  0.74868  1.0000
  C   C1748     1.0  0.32923  0.49274  0.68057  1.0000
  C   C1749     1.0  0.31024  0.65135  0.49624  1.0000
  H   H3009     1.0  0.36286  0.71157  0.47807  1.0000
  S   S511      1.0  0.25904  0.66236  0.50999  1.0000
  H   H3010     1.0  0.35618  0.66508  0.75112  1.0000
  C   C1750     1.0  0.34168  0.71835  0.49727  1.0000
  C   C1751     1.0  0.40834  0.72310  0.49336  1.0000
  H   H3011     1.0  0.47206  0.66807  0.66680  1.0000
  H   H3012     1.0  0.25278  0.48696  0.68074  1.0000
  H   H3013     1.0  0.26547  0.57474  0.72113  1.0000
  H   H3014     1.0  0.35423  0.65385  0.78516  1.0000
  H   H3015     1.0  0.28550  0.67488  0.48423  1.0000
  C   C1752     1.0  0.31481  0.72252  0.49065  1.0000
  H   H3016     1.0  0.26037  0.71615  0.58103  1.0000
  H   H3017     1.0  0.38719  0.69845  0.67166  1.0000
  S   S512      1.0  0.24137  0.65488  0.54974  1.0000
  S   S513      1.0  0.32560  0.72358  0.58378  1.0000
  S   S514      1.0  0.46621  0.73065  0.60034  1.0000
  H   H3018     1.0  0.37931  0.70669  0.61742  1.0000
  S   S515      1.0  0.25739  0.54193  0.59459  1.0000
  H   H3019     1.0  0.41477  0.66403  0.63657  1.0000
  H   H3020     1.0  0.25949  0.54730  0.72788  1.0000
  H   H3021     1.0  0.26192  0.71325  0.60726  1.0000
  C   C1753     1.0  0.47854  0.63713  0.74848  1.0000
  C   C1754     1.0  0.25034  0.63407  0.58832  1.0000
  N   N124      1.0  0.33289  0.64949  0.77918  1.0000
  H   H3022     1.0  0.38658  0.66174  0.63680  1.0000
  Fe  Fe261     1.0  0.34118  0.72186  0.53696  1.0000
  H   H3023     1.0  0.39334  0.72488  0.68967  1.0000
  C   C1755     1.0  0.36261  0.54706  0.76605  1.0000
  H   H3024     1.0  0.30406  0.50497  0.72597  1.0000
  C   C1756     1.0  0.35435  0.62768  0.79487  1.0000
  H   H3025     1.0  0.24733  0.57499  0.80920  1.0000
  C   C1757     1.0  0.29559  0.68727  0.49620  1.0000
  H   H3026     1.0  0.32964  0.50486  0.63216  1.0000
  C   C1758     1.0  0.38834  0.70910  0.66094  1.0000
  N   N125      1.0  0.32820  0.48530  0.66699  1.0000
  H   H3027     1.0  0.48274  0.62410  0.74803  1.0000
  H   H3028     1.0  0.44105  0.63920  0.65597  1.0000
  C   C1759     1.0  0.25986  0.59162  0.60686  1.0000
  H   H3029     1.0  0.45027  0.65896  0.68752  1.0000
  H   H3030     1.0  0.30725  0.69052  0.49618  1.0000
  C   C1760     1.0  0.48171  0.66189  0.67418  1.0000
  N   N126      1.0  0.27800  0.61140  0.58641  1.0000
  C   C1761     1.0  0.28709  0.59806  0.57670  1.0000
  C   C1762     1.0  0.27242  0.60258  0.60411  1.0000
  C   C1763     1.0  0.29015  0.62173  0.58540  1.0000
  C   C1764     1.0  0.26369  0.62189  0.57862  1.0000
  H   H3031     1.0  0.36871  0.53903  0.77609  1.0000
  H   H3032     1.0  0.48454  0.72431  0.71547  1.0000
  C   C1765     1.0  0.28552  0.63281  0.59811  1.0000
  H   H3033     1.0  0.31818  0.72512  0.51371  1.0000
  H   H3034     1.0  0.27045  0.59906  0.72727  1.0000
  H   H3035     1.0  0.27837  0.59099  0.57572  1.0000
  H   H3036     1.0  0.26675  0.61130  0.61254  1.0000
  H   H3037     1.0  0.28337  0.59450  0.60907  1.0000
  H   H3038     1.0  0.30249  0.61355  0.58688  1.0000
  H   H3039     1.0  0.29243  0.63012  0.57294  1.0000
  H   H3040     1.0  0.47508  0.69100  0.80577  1.0000
  H   H3041     1.0  0.24929  0.68604  0.77680  1.0000
  H   H3042     1.0  0.38705  0.72237  0.54344  1.0000
  H   H3043     1.0  0.43685  0.71659  0.54002  1.0000
  H   H3044     1.0  0.32303  0.61421  0.77370  1.0000
  H   H3045     1.0  0.30906  0.50590  0.65810  1.0000
  H   H3046     1.0  0.29116  0.67946  0.50846  1.0000
  H   H3047     1.0  0.36469  0.72838  0.70239  1.0000
  H   H3048     1.0  0.27329  0.64140  0.59813  1.0000
  H   H3049     1.0  0.29480  0.64076  0.59472  1.0000
  H   H3050     1.0  0.28613  0.62531  0.61078  1.0000
  H   H3051     1.0  0.46090  0.69189  0.67708  1.0000
  H   H3052     1.0  0.34980  0.54481  0.76906  1.0000
  C   C1766     1.0  0.24930  0.55198  0.72101  1.0000
  N   N127      1.0  0.31128  0.62862  0.71298  1.0000
  C   C1767     1.0  0.29837  0.62070  0.72625  1.0000
  C   C1768     1.0  0.30282  0.64061  0.69976  1.0000
  C   C1769     1.0  0.31938  0.63799  0.71988  1.0000
  C   C1770     1.0  0.32445  0.61506  0.70607  1.0000
  C   C1771     1.0  0.30383  0.61049  0.74245  1.0000
  C   C1772     1.0  0.29676  0.63265  0.68908  1.0000
  C   C1773     1.0  0.30741  0.65168  0.72859  1.0000
  C   C1774     1.0  0.33877  0.62073  0.69201  1.0000
  H   H3053     1.0  0.28703  0.63022  0.72961  1.0000
  H   H3054     1.0  0.29402  0.61214  0.72153  1.0000
  H   H3055     1.0  0.31092  0.64902  0.69127  1.0000
  H   H3056     1.0  0.29169  0.64917  0.70539  1.0000
  H   H3057     1.0  0.32696  0.62932  0.72868  1.0000
  H   H3058     1.0  0.32847  0.64423  0.70984  1.0000
  H   H3059     1.0  0.33051  0.60646  0.71595  1.0000
  H   H3060     1.0  0.31911  0.60675  0.70201  1.0000
  H   H3061     1.0  0.30679  0.61825  0.74919  1.0000
  H   H3062     1.0  0.29337  0.60503  0.75091  1.0000
  H   H3063     1.0  0.31446  0.59995  0.74037  1.0000
  H   H3064     1.0  0.30727  0.62556  0.68118  1.0000
  H   H3065     1.0  0.28805  0.62455  0.69670  1.0000
  H   H3066     1.0  0.28983  0.64268  0.68063  1.0000
  H   H3067     1.0  0.30104  0.66187  0.71984  1.0000
  H   H3068     1.0  0.31466  0.65732  0.73361  1.0000
  H   H3069     1.0  0.29795  0.64682  0.73920  1.0000
  H   H3070     1.0  0.34872  0.62221  0.69715  1.0000
  H   H3071     1.0  0.33468  0.63244  0.68337  1.0000
  H   H3072     1.0  0.34414  0.61121  0.68433  1.0000
  H   H3073     1.0  0.32728  0.51555  0.68797  1.0000
  H   H3074     1.0  0.34135  0.65921  0.74345  1.0000
  H   H3075     1.0  0.35367  0.48749  0.65588  1.0000
  C   C1775     1.0  0.32934  0.63795  0.77066  1.0000
  C   C1776     1.0  0.40531  0.70838  0.50802  1.0000
  C   C1777     1.0  0.34298  0.66758  0.75040  1.0000
  C   C1778     1.0  0.32332  0.62227  0.78172  1.0000
  C   C1779     1.0  0.48486  0.67992  0.80325  1.0000
  H   H3076     1.0  0.26261  0.60499  0.70889  1.0000
  H   H3077     1.0  0.34051  0.63369  0.76132  1.0000
  H   H3078     1.0  0.35944  0.64190  0.77032  1.0000
  H   H3079     1.0  0.25365  0.57826  0.74059  1.0000
  H   H3080     1.0  0.34010  0.68049  0.74305  1.0000
  C   C1780     1.0  0.33907  0.50453  0.63891  1.0000
  H   H3081     1.0  0.33441  0.65896  0.80818  1.0000
  C   C1781     1.0  0.25023  0.72222  0.61099  1.0000
  S   S516      1.0  0.26314  0.62909  0.48575  1.0000
  C   C1782     1.0  0.24157  0.58864  0.70349  1.0000
  H   H3082     1.0  0.25313  0.59528  0.55475  1.0000
  C   C1783     1.0  0.30712  0.48446  0.65091  1.0000
  N   N128      1.0  0.38978  0.54400  0.74293  1.0000
  C   C1784     1.0  0.39402  0.54700  0.72422  1.0000
  C   C1785     1.0  0.39297  0.55847  0.74751  1.0000
  C   C1786     1.0  0.40058  0.52765  0.74942  1.0000
  C   C1787     1.0  0.38862  0.53549  0.71657  1.0000
  C   C1788     1.0  0.41104  0.56084  0.74199  1.0000
  C   C1789     1.0  0.39975  0.52268  0.76824  1.0000
  H   H3083     1.0  0.38836  0.55999  0.71868  1.0000
  H   H3084     1.0  0.40766  0.54573  0.71928  1.0000
  H   H3085     1.0  0.38928  0.55787  0.76102  1.0000
  H   H3086     1.0  0.38505  0.57025  0.74211  1.0000
  H   H3087     1.0  0.39734  0.51725  0.74644  1.0000
  H   H3088     1.0  0.41388  0.52687  0.74293  1.0000
  H   H3089     1.0  0.39426  0.52219  0.72069  1.0000
  H   H3090     1.0  0.39285  0.53876  0.70288  1.0000
  H   H3091     1.0  0.41505  0.56423  0.72831  1.0000
  H   H3092     1.0  0.41180  0.57142  0.74670  1.0000
  H   H3093     1.0  0.41984  0.54975  0.74717  1.0000
  H   H3094     1.0  0.38980  0.51563  0.77474  1.0000
  S   S517      1.0  0.25650  0.64865  0.71527  1.0000
  Fe  Fe262     1.0  0.26065  0.65722  0.76867  1.0000
  H   H3095     1.0  0.48473  0.71511  0.79818  1.0000
  H   H3096     1.0  0.40916  0.72684  0.71718  1.0000
  C   C1790     1.0  0.32203  0.66254  0.80501  1.0000
  H   H3097     1.0  0.33156  0.61478  0.79019  1.0000
  C   C1791     1.0  0.42262  0.71226  0.52463  1.0000
  H   H3098     1.0  0.30075  0.72599  0.75351  1.0000
  H   H3099     1.0  0.36481  0.62815  0.79989  1.0000
  H   H3100     1.0  0.25469  0.55603  0.70775  1.0000
  C   C1792     1.0  0.24571  0.64391  0.69022  1.0000
  C   C1793     1.0  0.46747  0.67372  0.69946  1.0000
  C   C1794     1.0  0.25043  0.59075  0.78478  1.0000
  H   H3101     1.0  0.45226  0.69881  0.69605  1.0000
  S   S518      1.0  0.44956  0.63424  0.74286  1.0000
  C   C1795     1.0  0.30976  0.49237  0.72472  1.0000
  C   C1796     1.0  0.29640  0.60407  0.55879  1.0000
  H   H3102     1.0  0.25287  0.64679  0.58398  1.0000
  C   C1797     1.0  0.24154  0.64552  0.70671  1.0000
  C   C1798     1.0  0.25498  0.57180  0.57230  1.0000
  H   H3103     1.0  0.34107  0.51404  0.66853  1.0000
  H   H3104     1.0  0.24869  0.59867  0.60192  1.0000
  H   H3105     1.0  0.33533  0.51579  0.64406  1.0000
  C   C1799     1.0  0.45535  0.68783  0.69041  1.0000
  H   H3106     1.0  0.31039  0.62557  0.78891  1.0000
  H   H3107     1.0  0.28137  0.72208  0.75273  1.0000
  H   H3108     1.0  0.28639  0.48590  0.72745  1.0000
  C   C1800     1.0  0.46235  0.64542  0.74655  1.0000
  H   H3109     1.0  0.24876  0.63042  0.60190  1.0000
  Fe  Fe263     1.0  0.25079  0.51916  0.65505  1.0000
  C   C1801     1.0  0.35036  0.64391  0.78201  1.0000
  H   H3110     1.0  0.35502  0.68589  0.64253  1.0000
  H   H3111     1.0  0.35082  0.50549  0.62948  1.0000
  H   H3112     1.0  0.45233  0.64904  0.70805  1.0000
  H   H3113     1.0  0.33539  0.63555  0.49453  1.0000
  H   H3114     1.0  0.38335  0.68013  0.54948  1.0000
  C   C1802     1.0  0.25928  0.60039  0.72250  1.0000
  H   H3115     1.0  0.35362  0.69624  0.62172  1.0000
  H   H3116     1.0  0.30733  0.65559  0.79231  1.0000
  Fe  Fe264     1.0  0.24801  0.65107  0.74187  1.0000
  C   C1803     1.0  0.32777  0.67061  0.47688  1.0000
  H   H3117     1.0  0.45121  0.62967  0.69254  1.0000
  S   S519      1.0  0.37412  0.70394  0.58191  1.0000
  H   H3118     1.0  0.36966  0.53101  0.74879  1.0000
  H   H3119     1.0  0.25824  0.64403  0.68303  1.0000
  C   C1804     1.0  0.48613  0.64572  0.70205  1.0000
  H   H3120     1.0  0.38815  0.68312  0.52740  1.0000
  C   C1805     1.0  0.46314  0.63361  0.69025  1.0000
  C   C1806     1.0  0.35842  0.69642  0.63243  1.0000
  H   H3121     1.0  0.37885  0.72905  0.74459  1.0000
  H   H3122     1.0  0.31263  0.66165  0.81689  1.0000
  H   H3123     1.0  0.46892  0.63424  0.67693  1.0000
  H   H3124     1.0  0.31947  0.63889  0.80368  1.0000
  H   H3125     1.0  0.31935  0.62621  0.50881  1.0000
  H   H3126     1.0  0.48092  0.66891  0.81233  1.0000
  H   H3127     1.0  0.47756  0.67936  0.69969  1.0000
  C   C1807     1.0  0.37158  0.54336  0.74883  1.0000
  Fe  Fe265     1.0  0.31722  0.71073  0.56887  1.0000
  C   C1808     1.0  0.40232  0.70860  0.58755  1.0000
  S   S520      1.0  0.24664  0.67429  0.74982  1.0000
  S   S521      1.0  0.34328  0.69914  0.55759  1.0000
  H   H3128     1.0  0.25557  0.58690  0.62036  1.0000
  H   H3129     1.0  0.27339  0.73079  0.57455  1.0000
  C   C1809     1.0  0.32897  0.51146  0.67629  1.0000
  H   H3130     1.0  0.34413  0.62583  0.80583  1.0000
  H   H3131     1.0  0.36116  0.56032  0.76613  1.0000
  C   C1810     1.0  0.39779  0.72865  0.71241  1.0000
  N   N129      1.0  0.40553  0.71044  0.52483  1.0000
  H   H3132     1.0  0.24935  0.60988  0.72814  1.0000
  C   C1811     1.0  0.34943  0.71455  0.48165  1.0000
  H   H3133     1.0  0.40145  0.69578  0.55005  1.0000
  H   H3134     1.0  0.35186  0.70835  0.63616  1.0000
  C   C1812     1.0  0.38838  0.71612  0.58051  1.0000
  H   H3135     1.0  0.39042  0.72028  0.72187  1.0000
  S   S522      1.0  0.34006  0.50058  0.72008  1.0000
  H   H3136     1.0  0.39183  0.65135  0.65622  1.0000
  H   H3137     1.0  0.24138  0.60221  0.69945  1.0000
  Fe  Fe266     1.0  0.35159  0.71440  0.57009  1.0000
  H   H3138     1.0  0.33395  0.67564  0.77321  1.0000
  H   H3139     1.0  0.37489  0.53727  0.71908  1.0000
  S   S523      1.0  0.24096  0.54428  0.64048  1.0000
  H   H3140     1.0  0.40434  0.69550  0.59325  1.0000
  C   C1813     1.0  0.45929  0.65065  0.69490  1.0000
  H   H3141     1.0  0.44341  0.68436  0.69180  1.0000
  H   H3142     1.0  0.35818  0.61673  0.78906  1.0000
  N   N130      1.0  0.38645  0.69267  0.64040  1.0000
  C   C1814     1.0  0.38051  0.70842  0.64702  1.0000
  C   C1815     1.0  0.37739  0.69511  0.62686  1.0000
  C   C1816     1.0  0.40481  0.69103  0.63290  1.0000
  C   C1817     1.0  0.38312  0.67817  0.65455  1.0000
  H   H3143     1.0  0.47093  0.62381  0.69804  1.0000
  C   C1818     1.0  0.41403  0.67520  0.62632  1.0000
  C   C1819     1.0  0.38302  0.66182  0.65012  1.0000
  H   H3144     1.0  0.38260  0.71947  0.63683  1.0000
  H   H3145     1.0  0.36689  0.71062  0.65225  1.0000
  H   H3146     1.0  0.38242  0.68523  0.61968  1.0000
  H   H3147     1.0  0.40668  0.70774  0.70016  1.0000
  N   N131      1.0  0.31205  0.66417  0.48021  1.0000
  H   H3148     1.0  0.26840  0.62960  0.56637  1.0000
  C   C1820     1.0  0.29745  0.67868  0.48196  1.0000
  C   C1821     1.0  0.34211  0.48812  0.65197  1.0000
  H   H3149     1.0  0.24579  0.72168  0.84222  1.0000
  H   H3150     1.0  0.29374  0.64143  0.47845  1.0000
  H   H3151     1.0  0.26556  0.58050  0.60138  1.0000
  C   C1822     1.0  0.42577  0.71142  0.54171  1.0000
  C   C1823     1.0  0.39190  0.72481  0.52979  1.0000
  H   H3152     1.0  0.30701  0.60937  0.55838  1.0000
  C   C1824     1.0  0.24745  0.58840  0.56650  1.0000
  H   H3153     1.0  0.48549  0.67797  0.79082  1.0000
  H   H3154     1.0  0.41999  0.72700  0.49215  1.0000
  H   H3155     1.0  0.36378  0.72844  0.72361  1.0000
  C   C1825     1.0  0.48937  0.64551  0.75101  1.0000
  H   H3156     1.0  0.29608  0.49269  0.64629  1.0000
  H   H3157     1.0  0.30136  0.49067  0.67472  1.0000
  H   H3158     1.0  0.31882  0.49051  0.69142  1.0000
  H   H3159     1.0  0.48749  0.65014  0.66975  1.0000
  H   H3160     1.0  0.24936  0.72844  0.55446  1.0000
  C   C1826     1.0  0.26139  0.72952  0.55610  1.0000
  C   C1827     1.0  0.32705  0.48692  0.72216  1.0000
  C   C1828     1.0  0.31117  0.49227  0.66312  1.0000
  S   S524      1.0  0.45501  0.73120  0.64064  1.0000
  C   C1829     1.0  0.32251  0.71882  0.47502  1.0000
  H   H3161     1.0  0.31749  0.48271  0.64008  1.0000
  H   H3162     1.0  0.28059  0.75755  0.16809  1.0000
  H   H3163     1.0  0.35635  0.73692  0.22427  1.0000
  H   H3164     1.0  0.26971  0.84845  0.23937  1.0000
  H   H3165     1.0  0.35799  0.74273  0.19420  1.0000
  C   C1830     1.0  0.26179  0.79015  0.30169  1.0000
  H   H3166     1.0  0.28032  0.81846  0.05067  1.0000
  C   C1831     1.0  0.26373  0.76916  0.40087  1.0000
  H   H3167     1.0  0.31231  0.75260  0.34637  1.0000
  H   H3168     1.0  0.25814  0.86847  0.10356  1.0000
  H   H3169     1.0  0.33493  0.73736  0.16173  1.0000
  C   C1832     1.0  0.27005  0.82713  0.13248  1.0000
  H   H3170     1.0  0.27863  0.80603  0.10073  1.0000
  S   S525      1.0  0.26037  0.81960  0.30915  1.0000
  C   C1833     1.0  0.24859  0.85621  0.09051  1.0000
  H   H3171     1.0  0.33023  0.79522  0.06983  1.0000
  H   H3172     1.0  0.25223  0.78616  0.25560  1.0000
  Fe  Fe267     1.0  0.33519  0.77780  0.21662  1.0000
  S   S526      1.0  0.32039  0.75788  0.22536  1.0000
  S   S527      1.0  0.36283  0.76940  0.21466  1.0000
  Fe  Fe268     1.0  0.30478  0.80578  0.21436  1.0000
  S   S528      1.0  0.28769  0.78802  0.22311  1.0000
  S   S529      1.0  0.29073  0.83244  0.21102  1.0000
  Fe  Fe269     1.0  0.30316  0.77453  0.24174  1.0000
  S   S530      1.0  0.29041  0.76393  0.26763  1.0000
  Fe  Fe270     1.0  0.30636  0.77319  0.20588  1.0000
  S   S531      1.0  0.29610  0.76107  0.19196  1.0000
  S   S532      1.0  0.31893  0.79350  0.23448  1.0000
  S   S533      1.0  0.32253  0.79196  0.19552  1.0000
  H   H3173     1.0  0.31119  0.79687  0.33097  1.0000
  S   S534      1.0  0.24897  0.80588  0.05327  1.0000
  H   H3174     1.0  0.27988  0.84922  0.04031  1.0000
  H   H3175     1.0  0.41233  0.76132  0.33777  1.0000
  S   S535      1.0  0.30962  0.78400  0.11416  1.0000
  H   H3176     1.0  0.42640  0.74651  0.32717  1.0000
  Fe  Fe271     1.0  0.26128  0.81434  0.02677  1.0000
  C   C1834     1.0  0.25675  0.74699  0.38649  1.0000
  S   S536      1.0  0.28764  0.80598  0.01370  1.0000
  H   H3177     1.0  0.28035  0.91202  0.17517  1.0000
  S   S537      1.0  0.24314  0.91637  0.11867  1.0000
  H   H3178     1.0  0.25845  0.83687  0.13276  1.0000
  Fe  Fe272     1.0  0.28439  0.89486  0.13279  1.0000
  S   S538      1.0  0.28333  0.91518  0.10976  1.0000
  S   S539      1.0  0.30794  0.88066  0.14146  1.0000
  C   C1835     1.0  0.30412  0.82158  0.07617  1.0000
  Fe  Fe273     1.0  0.24769  0.89583  0.14064  1.0000
  H   H3179     1.0  0.27041  0.80718  0.34279  1.0000
  C   C1836     1.0  0.28274  0.96372  0.12182  1.0000
  C   C1837     1.0  0.29290  0.97351  0.12318  1.0000
  H   H3180     1.0  0.28809  0.95370  0.11526  1.0000
  H   H3181     1.0  0.30610  0.97086  0.11781  1.0000
  C   C1838     1.0  0.31082  0.75550  0.37033  1.0000
  H   H3182     1.0  0.31579  0.77227  0.31494  1.0000
  H   H3183     1.0  0.25965  0.85936  0.17290  1.0000
  H   H3184     1.0  0.32345  0.75817  0.36680  1.0000
  C   C1839     1.0  0.29011  0.76457  0.16159  1.0000
  H   H3185     1.0  0.28953  0.93411  0.14159  1.0000
  C   C1840     1.0  0.29892  0.78780  0.02433  1.0000
  N   N132      1.0  0.30040  0.92501  0.16326  1.0000
  H   H3186     1.0  0.27921  0.82835  0.25045  1.0000
  N   N133      1.0  0.24425  0.82867  0.25423  1.0000
  H   H3187     1.0  0.27112  0.79043  0.09691  1.0000
  C   C1841     1.0  0.29253  0.78077  0.04081  1.0000
  H   H3188     1.0  0.25265  0.74911  0.02552  1.0000
  H   H3189     1.0  0.29899  0.83604  0.03278  1.0000
  C   C1842     1.0  0.30217  0.76689  0.04949  1.0000
  H   H3190     1.0  0.28029  0.78614  0.04696  1.0000
  C   C1843     1.0  0.29664  0.84619  0.19226  1.0000
  C   C1844     1.0  0.31173  0.84217  0.18114  1.0000
  C   C1845     1.0  0.31553  0.85316  0.16579  1.0000
  C   C1846     1.0  0.30400  0.86786  0.16135  1.0000
  C   C1847     1.0  0.28913  0.87198  0.17267  1.0000
  C   C1848     1.0  0.28558  0.86131  0.18817  1.0000
  H   H3191     1.0  0.32042  0.83060  0.18431  1.0000
  H   H3192     1.0  0.32713  0.84998  0.15712  1.0000
  H   H3193     1.0  0.28028  0.88331  0.16952  1.0000
  H   H3194     1.0  0.27395  0.86451  0.19678  1.0000
  C   C1849     1.0  0.29956  0.76838  0.17042  1.0000
  H   H3195     1.0  0.28603  0.76624  0.13751  1.0000
  H   H3196     1.0  0.26485  0.81130  0.08629  1.0000
  C   C1850     1.0  0.30531  0.77872  0.13581  1.0000
  C   C1851     1.0  0.31458  0.78283  0.14461  1.0000
  C   C1852     1.0  0.31179  0.77753  0.16192  1.0000
  C   C1853     1.0  0.24371  0.83831  0.23671  1.0000
  C   C1854     1.0  0.27214  0.76096  0.02402  1.0000
  H   H3197     1.0  0.32429  0.78960  0.13801  1.0000
  H   H3198     1.0  0.31936  0.78023  0.16860  1.0000
  C   C1855     1.0  0.28247  0.77916  0.27947  1.0000
  C   C1856     1.0  0.28984  0.79279  0.27597  1.0000
  C   C1857     1.0  0.28314  0.80514  0.28524  1.0000
  C   C1858     1.0  0.26845  0.77783  0.29238  1.0000
  H   H3199     1.0  0.30083  0.79375  0.26630  1.0000
  H   H3200     1.0  0.28884  0.81570  0.28244  1.0000
  H   H3201     1.0  0.26241  0.76761  0.29480  1.0000
  H   H3202     1.0  0.28434  0.78525  0.97613  1.0000
  C   C1859     1.0  0.27354  0.75298  0.40170  1.0000
  H   H3203     1.0  0.28371  0.74909  0.40799  1.0000
  S   S540      1.0  0.26256  0.90859  0.14878  1.0000
  H   H3204     1.0  0.29745  0.84658  0.04895  1.0000
  C   C1860     1.0  0.25434  0.81120  0.25437  1.0000
  C   C1861     1.0  0.29120  0.83467  0.08505  1.0000
  S   S541      1.0  0.26959  0.88054  0.12648  1.0000
  H   H3205     1.0  0.24992  0.74455  0.35095  1.0000
  H   H3206     1.0  0.32197  0.78076  0.06404  1.0000
  C   C1862     1.0  0.25709  0.75903  0.06773  1.0000
  H   H3207     1.0  0.25441  0.83020  0.27418  1.0000
  C   C1863     1.0  0.35406  0.75788  0.24825  1.0000
  C   C1864     1.0  0.36710  0.75928  0.23429  1.0000
  C   C1865     1.0  0.38350  0.75200  0.23596  1.0000
  H   H3208     1.0  0.31368  0.89921  0.16478  1.0000
  H   H3209     1.0  0.24698  0.76330  0.03836  1.0000
  H   H3210     1.0  0.34137  0.76326  0.24710  1.0000
  H   H3211     1.0  0.33718  0.79098  0.04946  1.0000
  C   C1866     1.0  0.25709  0.88075  0.06272  1.0000
  H   H3212     1.0  0.27025  0.82183  0.98531  1.0000
  C   C1867     1.0  0.26906  0.80386  0.29803  1.0000
  S   S542      1.0  0.32041  0.73648  0.12612  1.0000
  C   C1868     1.0  0.26567  0.96708  0.12867  1.0000
  H   H3213     1.0  0.30822  0.80287  0.04434  1.0000
  Fe  Fe274     1.0  0.31661  0.75957  0.10650  1.0000
  C   C1869     1.0  0.32613  0.79273  0.05976  1.0000
  C   C1870     1.0  0.27009  0.84018  0.25176  1.0000
  H   H3214     1.0  0.30294  0.76173  0.38039  1.0000
  H   H3215     1.0  0.29723  0.76160  0.06223  1.0000
  H   H3216     1.0  0.27836  0.83279  0.08871  1.0000
  H   H3217     1.0  0.24494  0.73452  0.44573  1.0000
  C   C1871     1.0  0.31473  0.78053  0.01633  1.0000
  S   S543      1.0  0.34091  0.75206  0.08937  1.0000
  H   H3218     1.0  0.31894  0.81725  0.04560  1.0000
  H   H3219     1.0  0.38911  0.73652  0.39209  1.0000
  H   H3220     1.0  0.29146  0.84746  0.07751  1.0000
  Fe  Fe275     1.0  0.26033  0.92804  0.12540  1.0000
  C   C1872     1.0  0.41495  0.74802  0.33701  1.0000
  S   S544      1.0  0.25000  0.84144  0.02557  1.0000
  H   H3221     1.0  0.26793  0.77470  0.02085  1.0000
  H   H3222     1.0  0.39786  0.75462  0.36574  1.0000
  H   H3223     1.0  0.28230  0.75865  0.03041  1.0000
  C   C1873     1.0  0.26901  0.93830  0.17086  1.0000
  H   H3224     1.0  0.44432  0.75570  0.33667  1.0000
  H   H3225     1.0  0.32636  0.91315  0.16302  1.0000
  H   H3226     1.0  0.26157  0.75522  0.33198  1.0000
  H   H3227     1.0  0.32544  0.91320  0.13620  1.0000
  H   H3228     1.0  0.26955  0.81887  0.12477  1.0000
  H   H3229     1.0  0.31259  0.92177  0.12152  1.0000
  S   S545      1.0  0.26694  0.89796  0.07967  1.0000
  H   H3230     1.0  0.29709  0.95185  0.15412  1.0000
  N   N134      1.0  0.27280  0.82570  0.16212  1.0000
  C   C1874     1.0  0.27165  0.81656  0.14991  1.0000
  C   C1875     1.0  0.27678  0.81306  0.17741  1.0000
  C   C1876     1.0  0.28629  0.83546  0.15503  1.0000
  H   H3231     1.0  0.26183  0.84075  0.18893  1.0000
  H   H3232     1.0  0.31911  0.93564  0.12926  1.0000
  C   C1877     1.0  0.26255  0.80455  0.18839  1.0000
  C   C1878     1.0  0.30382  0.82537  0.14895  1.0000
  H   H3233     1.0  0.30244  0.89815  0.19390  1.0000
  H   H3234     1.0  0.28258  0.80609  0.14829  1.0000
  H   H3235     1.0  0.26075  0.81057  0.15469  1.0000
  H   H3236     1.0  0.28117  0.81848  0.18537  1.0000
  H   H3237     1.0  0.28745  0.80290  0.17398  1.0000
  H   H3238     1.0  0.28312  0.84597  0.14467  1.0000
  H   H3239     1.0  0.28737  0.84150  0.16443  1.0000
  C   C1879     1.0  0.30325  0.76937  0.31902  1.0000
  H   H3240     1.0  0.26666  0.81136  0.24570  1.0000
  H   H3241     1.0  0.25388  0.73839  0.38109  1.0000
  H   H3242     1.0  0.30422  0.75575  0.32330  1.0000
  H   H3243     1.0  0.27999  0.74578  0.05552  1.0000
  C   C1880     1.0  0.25581  0.86856  0.09182  1.0000
  H   H3244     1.0  0.25773  0.79851  0.18138  1.0000
  S   S546      1.0  0.24419  0.78751  0.34705  1.0000
  H   H3245     1.0  0.30430  0.81932  0.13894  1.0000
  H   H3246     1.0  0.30860  0.81597  0.15927  1.0000
  H   H3247     1.0  0.31252  0.83398  0.14371  1.0000
  H   H3248     1.0  0.26017  0.89039  0.05195  1.0000
  H   H3249     1.0  0.24481  0.75713  0.07561  1.0000
  C   C1881     1.0  0.35740  0.74960  0.26385  1.0000
  H   H3250     1.0  0.25019  0.80015  0.23600  1.0000
  H   H3251     1.0  0.27740  0.75646  0.01231  1.0000
  C   C1882     1.0  0.29089  0.84007  0.04413  1.0000
  H   H3252     1.0  0.29786  0.77310  0.30786  1.0000
  C   C1883     1.0  0.25966  0.88117  0.07803  1.0000
  H   H3253     1.0  0.29519  0.94268  0.18783  1.0000
  Fe  Fe276     1.0  0.26631  0.90185  0.10490  1.0000
  S   S547      1.0  0.25235  0.95535  0.12697  1.0000
  C   C1884     1.0  0.32418  0.76637  0.02486  1.0000
  H   H3254     1.0  0.29483  0.83431  0.09660  1.0000
  H   H3255     1.0  0.25402  0.84723  0.15479  1.0000
  C   C1885     1.0  0.28501  0.82525  0.05719  1.0000
  H   H3256     1.0  0.26653  0.77779  0.40631  1.0000
  H   H3257     1.0  0.26553  0.77894  0.98765  1.0000
  H   H3258     1.0  0.28839  0.79207  0.32544  1.0000
  H   H3259     1.0  0.31974  0.78589  0.00357  1.0000
  S   S548      1.0  0.30144  0.75009  0.09511  1.0000
  H   H3260     1.0  0.28761  0.81230  0.34724  1.0000
  C   C1886     1.0  0.27027  0.74203  0.39416  1.0000
  H   H3261     1.0  0.25774  0.93643  0.18072  1.0000
  H   H3262     1.0  0.31743  0.94102  0.18059  1.0000
  H   H3263     1.0  0.28394  0.92308  0.18783  1.0000
  C   C1887     1.0  0.29311  0.76956  0.14430  1.0000
  H   H3264     1.0  0.39951  0.73813  0.25286  1.0000
  H   H3265     1.0  0.30026  0.78947  0.08344  1.0000
  H   H3266     1.0  0.31396  0.82820  0.06797  1.0000
  C   C1888     1.0  0.27545  0.80221  0.09089  1.0000
  H   H3267     1.0  0.39361  0.75303  0.22519  1.0000
  C   C1889     1.0  0.30515  0.94624  0.17716  1.0000
  N   N135      1.0  0.29835  0.77784  0.34707  1.0000
  H   H3268     1.0  0.25539  0.77019  0.05766  1.0000
  C   C1890     1.0  0.27765  0.80517  0.35231  1.0000
  C   C1891     1.0  0.30299  0.75969  0.35518  1.0000
  C   C1892     1.0  0.31330  0.78573  0.34118  1.0000
  H   H3269     1.0  0.28761  0.79211  0.06935  1.0000
  C   C1893     1.0  0.29162  0.77892  0.33220  1.0000
  C   C1894     1.0  0.30503  0.94134  0.16125  1.0000
  C   C1895     1.0  0.31842  0.79169  0.35416  1.0000
  C   C1896     1.0  0.25065  0.77437  0.39252  1.0000
  C   C1897     1.0  0.31804  0.75969  0.04153  1.0000
  C   C1898     1.0  0.24695  0.76312  0.38568  1.0000
  H   H3270     1.0  0.27381  0.83053  0.06575  1.0000
  C   C1899     1.0  0.25506  0.84772  0.17902  1.0000
  H   H3271     1.0  0.28092  0.83284  0.12608  1.0000
  H   H3272     1.0  0.32437  0.77703  0.33563  1.0000
  H   H3273     1.0  0.25083  0.78919  0.31146  1.0000
  H   H3274     1.0  0.27124  0.95054  0.17059  1.0000
  C   C1900     1.0  0.25727  0.75310  0.03437  1.0000
  H   H3275     1.0  0.24807  0.80400  0.97597  1.0000
  C   C1901     1.0  0.31250  0.80711  0.05325  1.0000
  C   C1902     1.0  0.24547  0.85614  0.07536  1.0000
  C   C1903     1.0  0.28434  0.78651  0.35890  1.0000
  H   H3276     1.0  0.26889  0.81054  0.36268  1.0000
  C   C1904     1.0  0.31378  0.91047  0.16890  1.0000
  H   H3277     1.0  0.25768  0.80517  0.26655  1.0000
  H   H3278     1.0  0.33215  0.78790  0.35271  1.0000
  H   H3279     1.0  0.31303  0.78675  0.36725  1.0000
  H   H3280     1.0  0.31544  0.80550  0.35180  1.0000
  H   H3281     1.0  0.26740  0.79452  0.19829  1.0000
  Fe  Fe277     1.0  0.32612  0.74056  0.07942  1.0000
  N   N136      1.0  0.29792  0.81344  0.06621  1.0000
  C   C1905     1.0  0.38683  0.74349  0.25159  1.0000
  H   H3282     1.0  0.31019  0.81200  0.08565  1.0000
  H   H3283     1.0  0.38844  0.75061  0.33734  1.0000
  H   H3284     1.0  0.27983  0.77440  0.33613  1.0000
  C   C1906     1.0  0.29089  0.79872  0.07703  1.0000
  C   C1907     1.0  0.40097  0.74588  0.33017  1.0000
  H   H3285     1.0  0.29484  0.91230  0.14765  1.0000
  C   C1908     1.0  0.25005  0.86825  0.06136  1.0000
  C   C1909     1.0  0.29908  0.92377  0.14653  1.0000
  C   C1910     1.0  0.25269  0.83733  0.26164  1.0000
  H   H3286     1.0  0.33644  0.76078  0.01864  1.0000
  H   H3287     1.0  0.27359  0.78034  0.36260  1.0000
  H   H3288     1.0  0.34724  0.74877  0.27461  1.0000
  C   C1911     1.0  0.31513  0.92363  0.13280  1.0000
  H   H3289     1.0  0.39077  0.73811  0.36304  1.0000
  C   C1912     1.0  0.25881  0.98053  0.13658  1.0000
  C   C1913     1.0  0.26253  0.74501  0.34312  1.0000
  H   H3290     1.0  0.26584  0.93869  0.15909  1.0000
  H   H3291     1.0  0.25588  0.83499  0.22813  1.0000
  H   H3292     1.0  0.28759  0.78541  0.37079  1.0000
  C   C1914     1.0  0.25647  0.83769  0.16608  1.0000
  H   H3293     1.0  0.30272  0.96004  0.17491  1.0000
  H   H3294     1.0  0.24767  0.86832  0.04962  1.0000
  H   H3295     1.0  0.24962  0.82878  0.98296  1.0000
  C   C1915     1.0  0.40134  0.74102  0.36604  1.0000
  C   C1916     1.0  0.28371  0.92383  0.17483  1.0000
  H   H3296     1.0  0.45218  0.73360  0.33817  1.0000
  C   C1917     1.0  0.31290  0.90459  0.18769  1.0000
  H   H3297     1.0  0.24423  0.74200  0.42437  1.0000
  H   H3298     1.0  0.29188  0.75399  0.35911  1.0000
  H   H3299     1.0  0.25105  0.74489  0.31624  1.0000
  N   N137      1.0  0.41730  0.73683  0.35353  1.0000
  H   H3300     1.0  0.31775  0.94140  0.15341  1.0000
  H   H3301     1.0  0.27493  0.84640  0.25863  1.0000
  H   H3302     1.0  0.42665  0.75173  0.36419  1.0000
  H   H3303     1.0  0.32447  0.89527  0.18977  1.0000
  H   H3304     1.0  0.24538  0.84666  0.10129  1.0000
  H   H3305     1.0  0.24571  0.83152  0.16985  1.0000
  C   C1918     1.0  0.44686  0.74347  0.34531  1.0000
  H   H3306     1.0  0.25226  0.81337  0.19459  1.0000
  H   H3307     1.0  0.31190  0.91477  0.19373  1.0000
  H   H3308     1.0  0.45668  0.74388  0.35128  1.0000
  H   H3309     1.0  0.26952  0.74827  0.35043  1.0000
  H   H3310     1.0  0.40172  0.75326  0.31724  1.0000
  H   H3311     1.0  0.27103  0.79516  0.99277  1.0000
  C   C1919     1.0  0.27132  0.78993  0.98227  1.0000
  H   H3312     1.0  0.31239  0.74191  0.37562  1.0000
  H   H3313     1.0  0.26392  0.76161  0.07569  1.0000
  H   H3314     1.0  0.41104  0.73421  0.38898  1.0000
  C   C1920     1.0  0.37376  0.74237  0.26558  1.0000
  C   C1921     1.0  0.43117  0.74040  0.35883  1.0000
  H   H3315     1.0  0.24182  0.85109  0.18536  1.0000
  S   S549      1.0  0.24192  0.80967  0.01693  1.0000
  H   H3316     1.0  0.26868  0.73306  0.07175  1.0000
  H   H3317     1.0  0.29441  0.80748  0.97595  1.0000
  H   H3318     1.0  0.24480  0.84972  0.26339  1.0000
  H   H3319     1.0  0.25263  0.73787  0.29075  1.0000
  C   C1922     1.0  0.24695  0.79910  0.24961  1.0000
  H   H3320     1.0  0.24165  0.85192  0.23593  1.0000
  H   H3321     1.0  0.27210  0.73864  0.30699  1.0000
  H   H3322     1.0  0.26491  0.85086  0.98112  1.0000
  C   C1923     1.0  0.26730  0.74356  0.06090  1.0000
  S   S550      1.0  0.33029  0.74228  0.05208  1.0000
  H   H3323     1.0  0.44837  0.73469  0.23172  1.0000
  N   N138      1.0  0.26026  0.73896  0.04892  1.0000
  C   C1924     1.0  0.26271  0.82820  0.97590  1.0000
  C   C1925     1.0  0.24364  0.73477  0.05832  1.0000
  C   C1926     1.0  0.26074  0.73370  0.31364  1.0000
  H   H3324     1.0  0.40220  0.73280  0.32972  1.0000
  H   H3325     1.0  0.40334  0.75328  0.68564  1.0000
  H   H3326     1.0  0.26489  0.80768  0.80028  1.0000
  C   C1927     1.0  0.24728  0.76245  0.87673  1.0000
  H   H3327     1.0  0.27336  0.78797  0.63939  1.0000
  H   H3328     1.0  0.36606  0.79177  0.56735  1.0000
  H   H3329     1.0  0.31016  0.79376  0.63049  1.0000
  H   H3330     1.0  0.25469  0.85462  0.96460  1.0000
  S   S551      1.0  0.31766  0.77129  0.56443  1.0000
  C   C1928     1.0  0.38623  0.73295  0.57258  1.0000
  H   H3331     1.0  0.38430  0.74794  0.60859  1.0000
  C   C1929     1.0  0.27184  0.81981  0.63110  1.0000
  S   S552      1.0  0.43594  0.76000  0.61357  1.0000
  C   C1930     1.0  0.27937  0.74706  0.75557  1.0000
  S   S553      1.0  0.25710  0.86249  0.77324  1.0000
  C   C1931     1.0  0.24313  0.79561  0.83128  1.0000
  H   H3332     1.0  0.39734  0.77262  0.58301  1.0000
  C   C1932     1.0  0.28411  0.81684  0.95273  1.0000
  H   H3333     1.0  0.30354  0.75803  0.75860  1.0000
  S   S554      1.0  0.26819  0.75438  0.82190  1.0000
  H   H3334     1.0  0.26193  0.83892  0.84147  1.0000
  N   N139      1.0  0.24715  0.74144  0.58253  1.0000
  H   H3335     1.0  0.28724  0.80670  0.94588  1.0000
  H   H3336     1.0  0.26790  0.76559  0.78060  1.0000
  H   H3337     1.0  0.29080  0.75862  0.72093  1.0000
  H   H3338     1.0  0.39654  0.75493  0.56507  1.0000
  Fe  Fe278     1.0  0.43900  0.74017  0.59974  1.0000
  H   H3339     1.0  0.31580  0.74422  0.73334  1.0000
  H   H3340     1.0  0.25853  0.84087  0.94403  1.0000
  H   H3341     1.0  0.24717  0.83463  0.62886  1.0000
  S   S555      1.0  0.26658  0.73442  0.86643  1.0000
  Fe  Fe279     1.0  0.30869  0.82879  0.69678  1.0000
  S   S556      1.0  0.30572  0.80426  0.71406  1.0000
  S   S557      1.0  0.28989  0.85261  0.70002  1.0000
  Fe  Fe280     1.0  0.33982  0.81343  0.67411  1.0000
  S   S558      1.0  0.33949  0.78796  0.68990  1.0000
  S   S559      1.0  0.36007  0.81567  0.65092  1.0000
  Fe  Fe281     1.0  0.31235  0.79458  0.69086  1.0000
  S   S560      1.0  0.30226  0.77520  0.68615  1.0000
  Fe  Fe282     1.0  0.33331  0.79998  0.71127  1.0000
  S   S561      1.0  0.34691  0.78487  0.73101  1.0000
  S   S562      1.0  0.31282  0.81942  0.67361  1.0000
  S   S563      1.0  0.33601  0.82519  0.69563  1.0000
  H   H3342     1.0  0.31627  0.79465  0.60459  1.0000
  N   N140      1.0  0.38860  0.74660  0.71044  1.0000
  H   H3343     1.0  0.26312  0.79534  0.95996  1.0000
  H   H3344     1.0  0.27438  0.79952  0.82520  1.0000
  C   C1933     1.0  0.33333  0.78527  0.75025  1.0000
  C   C1934     1.0  0.32032  0.79907  0.75238  1.0000
  C   C1935     1.0  0.30912  0.79907  0.76771  1.0000
  C   C1936     1.0  0.33507  0.77146  0.76335  1.0000
  H   H3345     1.0  0.31902  0.80977  0.74226  1.0000
  H   H3346     1.0  0.29901  0.80968  0.76940  1.0000
  C   C1937     1.0  0.37833  0.77245  0.61533  1.0000
  H   H3347     1.0  0.40185  0.74594  0.51182  1.0000
  C   C1938     1.0  0.25867  0.78278  0.67299  1.0000
  C   C1939     1.0  0.27452  0.77548  0.67628  1.0000
  C   C1940     1.0  0.28247  0.78416  0.68224  1.0000
  C   C1941     1.0  0.27456  0.80003  0.68508  1.0000
  S   S564      1.0  0.35113  0.73632  0.54883  1.0000
  H   H3348     1.0  0.24993  0.93882  0.78341  1.0000
  H   H3349     1.0  0.28061  0.76313  0.67423  1.0000
  H   H3350     1.0  0.28059  0.80671  0.68985  1.0000
  H   H3351     1.0  0.24082  0.74853  0.60645  1.0000
  H   H3352     1.0  0.29411  0.79805  0.64744  1.0000
  H   H3353     1.0  0.28578  0.82835  0.94308  1.0000
  H   H3354     1.0  0.37399  0.80555  0.60732  1.0000
  C   C1942     1.0  0.24231  0.97692  0.75792  1.0000
  H   H3355     1.0  0.40699  0.78391  0.60318  1.0000
  S   S565      1.0  0.25471  0.73290  0.79539  1.0000
  C   C1943     1.0  0.30601  0.81846  0.63402  1.0000
  H   H3356     1.0  0.26158  0.87589  0.71301  1.0000
  H   H3357     1.0  0.35070  0.80048  0.62707  1.0000
  H   H3358     1.0  0.41570  0.78974  0.58168  1.0000
  C   C1944     1.0  0.26534  0.85916  0.75297  1.0000
  C   C1945     1.0  0.25893  0.86976  0.73955  1.0000
  C   C1946     1.0  0.26647  0.86755  0.72337  1.0000
  C   C1947     1.0  0.28029  0.85457  0.72051  1.0000
  C   C1948     1.0  0.28649  0.84374  0.73395  1.0000
  C   C1949     1.0  0.27903  0.84606  0.75014  1.0000
  C   C1950     1.0  0.25505  0.82873  0.95056  1.0000
  H   H3359     1.0  0.34887  0.74245  0.71281  1.0000
  H   H3360     1.0  0.29721  0.83377  0.73184  1.0000
  H   H3361     1.0  0.28409  0.83787  0.76045  1.0000
  S   S566      1.0  0.42599  0.74651  0.57829  1.0000
  C   C1951     1.0  0.36468  0.77604  0.59265  1.0000
  C   C1952     1.0  0.39105  0.78479  0.58637  1.0000
  C   C1953     1.0  0.26437  0.76661  0.72596  1.0000
  H   H3362     1.0  0.28558  0.83259  0.81856  1.0000
  Fe  Fe283     1.0  0.29388  0.75795  0.80957  1.0000
  C   C1954     1.0  0.40391  0.79112  0.59121  1.0000
  H   H3363     1.0  0.34986  0.78041  0.57439  1.0000
  C   C1955     1.0  0.39339  0.76395  0.65291  1.0000
  C   C1956     1.0  0.37610  0.76595  0.65712  1.0000
  C   C1957     1.0  0.36593  0.78189  0.65550  1.0000
  C   C1958     1.0  0.37296  0.79590  0.65040  1.0000
  C   C1959     1.0  0.39027  0.79394  0.64552  1.0000
  C   C1960     1.0  0.40052  0.77792  0.64670  1.0000
  H   H3364     1.0  0.37055  0.75516  0.66156  1.0000
  H   H3365     1.0  0.35259  0.78336  0.65821  1.0000
  H   H3366     1.0  0.39576  0.80477  0.64139  1.0000
  H   H3367     1.0  0.41391  0.77641  0.64338  1.0000
  C   C1961     1.0  0.29676  0.78019  0.57195  1.0000
  C   C1962     1.0  0.29112  0.79715  0.56591  1.0000
  C   C1963     1.0  0.27497  0.80519  0.57223  1.0000
  C   C1964     1.0  0.26444  0.79653  0.58510  1.0000
  C   C1965     1.0  0.27002  0.77952  0.59138  1.0000
  C   C1966     1.0  0.28613  0.77125  0.58457  1.0000
  H   H3368     1.0  0.29926  0.80411  0.55619  1.0000
  H   H3369     1.0  0.27070  0.81829  0.56728  1.0000
  H   H3370     1.0  0.26196  0.77278  0.60142  1.0000
  H   H3371     1.0  0.29054  0.75816  0.58942  1.0000
  H   H3372     1.0  0.26102  0.84659  0.81062  1.0000
  H   H3373     1.0  0.29178  0.82784  0.60388  1.0000
  H   H3374     1.0  0.36643  0.77061  0.62424  1.0000
  C   C1967     1.0  0.25009  0.73963  0.59952  1.0000
  H   H3375     1.0  0.36504  0.80981  0.59022  1.0000
  H   H3376     1.0  0.39750  0.73374  0.49408  1.0000
  S   S567      1.0  0.24457  0.80771  0.59283  1.0000
  H   H3377     1.0  0.30955  0.82590  0.62135  1.0000
  H   H3378     1.0  0.38985  0.74773  0.62721  1.0000
  C   C1968     1.0  0.27190  0.77661  0.77169  1.0000
  Fe  Fe284     1.0  0.32469  0.74470  0.56166  1.0000
  C   C1969     1.0  0.24152  0.81417  0.83076  1.0000
  C   C1970     1.0  0.31035  0.80662  0.59762  1.0000
  N   N141      1.0  0.26628  0.81885  0.96233  1.0000
  Fe  Fe285     1.0  0.46240  0.74879  0.61646  1.0000
  H   H3379     1.0  0.26729  0.81541  0.93011  1.0000
  C   C1971     1.0  0.29241  0.81427  0.60592  1.0000
  H   H3380     1.0  0.40463  0.74283  0.53257  1.0000
  C   C1972     1.0  0.29768  0.81348  0.96271  1.0000
  H   H3381     1.0  0.28774  0.75817  0.85613  1.0000
  C   C1973     1.0  0.35665  0.78750  0.57836  1.0000
  Fe  Fe286     1.0  0.28053  0.73445  0.84030  1.0000
  H   H3382     1.0  0.31028  0.80437  0.58551  1.0000
  H   H3383     1.0  0.28648  0.76585  0.62465  1.0000
  C   C1974     1.0  0.25207  0.96161  0.78788  1.0000
  H   H3384     1.0  0.26088  0.75452  0.73229  1.0000
  C   C1975     1.0  0.37418  0.74270  0.74165  1.0000
  H   H3385     1.0  0.26698  0.82842  0.79354  1.0000
  H   H3386     1.0  0.38418  0.77849  0.62145  1.0000
  Fe  Fe287     1.0  0.42911  0.74085  0.63632  1.0000
  H   H3387     1.0  0.24203  0.83191  0.95752  1.0000
  H   H3388     1.0  0.28438  0.77707  0.77263  1.0000
  C   C1976     1.0  0.25032  0.84415  0.83681  1.0000
  H   H3389     1.0  0.24713  0.76010  0.55960  1.0000
  S   S568      1.0  0.31449  0.73270  0.54753  1.0000
  H   H3390     1.0  0.27285  0.78959  0.74626  1.0000
  H   H3391     1.0  0.25247  0.77603  0.66851  1.0000
  H   H3392     1.0  0.38855  0.79332  0.57458  1.0000
  C   C1977     1.0  0.27124  0.81282  0.82599  1.0000
  C   C1978     1.0  0.26301  0.75487  0.86887  1.0000
  H   H3393     1.0  0.36119  0.74579  0.74005  1.0000
  C   C1979     1.0  0.25871  0.80727  0.68187  1.0000
  S   S569      1.0  0.47965  0.76609  0.61322  1.0000
  N   N142      1.0  0.25570  0.82186  0.81969  1.0000
  C   C1980     1.0  0.25019  0.97889  0.78233  1.0000
  C   C1981     1.0  0.29303  0.77616  0.62205  1.0000
  C   C1982     1.0  0.40005  0.75692  0.69776  1.0000
  S   S570      1.0  0.24120  0.78034  0.63793  1.0000
  C   C1983     1.0  0.39316  0.77593  0.69388  1.0000
  H   H3394     1.0  0.26930  0.81234  0.83941  1.0000
  H   H3395     1.0  0.31524  0.76505  0.72064  1.0000
  H   H3396     1.0  0.29034  0.81965  0.80361  1.0000
  H   H3397     1.0  0.26320  0.78773  0.77572  1.0000
  C   C1984     1.0  0.31536  0.75724  0.73329  1.0000
  H   H3398     1.0  0.40202  0.78179  0.68326  1.0000
  H   H3399     1.0  0.38109  0.77932  0.69007  1.0000
  H   H3400     1.0  0.39200  0.78164  0.70437  1.0000
  H   H3401     1.0  0.34120  0.81418  0.61057  1.0000
  C   C1985     1.0  0.28146  0.76724  0.72816  1.0000
  N   N143      1.0  0.29116  0.90271  0.73736  1.0000
  C   C1986     1.0  0.29631  0.88803  0.72920  1.0000
  C   C1987     1.0  0.27242  0.90780  0.74092  1.0000
  C   C1988     1.0  0.29686  0.89837  0.75340  1.0000
  C   C1989     1.0  0.29905  0.91659  0.72587  1.0000
  C   C1990     1.0  0.31494  0.87959  0.72631  1.0000
  C   C1991     1.0  0.26471  0.91649  0.72567  1.0000
  C   C1992     1.0  0.29125  0.88330  0.76622  1.0000
  C   C1993     1.0  0.29439  0.93308  0.73186  1.0000
  H   H3402     1.0  0.28939  0.87821  0.73648  1.0000
  H   H3403     1.0  0.29298  0.89163  0.71688  1.0000
  H   H3404     1.0  0.26761  0.91605  0.74995  1.0000
  H   H3405     1.0  0.26678  0.89679  0.74719  1.0000
  H   H3406     1.0  0.31065  0.89610  0.75113  1.0000
  H   H3407     1.0  0.29220  0.90907  0.75968  1.0000
  H   H3408     1.0  0.31283  0.91280  0.72384  1.0000
  H   H3409     1.0  0.29675  0.91922  0.71317  1.0000
  H   H3410     1.0  0.31937  0.87446  0.73802  1.0000
  H   H3411     1.0  0.31680  0.86886  0.72058  1.0000
  H   H3412     1.0  0.32282  0.88799  0.71756  1.0000
  H   H3413     1.0  0.26808  0.92871  0.71969  1.0000
  H   H3414     1.0  0.26810  0.90857  0.71649  1.0000
  H   H3415     1.0  0.25097  0.91914  0.72969  1.0000
  H   H3416     1.0  0.29626  0.88125  0.77740  1.0000
  H   H3417     1.0  0.29591  0.87162  0.76160  1.0000
  H   H3418     1.0  0.27755  0.88554  0.77033  1.0000
  H   H3419     1.0  0.30315  0.93316  0.73924  1.0000
  H   H3420     1.0  0.28159  0.93569  0.73938  1.0000
  H   H3421     1.0  0.29486  0.94367  0.72096  1.0000
  H   H3422     1.0  0.28245  0.78721  0.85933  1.0000
  H   H3423     1.0  0.26585  0.74731  0.75804  1.0000
  C   C1994     1.0  0.25085  0.79873  0.67566  1.0000
  S   S571      1.0  0.29589  0.78443  0.79922  1.0000
  N   N144      1.0  0.37506  0.78349  0.59910  1.0000
  H   H3424     1.0  0.30160  0.77753  0.74458  1.0000
  C   C1995     1.0  0.28692  0.81985  0.81697  1.0000
  C   C1996     1.0  0.26150  0.80221  0.96974  1.0000
  C   C1997     1.0  0.36225  0.73632  0.71142  1.0000
  C   C1998     1.0  0.31074  0.78512  0.78070  1.0000
  C   C1999     1.0  0.25627  0.82429  0.62373  1.0000
  H   H3425     1.0  0.37550  0.75160  0.69089  1.0000
  H   H3426     1.0  0.40228  0.75563  0.60789  1.0000
  H   H3427     1.0  0.28390  0.77978  0.72152  1.0000
  H   H3428     1.0  0.35460  0.77137  0.60268  1.0000
  H   H3429     1.0  0.37934  0.76518  0.72546  1.0000
  C   C2000     1.0  0.24868  0.75861  0.57237  1.0000
  H   H3430     1.0  0.34242  0.79249  0.61457  1.0000
  H   H3431     1.0  0.30897  0.80508  0.95715  1.0000
  H   H3432     1.0  0.26773  0.81551  0.64475  1.0000
  H   H3433     1.0  0.24800  0.85785  0.83520  1.0000
  C   C2001     1.0  0.36632  0.80060  0.60204  1.0000
  H   H3434     1.0  0.25811  0.77659  0.75455  1.0000
  C   C2002     1.0  0.32365  0.77130  0.77853  1.0000
  S   S572      1.0  0.40570  0.74384  0.65581  1.0000
  H   H3435     1.0  0.36440  0.76174  0.70745  1.0000
  H   H3436     1.0  0.24636  0.76622  0.94900  1.0000
  H   H3437     1.0  0.29894  0.77807  0.60868  1.0000
  S   S573      1.0  0.24510  0.90510  0.78625  1.0000
  H   H3438     1.0  0.31848  0.81563  0.59469  1.0000
  H   H3439     1.0  0.34502  0.76075  0.76176  1.0000
  H   H3440     1.0  0.41206  0.75468  0.70152  1.0000
  H   H3441     1.0  0.32491  0.76052  0.78860  1.0000
  H   H3442     1.0  0.24644  0.82507  0.78147  1.0000
  H   H3443     1.0  0.31732  0.81390  0.63931  1.0000
  C   C2003     1.0  0.29925  0.80344  0.63423  1.0000
  H   H3444     1.0  0.25263  0.81959  0.68402  1.0000
  H   H3445     1.0  0.27550  0.83180  0.62931  1.0000
  H   H3446     1.0  0.25910  0.82847  0.61005  1.0000
  H   H3447     1.0  0.27092  0.79404  0.61850  1.0000
  C   C2004     1.0  0.27558  0.76395  0.86231  1.0000
  C   C2005     1.0  0.24265  0.82525  0.79488  1.0000
  C   C2006     1.0  0.38539  0.75181  0.72662  1.0000
  C   C2007     1.0  0.37267  0.74987  0.70461  1.0000
  H   H3448     1.0  0.30245  0.77173  0.62977  1.0000
  H   H3449     1.0  0.34739  0.79836  0.58224  1.0000
  C   C2008     1.0  0.30069  0.76440  0.74625  1.0000
  H   H3450     1.0  0.39736  0.75039  0.73017  1.0000
  H   H3451     1.0  0.39976  0.80451  0.59151  1.0000
  H   H3452     1.0  0.28395  0.81344  0.59853  1.0000
  N   N145      1.0  0.28338  0.76356  0.74581  1.0000
  N   N146      1.0  0.28632  0.80716  0.62407  1.0000
  S   S574      1.0  0.30610  0.73951  0.82911  1.0000
  H   H3453     1.0  0.29688  0.82659  0.64198  1.0000
  C   C2009     1.0  0.34924  0.80183  0.61429  1.0000
  H   H3454     1.0  0.24994  0.81376  0.62736  1.0000
  H   H3455     1.0  0.37229  0.76478  0.58803  1.0000
  H   H3456     1.0  0.29756  0.81181  0.82238  1.0000
  C   C2010     1.0  0.28007  0.79167  0.62633  1.0000
  C   C2011     1.0  0.27257  0.78041  0.86408  1.0000
  H   H3457     1.0  0.32718  0.75741  0.73618  1.0000
  H   H3458     1.0  0.26498  0.76808  0.71259  1.0000
  C   C2012     1.0  0.41160  0.73467  0.57930  1.0000
  H   H3459     1.0  0.37559  0.73891  0.56704  1.0000
  C   C2013     1.0  0.38929  0.75499  0.61444  1.0000
  H   H3460     1.0  0.26139  0.76059  0.57100  1.0000
  S   S575      1.0  0.25293  0.80869  0.87407  1.0000
  C   C2014     1.0  0.25682  0.78800  0.87197  1.0000
  C   C2015     1.0  0.24868  0.95207  0.77878  1.0000
  S   S576      1.0  0.29878  0.74007  0.79318  1.0000
  C   C2016     1.0  0.25841  0.82044  0.80198  1.0000
  C   C2017     1.0  0.27115  0.77705  0.75383  1.0000
  H   H3461     1.0  0.25442  0.77699  0.73001  1.0000
  H   H3462     1.0  0.24952  0.79200  0.81934  1.0000
  H   H3463     1.0  0.28161  0.74443  0.76820  1.0000
  H   H3464     1.0  0.26532  0.74073  0.54750  1.0000
  H   H3465     1.0  0.24739  0.81052  0.94195  1.0000
  C   C2018     1.0  0.26512  0.84627  0.97015  1.0000
  C   C2019     1.0  0.25467  0.82043  0.93688  1.0000
  H   H3466     1.0  0.24824  0.87970  0.74158  1.0000
  C   C2020     1.0  0.39802  0.74206  0.57164  1.0000
  H   H3467     1.0  0.29231  0.73370  0.73504  1.0000
  H   H3468     1.0  0.27712  0.84737  0.96129  1.0000
  H   H3469     1.0  0.38464  0.75154  0.52794  1.0000
  H   H3470     1.0  0.25592  0.95559  0.79946  1.0000
  C   C2021     1.0  0.39627  0.74212  0.52511  1.0000
  H   H3471     1.0  0.24097  0.76467  0.93093  1.0000
  H   H3472     1.0  0.26224  0.74272  0.59842  1.0000
  Fe  Fe288     1.0  0.27394  0.73487  0.80744  1.0000
  C   C2022     1.0  0.25168  0.84008  0.82001  1.0000
  C   C2023     1.0  0.24380  0.95966  0.76377  1.0000
  H   H3473     1.0  0.30166  0.82513  0.96157  1.0000
  H   H3474     1.0  0.24813  0.82985  0.92769  1.0000
  H   H3475     1.0  0.24999  0.78748  0.84083  1.0000
  C   C2024     1.0  0.24412  0.77906  0.87795  1.0000
  H   H3476     1.0  0.37375  0.74716  0.75275  1.0000
  H   H3477     1.0  0.24042  0.73921  0.95394  1.0000
  H   H3478     1.0  0.24014  0.81479  0.84384  1.0000
  H   H3479     1.0  0.66831  0.19469  0.17516  1.0000
  H   H3480     1.0  0.55257  0.14950  0.25240  1.0000
  Fe  Fe289     1.0  0.55876  0.19365  0.31045  1.0000
  H   H3481     1.0  0.68454  0.15171  0.07860  1.0000
  C   C2025     1.0  0.50003  0.16407  0.29812  1.0000
  Fe  Fe290     1.0  0.53392  0.18897  0.29289  1.0000
  H   H3482     1.0  0.58746  0.18761  0.19518  1.0000
  Fe  Fe291     1.0  0.56647  0.16421  0.29467  1.0000
  S   S577      1.0  0.57881  0.13724  0.29896  1.0000
  S   S578      1.0  0.54517  0.17330  0.31437  1.0000
  H   H3483     1.0  0.73797  0.10168  0.05864  1.0000
  H   H3484     1.0  0.67977  0.09934  0.24385  1.0000
  Fe  Fe292     1.0  0.65297  0.19876  0.37884  1.0000
  S   S579      1.0  0.66504  0.20453  0.35190  1.0000
  S   S580      1.0  0.65666  0.17351  0.39572  1.0000
  C   C2026     1.0  0.69960  0.08285  0.29387  1.0000
  H   H3485     1.0  0.61400  0.20672  0.46551  1.0000
  N   N147      1.0  0.72719  0.17541  0.33848  1.0000
  H   H3486     1.0  0.56861  0.12249  0.26347  1.0000
  H   H3487     1.0  0.73419  0.10799  0.20045  1.0000
  S   S581      1.0  0.62760  0.21309  0.37544  1.0000
  Fe  Fe293     1.0  0.63794  0.14765  0.18745  1.0000
  S   S582      1.0  0.63531  0.12180  0.18988  1.0000
  S   S583      1.0  0.62645  0.16901  0.16942  1.0000
  Fe  Fe294     1.0  0.66146  0.13658  0.21085  1.0000
  S   S584      1.0  0.66128  0.10958  0.21515  1.0000
  S   S585      1.0  0.67691  0.14655  0.22136  1.0000
  Fe  Fe295     1.0  0.66291  0.11480  0.18776  1.0000
  S   S586      1.0  0.67869  0.10135  0.16786  1.0000
  Fe  Fe296     1.0  0.63374  0.11919  0.21691  1.0000
  S   S587      1.0  0.61545  0.10605  0.23652  1.0000
  S   S588      1.0  0.66566  0.14096  0.18333  1.0000
  S   S589      1.0  0.63385  0.14586  0.21469  1.0000
  C   C2027     1.0  0.58165  0.20710  0.32998  1.0000
  Fe  Fe297     1.0  0.70962  0.12346  0.33124  1.0000
  S   S590      1.0  0.69552  0.14460  0.31498  1.0000
  S   S591      1.0  0.70815  0.12034  0.35834  1.0000
  Fe  Fe298     1.0  0.69230  0.12476  0.30448  1.0000
  S   S592      1.0  0.66849  0.12397  0.29883  1.0000
  S   S593      1.0  0.70425  0.10365  0.32236  1.0000
  H   H3488     1.0  0.65243  0.15541  0.44973  1.0000
  H   H3489     1.0  0.63642  0.17390  0.46835  1.0000
  H   H3490     1.0  0.56780  0.22130  0.21571  1.0000
  S   S594      1.0  0.69571  0.23187  0.34793  1.0000
  C   C2028     1.0  0.71403  0.16807  0.37000  1.0000
  H   H3491     1.0  0.67549  0.20130  0.45325  1.0000
  H   H3492     1.0  0.71941  0.19946  0.35689  1.0000
  C   C2029     1.0  0.63607  0.17904  0.45501  1.0000
  H   H3493     1.0  0.69967  0.20848  0.31898  1.0000
  H   H3494     1.0  0.70291  0.10208  0.11265  1.0000
  S   S595      1.0  0.72746  0.15491  0.98623  1.0000
  H   H3495     1.0  0.62561  0.17124  0.37908  1.0000
  H   H3496     1.0  0.54525  0.22695  0.25875  1.0000
  H   H3497     1.0  0.71951  0.99206  0.08778  1.0000
  H   H3498     1.0  0.53101  0.14452  0.28784  1.0000
  H   H3499     1.0  0.70965  0.07125  0.24073  1.0000
  H   H3500     1.0  0.71207  0.15693  0.38001  1.0000
  H   H3501     1.0  0.56019  0.11922  0.23851  1.0000
  H   H3502     1.0  0.62276  0.18443  0.45507  1.0000
  H   H3503     1.0  0.65517  0.19158  0.42154  1.0000
  S   S596      1.0  0.72809  0.16690  0.28338  1.0000
  C   C2030     1.0  0.73917  0.18500  0.33948  1.0000
  H   H3504     1.0  0.64275  0.16808  0.43287  1.0000
  H   H3505     1.0  0.69622  0.14896  0.10062  1.0000
  H   H3506     1.0  0.72865  0.22885  0.06994  1.0000
  C   C2031     1.0  0.72704  0.01980  0.06634  1.0000
  C   C2032     1.0  0.56039  0.10961  0.25014  1.0000
  C   C2033     1.0  0.65864  0.14452  0.12686  1.0000
  C   C2034     1.0  0.70302  0.18424  0.05123  1.0000
  C   C2035     1.0  0.69210  0.19990  0.05050  1.0000
  H   H3507     1.0  0.73191  0.21154  0.34009  1.0000
  S   S597      1.0  0.73581  0.03810  0.18173  1.0000
  H   H3508     1.0  0.70741  0.17882  0.04042  1.0000
  H   H3509     1.0  0.68832  0.20664  0.03904  1.0000
  C   C2036     1.0  0.69386  0.08338  0.17260  1.0000
  C   C2037     1.0  0.70291  0.07509  0.15990  1.0000
  C   C2038     1.0  0.71542  0.06093  0.16291  1.0000
  C   C2039     1.0  0.71902  0.05495  0.17865  1.0000
  C   C2040     1.0  0.70988  0.06313  0.19148  1.0000
  C   C2041     1.0  0.69731  0.07741  0.18844  1.0000
  H   H3510     1.0  0.70023  0.07961  0.14766  1.0000
  H   H3511     1.0  0.70144  0.17562  0.36898  1.0000
  H   H3512     1.0  0.71259  0.05852  0.20369  1.0000
  H   H3513     1.0  0.69029  0.08378  0.19829  1.0000
  C   C2042     1.0  0.66250  0.20388  0.15101  1.0000
  C   C2043     1.0  0.65286  0.20298  0.14065  1.0000
  C   C2044     1.0  0.64132  0.19270  0.14649  1.0000
  C   C2045     1.0  0.63979  0.18289  0.16254  1.0000
  C   C2046     1.0  0.64950  0.18364  0.17287  1.0000
  C   C2047     1.0  0.66076  0.19420  0.16715  1.0000
  H   H3514     1.0  0.66482  0.17589  0.46169  1.0000
  H   H3515     1.0  0.63402  0.19191  0.13839  1.0000
  H   H3516     1.0  0.64841  0.17601  0.18527  1.0000
  H   H3517     1.0  0.59620  0.20470  0.21767  1.0000
  C   C2048     1.0  0.67434  0.13997  0.24286  1.0000
  C   C2049     1.0  0.68310  0.14566  0.25090  1.0000
  C   C2050     1.0  0.68105  0.14090  0.26812  1.0000
  C   C2051     1.0  0.67049  0.13016  0.27736  1.0000
  C   C2052     1.0  0.66149  0.12461  0.26938  1.0000
  C   C2053     1.0  0.66336  0.12959  0.25209  1.0000
  H   H3518     1.0  0.69138  0.15392  0.24381  1.0000
  H   H3519     1.0  0.68734  0.14594  0.27427  1.0000
  H   H3520     1.0  0.65301  0.11658  0.27654  1.0000
  H   H3521     1.0  0.65627  0.12547  0.24595  1.0000
  C   C2054     1.0  0.61784  0.22065  0.18362  1.0000
  C   C2055     1.0  0.71166  0.10313  0.23736  1.0000
  H   H3522     1.0  0.67297  0.13710  0.09185  1.0000
  H   H3523     1.0  0.57621  0.20832  0.35568  1.0000
  C   C2056     1.0  0.67013  0.15836  0.38529  1.0000
  C   C2057     1.0  0.67243  0.16062  0.36814  1.0000
  C   C2058     1.0  0.68381  0.14881  0.35980  1.0000
  C   C2059     1.0  0.69292  0.13467  0.36860  1.0000
  C   C2060     1.0  0.69039  0.13223  0.38580  1.0000
  C   C2061     1.0  0.67893  0.14401  0.39416  1.0000
  H   H3524     1.0  0.66528  0.17134  0.36132  1.0000
  H   H3525     1.0  0.68576  0.15083  0.34657  1.0000
  H   H3526     1.0  0.69743  0.12129  0.39265  1.0000
  H   H3527     1.0  0.67714  0.14215  0.40744  1.0000
  C   C2062     1.0  0.58950  0.12925  0.28133  1.0000
  C   C2063     1.0  0.59252  0.13963  0.26556  1.0000
  C   C2064     1.0  0.60095  0.13267  0.25169  1.0000
  C   C2065     1.0  0.60595  0.11534  0.25358  1.0000
  C   C2066     1.0  0.60260  0.10507  0.26930  1.0000
  C   C2067     1.0  0.59462  0.11201  0.28315  1.0000
  H   H3528     1.0  0.58841  0.15297  0.26409  1.0000
  H   H3529     1.0  0.60313  0.14063  0.23950  1.0000
  H   H3530     1.0  0.60633  0.09170  0.27079  1.0000
  H   H3531     1.0  0.59224  0.10396  0.29530  1.0000
  H   H3532     1.0  0.55142  0.10171  0.25207  1.0000
  C   C2068     1.0  0.59329  0.20883  0.31494  1.0000
  C   C2069     1.0  0.69094  0.19800  0.07938  1.0000
  S   S598      1.0  0.67685  0.21685  0.14410  1.0000
  H   H3533     1.0  0.72057  0.09660  0.25968  1.0000
  H   H3534     1.0  0.56465  0.20924  0.19239  1.0000
  H   H3535     1.0  0.59046  0.20737  0.30404  1.0000
  Fe  Fe299     1.0  0.56656  0.19844  0.27300  1.0000
  C   C2070     1.0  0.72402  0.16218  0.35402  1.0000
  C   C2071     1.0  0.52605  0.15893  0.25785  1.0000
  H   H3536     1.0  0.60130  0.18311  0.21970  1.0000
  H   H3537     1.0  0.73789  0.04091  0.05050  1.0000
  H   H3538     1.0  0.70959  0.11836  0.11658  1.0000
  C   C2072     1.0  0.61219  0.21488  0.32807  1.0000
  H   H3539     1.0  0.67838  0.16413  0.10544  1.0000
  H   H3540     1.0  0.72100  0.17464  0.37425  1.0000
  C   C2073     1.0  0.60847  0.21277  0.31397  1.0000
  H   H3541     1.0  0.65251  0.14209  0.11817  1.0000
  H   H3542     1.0  0.66924  0.17381  0.44077  1.0000
  C   C2074     1.0  0.59267  0.19455  0.21476  1.0000
  S   S599      1.0  0.63171  0.21907  0.32635  1.0000
  H   H3543     1.0  0.73532  0.01589  0.21676  1.0000
  C   C2075     1.0  0.68234  0.12170  0.12056  1.0000
  S   S600      1.0  0.58078  0.18325  0.29239  1.0000
  H   H3544     1.0  0.65459  0.20982  0.12802  1.0000
  H   H3545     1.0  0.59482  0.22794  0.20018  1.0000
  H   H3546     1.0  0.55891  0.10594  0.27584  1.0000
  H   H3547     1.0  0.54267  0.12788  0.31044  1.0000
  H   H3548     1.0  0.66360  0.15892  0.08953  1.0000
  N   N148      1.0  0.67729  0.13985  0.12137  1.0000
  S   S601      1.0  0.56224  0.20280  0.33134  1.0000
  H   H3549     1.0  0.53446  0.11425  0.30397  1.0000
  C   C2076     1.0  0.57121  0.21957  0.18971  1.0000
  H   H3550     1.0  0.68191  0.06995  0.27406  1.0000
  C   C2077     1.0  0.73419  0.08044  0.07846  1.0000
  H   H3551     1.0  0.72818  0.20490  0.04090  1.0000
  H   H3552     1.0  0.71966  0.01949  0.11471  1.0000
  C   C2078     1.0  0.51977  0.12103  0.25924  1.0000
  C   C2079     1.0  0.68031  0.15958  0.13796  1.0000
  C   C2080     1.0  0.71197  0.19976  0.31891  1.0000
  C   C2081     1.0  0.54244  0.13522  0.28422  1.0000
  H   H3553     1.0  0.54136  0.14127  0.24350  1.0000
  C   C2082     1.0  0.58525  0.20946  0.34403  1.0000
  H   H3554     1.0  0.62814  0.21569  0.41536  1.0000
  C   C2083     1.0  0.64098  0.16415  0.44652  1.0000
  C   C2084     1.0  0.71083  0.18638  0.33515  1.0000
  C   C2085     1.0  0.72652  0.22509  0.05950  1.0000
  H   H3555     1.0  0.72656  0.99046  0.05803  1.0000
  H   H3556     1.0  0.72842  0.11052  0.18159  1.0000
  C   C2086     1.0  0.65121  0.13526  0.14429  1.0000
  H   H3557     1.0  0.72655  0.98726  0.13141  1.0000
  C   C2087     1.0  0.73750  0.00402  0.22598  1.0000
  C   C2088     1.0  0.49740  0.18035  0.28873  1.0000
  H   H3558     1.0  0.52529  0.16790  0.24585  1.0000
  H   H3559     1.0  0.66426  0.08802  0.25537  1.0000
  H   H3560     1.0  0.53893  0.23235  0.31517  1.0000
  C   C2089     1.0  0.68553  0.08183  0.26663  1.0000
  H   H3561     1.0  0.70622  0.11669  0.23453  1.0000
  S   S602      1.0  0.73190  0.02060  0.14522  1.0000
  C   C2090     1.0  0.70788  0.17550  0.06605  1.0000
  Fe  Fe300     1.0  0.64004  0.22052  0.34871  1.0000
  H   H3562     1.0  0.67388  0.11827  0.11490  1.0000
  H   H3563     1.0  0.70719  0.06005  0.28524  1.0000
  N   N149      1.0  0.58988  0.21323  0.18570  1.0000
  C   C2091     1.0  0.59495  0.21200  0.16773  1.0000
  H   H3564     1.0  0.71149  0.02765  0.09653  1.0000
  C   C2092     1.0  0.59480  0.19609  0.19607  1.0000
  C   C2093     1.0  0.52683  0.12167  0.27375  1.0000
  Fe  Fe301     1.0  0.72785  0.10557  0.30320  1.0000
  H   H3565     1.0  0.71235  0.00607  0.10720  1.0000
  H   H3566     1.0  0.60850  0.20684  0.16415  1.0000
  S   S603      1.0  0.54540  0.21035  0.29095  1.0000
  H   H3567     1.0  0.60784  0.19002  0.19119  1.0000
  C   C2094     1.0  0.73500  0.16665  0.32425  1.0000
  H   H3568     1.0  0.52850  0.12177  0.24706  1.0000
  H   H3569     1.0  0.61742  0.21414  0.30230  1.0000
  H   H3570     1.0  0.71736  0.15364  0.35204  1.0000
  H   H3571     1.0  0.58344  0.23144  0.27162  1.0000
  H   H3572     1.0  0.73049  0.09052  0.19586  1.0000
  H   H3573     1.0  0.68600  0.20301  0.09040  1.0000
  H   H3574     1.0  0.52737  0.16594  0.26633  1.0000
  H   H3575     1.0  0.69991  0.09622  0.28968  1.0000
  C   C2095     1.0  0.54117  0.14442  0.25519  1.0000
  H   H3576     1.0  0.55290  0.14168  0.28118  1.0000
  S   S604      1.0  0.50702  0.19533  0.29058  1.0000
  C   C2096     1.0  0.68612  0.20681  0.06457  1.0000
  C   C2097     1.0  0.67534  0.14951  0.09052  1.0000
  C   C2098     1.0  0.66430  0.18308  0.44879  1.0000
  C   C2099     1.0  0.64129  0.20487  0.45797  1.0000
  H   H3577     1.0  0.66709  0.16207  0.14447  1.0000
  C   C2100     1.0  0.71284  0.06745  0.25305  1.0000
  S   S605      1.0  0.72958  0.05388  0.10410  1.0000
  H   H3578     1.0  0.57977  0.19365  0.22156  1.0000
  C   C2101     1.0  0.64629  0.19979  0.42965  1.0000
  C   C2102     1.0  0.73196  0.19930  0.34892  1.0000
  H   H3579     1.0  0.68262  0.16987  0.12710  1.0000
  H   H3580     1.0  0.67875  0.09134  0.27411  1.0000
  H   H3581     1.0  0.51412  0.15477  0.26263  1.0000
  S   S606      1.0  0.67287  0.22656  0.06357  1.0000
  H   H3582     1.0  0.65597  0.13745  0.15405  1.0000
  S   S607      1.0  0.66012  0.21938  0.38476  1.0000
  N   N150      1.0  0.63503  0.18024  0.25462  1.0000
  C   C2103     1.0  0.63444  0.17417  0.23991  1.0000
  C   C2104     1.0  0.63548  0.16563  0.26917  1.0000
  C   C2105     1.0  0.65073  0.18681  0.25043  1.0000
  C   C2106     1.0  0.61973  0.19367  0.25778  1.0000
  C   C2107     1.0  0.63725  0.18632  0.22286  1.0000
  C   C2108     1.0  0.62200  0.15547  0.27306  1.0000
  C   C2109     1.0  0.65782  0.18705  0.26505  1.0000
  C   C2110     1.0  0.61749  0.20189  0.27229  1.0000
  H   H3583     1.0  0.64393  0.16247  0.23873  1.0000
  H   H3584     1.0  0.62222  0.17095  0.24161  1.0000
  H   H3585     1.0  0.63498  0.16921  0.28074  1.0000
  H   H3586     1.0  0.64757  0.15685  0.26698  1.0000
  H   H3587     1.0  0.66110  0.17909  0.24285  1.0000
  H   H3588     1.0  0.64898  0.19966  0.24263  1.0000
  H   H3589     1.0  0.61940  0.20414  0.24679  1.0000
  H   H3590     1.0  0.60822  0.18929  0.25926  1.0000
  H   H3591     1.0  0.65008  0.18854  0.21892  1.0000
  H   H3592     1.0  0.63575  0.18063  0.21337  1.0000
  H   H3593     1.0  0.62809  0.19830  0.22246  1.0000
  H   H3594     1.0  0.62248  0.14639  0.28506  1.0000
  H   H3595     1.0  0.60932  0.16332  0.27420  1.0000
  H   H3596     1.0  0.62431  0.14804  0.26359  1.0000
  H   H3597     1.0  0.64890  0.19414  0.27395  1.0000
  H   H3598     1.0  0.66868  0.19308  0.26005  1.0000
  H   H3599     1.0  0.66256  0.17429  0.27176  1.0000
  H   H3600     1.0  0.50846  0.16035  0.30646  1.0000
  H   H3601     1.0  0.62071  0.19309  0.28358  1.0000
  H   H3602     1.0  0.72114  0.20723  0.31762  1.0000
  C   C2111     1.0  0.70881  0.09679  0.25641  1.0000
  C   C2112     1.0  0.59865  0.22550  0.18752  1.0000
  H   H3603     1.0  0.69952  0.14044  0.12839  1.0000
  H   H3604     1.0  0.63093  0.15703  0.45103  1.0000
  C   C2113     1.0  0.70893  0.07308  0.28021  1.0000
  S   S608      1.0  0.73443  0.12352  0.31373  1.0000
  C   C2114     1.0  0.68244  0.15082  0.10470  1.0000
  H   H3605     1.0  0.62927  0.19430  0.41779  1.0000
  C   C2115     1.0  0.58636  0.20103  0.16272  1.0000
  H   H3606     1.0  0.62448  0.21199  0.26854  1.0000
  N   N151      1.0  0.70408  0.08007  0.26362  1.0000
  H   H3607     1.0  0.65433  0.15812  0.12637  1.0000
  H   H3608     1.0  0.71648  0.04642  0.06098  1.0000
  C   C2116     1.0  0.70192  0.18246  0.08007  1.0000
  H   H3609     1.0  0.62273  0.22986  0.18678  1.0000
  H   H3610     1.0  0.51630  0.12860  0.28187  1.0000
  H   H3611     1.0  0.69935  0.10660  0.26215  1.0000
  H   H3612     1.0  0.60410  0.20738  0.27615  1.0000
  H   H3613     1.0  0.64896  0.21445  0.45281  1.0000
  C   C2117     1.0  0.67794  0.08694  0.25124  1.0000
  H   H3614     1.0  0.73592  0.15427  0.35704  1.0000
  H   H3615     1.0  0.71491  0.19422  0.30792  1.0000
  C   C2118     1.0  0.62944  0.20363  0.42449  1.0000
  H   H3616     1.0  0.68253  0.07759  0.24340  1.0000
  H   H3617     1.0  0.70573  0.17580  0.09152  1.0000
  C   C2119     1.0  0.67712  0.19421  0.44369  1.0000
  C   C2120     1.0  0.56388  0.22862  0.20418  1.0000
  N   N152      1.0  0.54178  0.12942  0.26938  1.0000
  H   H3618     1.0  0.70577  0.07775  0.30455  1.0000
  H   H3619     1.0  0.72230  0.05472  0.15295  1.0000
  H   H3620     1.0  0.70863  0.05552  0.25882  1.0000
  H   H3621     1.0  0.63752  0.13998  0.14713  1.0000
  H   H3622     1.0  0.68652  0.08141  0.29861  1.0000
  H   H3623     1.0  0.68982  0.18617  0.44279  1.0000
  H   H3624     1.0  0.52957  0.10875  0.28122  1.0000
  H   H3625     1.0  0.71856  0.21579  0.06558  1.0000
  H   H3626     1.0  0.60320  0.21498  0.35402  1.0000
  H   H3627     1.0  0.68429  0.13290  0.14520  1.0000
  H   H3628     1.0  0.59254  0.22459  0.15953  1.0000
  Fe  Fe302     1.0  0.73562  0.14894  0.04347  1.0000
  H   H3629     1.0  0.51572  0.10908  0.26213  1.0000
  H   H3630     1.0  0.70611  0.09740  0.23079  1.0000
  H   H3631     1.0  0.68761  0.15982  0.14672  1.0000
  C   C2121     1.0  0.73197  0.06334  0.24990  1.0000
  H   H3632     1.0  0.72171  0.08635  0.08382  1.0000
  H   H3633     1.0  0.73711  0.07469  0.24504  1.0000
  H   H3634     1.0  0.61822  0.20471  0.43454  1.0000
  H   H3635     1.0  0.73649  0.05603  0.26123  1.0000
  S   S609      1.0  0.71551  0.12522  0.28452  1.0000
  H   H3636     1.0  0.70228  0.12139  0.09786  1.0000
  S   S610      1.0  0.55434  0.17826  0.27341  1.0000
  H   H3637     1.0  0.65084  0.21155  0.42586  1.0000
  H   H3638     1.0  0.68099  0.11365  0.13323  1.0000
  H   H3639     1.0  0.65347  0.12169  0.14515  1.0000
  C   C2122     1.0  0.70035  0.11578  0.11134  1.0000
  Fe  Fe303     1.0  0.71989  0.14314  0.29668  1.0000
  N   N153      1.0  0.63402  0.15819  0.34163  1.0000
  C   C2123     1.0  0.63282  0.15714  0.35974  1.0000
  C   C2124     1.0  0.63902  0.14064  0.33890  1.0000
  C   C2125     1.0  0.61702  0.16652  0.33787  1.0000
  C   C2126     1.0  0.64675  0.16836  0.33159  1.0000
  C   C2127     1.0  0.62627  0.17377  0.36555  1.0000
  C   C2128     1.0  0.65535  0.12998  0.34379  1.0000
  C   C2129     1.0  0.61220  0.16154  0.32414  1.0000
  C   C2130     1.0  0.65105  0.16981  0.31274  1.0000
  H   H3640     1.0  0.62465  0.14852  0.36770  1.0000
  H   H3641     1.0  0.64518  0.15187  0.36302  1.0000
  H   H3642     1.0  0.64034  0.14044  0.32574  1.0000
  H   H3643     1.0  0.62904  0.13373  0.34602  1.0000
  H   H3644     1.0  0.60695  0.16394  0.34903  1.0000
  H   H3645     1.0  0.61546  0.18026  0.33470  1.0000
  H   H3646     1.0  0.64255  0.18138  0.33332  1.0000
  H   H3647     1.0  0.65859  0.16343  0.33595  1.0000
  H   H3648     1.0  0.63476  0.18248  0.35958  1.0000
  H   H3649     1.0  0.61358  0.18000  0.36358  1.0000
  H   H3650     1.0  0.65412  0.12647  0.35742  1.0000
  H   H3651     1.0  0.65854  0.11818  0.33944  1.0000
  H   H3652     1.0  0.66595  0.13612  0.33792  1.0000
  H   H3653     1.0  0.60054  0.17019  0.32132  1.0000
  H   H3654     1.0  0.60954  0.14887  0.32841  1.0000
  H   H3655     1.0  0.62171  0.16202  0.31245  1.0000
  H   H3656     1.0  0.65610  0.15756  0.30928  1.0000
  H   H3657     1.0  0.66094  0.17709  0.30710  1.0000
  H   H3658     1.0  0.64025  0.17677  0.30721  1.0000
  C   C2131     1.0  0.60051  0.21326  0.34311  1.0000
  H   H3659     1.0  0.71370  0.01946  0.07185  1.0000
  H   H3660     1.0  0.73204  0.04160  0.07218  1.0000
  H   H3661     1.0  0.72237  0.07245  0.27899  1.0000
  N   N154      1.0  0.64663  0.19189  0.44761  1.0000
  H   H3662     1.0  0.72517  0.10193  0.23178  1.0000
  C   C2132     1.0  0.54415  0.12170  0.30016  1.0000
  H   H3663     1.0  0.50827  0.13084  0.25821  1.0000
  H   H3664     1.0  0.73830  0.17569  0.31247  1.0000
  S   S611      1.0  0.58029  0.21281  0.24960  1.0000
  H   H3665     1.0  0.57299  0.10135  0.24837  1.0000
  H   H3666     1.0  0.57265  0.20536  0.16512  1.0000
  H   H3667     1.0  0.55671  0.11345  0.29901  1.0000
  H   H3668     1.0  0.62355  0.22168  0.10536  1.0000
  C   C2133     1.0  0.68585  0.14236  0.13338  1.0000
  H   H3669     1.0  0.67673  0.20278  0.43145  1.0000
  C   C2134     1.0  0.55775  0.11690  0.26537  1.0000
  H   H3670     1.0  0.70395  0.19307  0.34515  1.0000
  Fe  Fe304     1.0  0.66999  0.22657  0.35739  1.0000
  C   C2135     1.0  0.73681  0.01181  0.09297  1.0000
  C   C2136     1.0  0.62315  0.21474  0.45972  1.0000
  H   H3671     1.0  0.62070  0.22267  0.44771  1.0000
  H   H3672     1.0  0.70235  0.17866  0.33488  1.0000
  C   C2137     1.0  0.49129  0.15274  0.29714  1.0000
  H   H3673     1.0  0.62260  0.20832  0.19104  1.0000
  H   H3674     1.0  0.64334  0.19908  0.47076  1.0000
  H   H3675     1.0  0.56698  0.22867  0.17883  1.0000
  H   H3676     1.0  0.58976  0.18774  0.16882  1.0000
  H   H3677     1.0  0.62315  0.22096  0.17025  1.0000
  C   C2138     1.0  0.73779  0.21260  0.03550  1.0000
  S   S612      1.0  0.72081  0.15558  0.06769  1.0000
  C   C2139     1.0  0.71897  0.01641  0.10322  1.0000
  H   H3678     1.0  0.59077  0.20170  0.14918  1.0000
  H   H3679     1.0  0.72921  0.01656  0.05414  1.0000
  C   C2140     1.0  0.72872  0.03806  0.06230  1.0000
  C   C2141     1.0  0.73461  0.98273  0.06666  1.0000
  H   H3680     1.0  0.72577  0.99943  0.22977  1.0000
  H   H3681     1.0  0.55009  0.23093  0.20683  1.0000
  H   H3682     1.0  0.72601  0.16055  0.32215  1.0000
  S   S613      1.0  0.73213  0.12965  0.03229  1.0000
  S   S614      1.0  0.66905  0.22911  0.47118  1.0000
  C   C2142     1.0  0.73280  0.99080  0.08125  1.0000
  H   H3683     1.0  0.73714  0.05553  0.24051  1.0000
  H   H3684     1.0  0.73206  0.22383  0.02714  1.0000
  H   H3685     1.0  0.73810  0.07656  0.17669  1.0000
  N   N155      1.0  0.73820  0.00716  0.07685  1.0000
  H   H3686     1.0  0.56482  0.23115  0.29817  1.0000
  H   H3687     1.0  0.61870  0.22420  0.08585  1.0000
  S   S615      1.0  0.69559  0.22966  0.09626  1.0000
  H   H3688     1.0  0.62103  0.22342  0.46799  1.0000
  H   H3689     1.0  0.73347  0.08883  0.15000  1.0000
  C   C2143     1.0  0.73592  0.10162  0.19025  1.0000
  H   H3690     1.0  0.49316  0.14024  0.30465  1.0000
  H   H3691     1.0  0.63770  0.22895  0.08707  1.0000
  C   C2144     1.0  0.62431  0.22970  0.09270  1.0000
  H   H3692     1.0  0.73974  0.00627  0.23719  1.0000
  H   H3693     1.0  0.73713  0.07666  0.64111  1.0000
  H   H3694     1.0  0.71426  0.08759  0.91043  1.0000
  Fe  Fe305     1.0  0.66534  0.21943  0.80547  1.0000
  S   S616      1.0  0.54699  0.21841  0.61290  1.0000
  H   H3695     1.0  0.63547  0.18608  0.77957  1.0000
  C   C2145     1.0  0.54788  0.15467  0.68576  1.0000
  S   S617      1.0  0.50115  0.21894  0.63925  1.0000
  H   H3696     1.0  0.51929  0.16522  0.63864  1.0000
  S   S618      1.0  0.58235  0.20836  0.63588  1.0000
  H   H3697     1.0  0.55389  0.15301  0.63867  1.0000
  S   S619      1.0  0.73868  0.17016  0.89368  1.0000
  H   H3698     1.0  0.54854  0.19348  0.65130  1.0000
  S   S620      1.0  0.65724  0.16211  0.61013  1.0000
  S   S621      1.0  0.71726  0.15018  0.54143  1.0000
  S   S622      1.0  0.69070  0.20848  0.79228  1.0000
  H   H3699     1.0  0.68006  0.09996  0.66995  1.0000
  Fe  Fe306     1.0  0.65970  0.21175  0.49473  1.0000
  S   S623      1.0  0.66485  0.18437  0.49629  1.0000
  H   H3700     1.0  0.66840  0.15864  0.83162  1.0000
  H   H3701     1.0  0.65998  0.21278  0.57395  1.0000
  S   S624      1.0  0.70719  0.05464  0.78352  1.0000
  Fe  Fe307     1.0  0.70975  0.06350  0.82465  1.0000
  C   C2146     1.0  0.73476  0.14638  0.96838  1.0000
  S   S625      1.0  0.70941  0.07053  0.84839  1.0000
  Fe  Fe308     1.0  0.68733  0.06840  0.80093  1.0000
  S   S626      1.0  0.66166  0.08090  0.79665  1.0000
  S   S627      1.0  0.69175  0.04894  0.82378  1.0000
  H   H3702     1.0  0.68574  0.12727  0.69438  1.0000
  H   H3703     1.0  0.52604  0.22031  0.71413  1.0000
  C   C2147     1.0  0.71369  0.19983  0.53947  1.0000
  H   H3704     1.0  0.62728  0.15698  0.58483  1.0000
  H   H3705     1.0  0.68536  0.15352  0.79915  1.0000
  C   C2148     1.0  0.63477  0.22300  0.61933  1.0000
  H   H3706     1.0  0.63210  0.20667  0.64344  1.0000
  S   S628      1.0  0.69344  0.18363  0.88610  1.0000
  H   H3707     1.0  0.62423  0.20859  0.73228  1.0000
  C   C2149     1.0  0.71947  0.08645  0.84701  1.0000
  Fe  Fe309     1.0  0.71955  0.16856  0.88112  1.0000
  C   C2150     1.0  0.67912  0.10742  0.67901  1.0000
  H   H3708     1.0  0.65997  0.19731  0.77718  1.0000
  H   H3709     1.0  0.59403  0.22487  0.65721  1.0000
  H   H3710     1.0  0.53368  0.19003  0.68063  1.0000
  H   H3711     1.0  0.72058  0.11291  0.86993  1.0000
  Fe  Fe310     1.0  0.71298  0.03615  0.80633  1.0000
  H   H3712     1.0  0.62622  0.16284  0.56308  1.0000
  Fe  Fe311     1.0  0.60577  0.15959  0.71323  1.0000
  S   S629      1.0  0.61504  0.18194  0.71237  1.0000
  S   S630      1.0  0.57988  0.16562  0.70871  1.0000
  Fe  Fe312     1.0  0.63807  0.13562  0.71952  1.0000
  S   S631      1.0  0.65000  0.15615  0.71844  1.0000
  S   S632      1.0  0.65542  0.11047  0.72222  1.0000
  Fe  Fe313     1.0  0.62566  0.16623  0.73400  1.0000
  S   S633      1.0  0.62458  0.17596  0.75603  1.0000
  Fe  Fe314     1.0  0.63837  0.16986  0.69692  1.0000
  S   S634      1.0  0.65269  0.18517  0.67494  1.0000
  S   S635      1.0  0.61415  0.14481  0.73661  1.0000
  S   S636      1.0  0.62867  0.14830  0.69632  1.0000
  C   C2151     1.0  0.68833  0.09512  0.69208  1.0000
  C   C2152     1.0  0.71598  0.09399  0.86054  1.0000
  C   C2153     1.0  0.65500  0.17009  0.62745  1.0000
  C   C2154     1.0  0.66673  0.17839  0.62805  1.0000
  C   C2155     1.0  0.66578  0.18336  0.64257  1.0000
  C   C2156     1.0  0.65323  0.17983  0.65654  1.0000
  C   C2157     1.0  0.64113  0.17216  0.65566  1.0000
  C   C2158     1.0  0.64195  0.16735  0.64110  1.0000
  H   H3713     1.0  0.67664  0.18088  0.61737  1.0000
  H   H3714     1.0  0.67504  0.18952  0.64309  1.0000
  H   H3715     1.0  0.63097  0.17014  0.66609  1.0000
  H   H3716     1.0  0.63278  0.16106  0.64062  1.0000
  C   C2159     1.0  0.66921  0.19746  0.75119  1.0000
  C   C2160     1.0  0.65798  0.19464  0.76641  1.0000
  C   C2161     1.0  0.64421  0.18813  0.76780  1.0000
  C   C2162     1.0  0.64185  0.18410  0.75404  1.0000
  C   C2163     1.0  0.65321  0.18672  0.73887  1.0000
  C   C2164     1.0  0.66697  0.19326  0.73747  1.0000
  H   H3717     1.0  0.53221  0.14749  0.66231  1.0000
  C   C2165     1.0  0.73294  0.14783  0.94017  1.0000
  H   H3718     1.0  0.65118  0.18418  0.72807  1.0000
  H   H3719     1.0  0.67562  0.19549  0.72566  1.0000
  H   H3720     1.0  0.71875  0.04188  0.72301  1.0000
  C   C2166     1.0  0.68282  0.18870  0.87002  1.0000
  C   C2167     1.0  0.69107  0.19217  0.85336  1.0000
  C   C2168     1.0  0.68199  0.19743  0.84080  1.0000
  C   C2169     1.0  0.66473  0.19868  0.84489  1.0000
  C   C2170     1.0  0.65660  0.19490  0.86152  1.0000
  C   C2171     1.0  0.66557  0.19020  0.87404  1.0000
  H   H3721     1.0  0.70433  0.19141  0.85016  1.0000
  H   H3722     1.0  0.68836  0.20052  0.82800  1.0000
  H   H3723     1.0  0.64328  0.19585  0.86474  1.0000
  H   H3724     1.0  0.65914  0.18759  0.88690  1.0000
  H   H3725     1.0  0.69491  0.16449  0.74436  1.0000
  H   H3726     1.0  0.68694  0.02076  0.79818  1.0000
  C   C2172     1.0  0.65925  0.08734  0.77604  1.0000
  C   C2173     1.0  0.67144  0.08142  0.76311  1.0000
  C   C2174     1.0  0.67003  0.08826  0.74658  1.0000
  C   C2175     1.0  0.65651  0.10114  0.74295  1.0000
  C   C2176     1.0  0.64418  0.10674  0.75590  1.0000
  C   C2177     1.0  0.64542  0.09969  0.77239  1.0000
  H   H3727     1.0  0.68200  0.07173  0.76582  1.0000
  H   H3728     1.0  0.67955  0.08379  0.73662  1.0000
  H   H3729     1.0  0.63360  0.11644  0.75327  1.0000
  H   H3730     1.0  0.63586  0.10420  0.78232  1.0000
  H   H3731     1.0  0.66581  0.16692  0.80483  1.0000
  C   C2178     1.0  0.56798  0.17221  0.63133  1.0000
  Fe  Fe315     1.0  0.52313  0.23105  0.62736  1.0000
  C   C2179     1.0  0.63211  0.23187  0.65504  1.0000
  H   H3732     1.0  0.70656  0.13051  0.65209  1.0000
  C   C2180     1.0  0.61947  0.22091  0.72477  1.0000
  H   H3733     1.0  0.70710  0.20227  0.49424  1.0000
  H   H3734     1.0  0.50409  0.16139  0.65725  1.0000
  S   S637      1.0  0.73158  0.04893  0.80923  1.0000
  C   C2181     1.0  0.70135  0.15839  0.53026  1.0000
  C   C2182     1.0  0.71181  0.02129  0.75649  1.0000
  H   H3735     1.0  0.54331  0.14319  0.68766  1.0000
  Fe  Fe316     1.0  0.68446  0.15588  0.59907  1.0000
  H   H3736     1.0  0.71117  0.11483  0.68616  1.0000
  H   H3737     1.0  0.70827  0.17448  0.80893  1.0000
  C   C2183     1.0  0.70340  0.11958  0.66197  1.0000
  H   H3738     1.0  0.71806  0.01385  0.72632  1.0000
  Fe  Fe317     1.0  0.71681  0.16624  0.59330  1.0000
  C   C2184     1.0  0.67829  0.17380  0.50988  1.0000
  C   C2185     1.0  0.67548  0.17756  0.52543  1.0000
  C   C2186     1.0  0.68685  0.16962  0.53579  1.0000
  H   H3739     1.0  0.68702  0.15396  0.86938  1.0000
  C   C2187     1.0  0.69235  0.16198  0.50479  1.0000
  H   H3740     1.0  0.66467  0.18677  0.52932  1.0000
  H   H3741     1.0  0.68478  0.17271  0.54766  1.0000
  H   H3742     1.0  0.69459  0.15901  0.49282  1.0000
  H   H3743     1.0  0.62801  0.22282  0.61009  1.0000
  C   C2188     1.0  0.53751  0.18779  0.65490  1.0000
  S   S638      1.0  0.73634  0.17009  0.85594  1.0000
  H   H3744     1.0  0.59711  0.20650  0.59302  1.0000
  H   H3745     1.0  0.73776  0.21426  0.53782  1.0000
  H   H3746     1.0  0.65383  0.22632  0.89133  1.0000
  H   H3747     1.0  0.64417  0.14921  0.56958  1.0000
  H   H3748     1.0  0.70008  0.12114  0.83967  1.0000
  H   H3749     1.0  0.73371  0.08596  0.82220  1.0000
  C   C2189     1.0  0.58097  0.19667  0.65621  1.0000
  C   C2190     1.0  0.56759  0.20086  0.66907  1.0000
  C   C2191     1.0  0.56704  0.19112  0.68524  1.0000
  C   C2192     1.0  0.58002  0.17743  0.68851  1.0000
  C   C2193     1.0  0.59328  0.17330  0.67559  1.0000
  C   C2194     1.0  0.59375  0.18289  0.65948  1.0000
  H   H3750     1.0  0.55778  0.21163  0.66663  1.0000
  H   H3751     1.0  0.55680  0.19437  0.69526  1.0000
  H   H3752     1.0  0.60310  0.16255  0.67796  1.0000
  H   H3753     1.0  0.60408  0.17961  0.64954  1.0000
  C   C2195     1.0  0.63062  0.22208  0.70717  1.0000
  H   H3754     1.0  0.71512  0.14581  0.51052  1.0000
  H   H3755     1.0  0.70230  0.14720  0.67315  1.0000
  H   H3756     1.0  0.70751  0.05530  0.74735  1.0000
  C   C2196     1.0  0.73866  0.22456  0.85653  1.0000
  C   C2197     1.0  0.72876  0.01011  0.73251  1.0000
  H   H3757     1.0  0.66997  0.13259  0.63419  1.0000
  C   C2198     1.0  0.71635  0.11455  0.67297  1.0000
  C   C2199     1.0  0.68855  0.14996  0.67659  1.0000
  C   C2200     1.0  0.68186  0.00033  0.79152  1.0000
  H   H3758     1.0  0.66566  0.11043  0.68509  1.0000
  S   S639      1.0  0.72419  0.14066  0.88767  1.0000
  H   H3759     1.0  0.70920  0.18867  0.53985  1.0000
  S   S640      1.0  0.66933  0.22146  0.51101  1.0000
  H   H3760     1.0  0.71232  0.00835  0.76390  1.0000
  H   H3761     1.0  0.66182  0.13648  0.66339  1.0000
  N   N156      1.0  0.68222  0.13526  0.76182  1.0000
  C   C2201     1.0  0.66803  0.14333  0.77398  1.0000
  C   C2202     1.0  0.69772  0.14021  0.76212  1.0000
  C   C2203     1.0  0.68401  0.11666  0.76756  1.0000
  C   C2204     1.0  0.67783  0.14118  0.74504  1.0000
  C   C2205     1.0  0.65134  0.13793  0.77765  1.0000
  C   C2206     1.0  0.69743  0.15900  0.75693  1.0000
  C   C2207     1.0  0.70102  0.10566  0.76159  1.0000
  C   C2208     1.0  0.69111  0.13586  0.73014  1.0000
  H   H3762     1.0  0.67145  0.14087  0.78614  1.0000
  H   H3763     1.0  0.66523  0.15705  0.76960  1.0000
  H   H3764     1.0  0.70893  0.13421  0.75404  1.0000
  H   H3765     1.0  0.70035  0.13569  0.77479  1.0000
  H   H3766     1.0  0.68143  0.11291  0.78136  1.0000
  H   H3767     1.0  0.67461  0.11267  0.76378  1.0000
  H   H3768     1.0  0.66684  0.13656  0.74520  1.0000
  H   H3769     1.0  0.67352  0.15493  0.74195  1.0000
  H   H3770     1.0  0.65226  0.12468  0.78411  1.0000
  H   H3771     1.0  0.64186  0.14536  0.78607  1.0000
  H   H3772     1.0  0.64640  0.14032  0.76640  1.0000
  H   H3773     1.0  0.68837  0.16592  0.76598  1.0000
  H   H3774     1.0  0.70983  0.16100  0.75653  1.0000
  H   H3775     1.0  0.70002  0.09242  0.76572  1.0000
  H   H3776     1.0  0.71061  0.10690  0.76732  1.0000
  H   H3777     1.0  0.70531  0.10807  0.74800  1.0000
  H   H3778     1.0  0.68994  0.12383  0.72847  1.0000
  H   H3779     1.0  0.70400  0.13504  0.73083  1.0000
  H   H3780     1.0  0.68921  0.14546  0.71875  1.0000
  H   H3781     1.0  0.52128  0.16221  0.67460  1.0000
  H   H3782     1.0  0.61698  0.20962  0.68169  1.0000
  H   H3783     1.0  0.69920  0.12284  0.80973  1.0000
  H   H3784     1.0  0.67672  0.13084  0.81552  1.0000
  H   H3785     1.0  0.65122  0.17606  0.55705  1.0000
  H   H3786     1.0  0.67931  0.14442  0.65066  1.0000
  H   H3787     1.0  0.71391  0.10202  0.92213  1.0000
  H   H3788     1.0  0.52300  0.20730  0.66785  1.0000
  H   H3789     1.0  0.71713  0.16472  0.95548  1.0000
  C   C2209     1.0  0.60894  0.20906  0.67386  1.0000
  H   H3790     1.0  0.65033  0.20381  0.55458  1.0000
  H   H3791     1.0  0.56376  0.15011  0.66305  1.0000
  C   C2210     1.0  0.67522  0.13266  0.65750  1.0000
  H   H3792     1.0  0.54330  0.17312  0.62979  1.0000
  S   S641      1.0  0.72497  0.18721  0.59738  1.0000
  C   C2211     1.0  0.73905  0.10417  0.83199  1.0000
  C   C2212     1.0  0.68147  0.13404  0.68285  1.0000
  H   H3793     1.0  0.59919  0.20831  0.75390  1.0000
  H   H3794     1.0  0.70597  0.10942  0.65525  1.0000
  C   C2213     1.0  0.52794  0.16111  0.66178  1.0000
  C   C2214     1.0  0.65273  0.20285  0.57894  1.0000
  S   S642      1.0  0.71993  0.00866  0.80580  1.0000
  H   H3795     1.0  0.73908  0.19265  0.95975  1.0000
  H   H3796     1.0  0.68473  0.15691  0.68667  1.0000
  H   H3797     1.0  0.72841  0.05230  0.75023  1.0000
  C   C2215     1.0  0.69845  0.21431  0.54161  1.0000
  H   H3798     1.0  0.56291  0.16979  0.66642  1.0000
  C   C2216     1.0  0.69157  0.00807  0.79659  1.0000
  C   C2217     1.0  0.72379  0.10679  0.85969  1.0000
  C   C2218     1.0  0.73444  0.21687  0.52560  1.0000
  H   H3799     1.0  0.50926  0.18129  0.65041  1.0000
  H   H3800     1.0  0.68360  0.15850  0.66600  1.0000
  H   H3801     1.0  0.66775  0.13795  0.68728  1.0000
  S   S643      1.0  0.65297  0.20509  0.82957  1.0000
  H   H3802     1.0  0.72376  0.10178  0.67238  1.0000
  C   C2219     1.0  0.52670  0.19353  0.67069  1.0000
  H   H3803     1.0  0.73309  0.08125  0.88745  1.0000
  H   H3804     1.0  0.53060  0.19387  0.64484  1.0000
  S   S644      1.0  0.70275  0.15055  0.61504  1.0000
  S   S645      1.0  0.70347  0.08394  0.80321  1.0000
  S   S646      1.0  0.69733  0.17338  0.57831  1.0000
  H   H3805     1.0  0.68879  0.11848  0.63785  1.0000
  H   H3806     1.0  0.68915  0.10076  0.70187  1.0000
  H   H3807     1.0  0.68391  0.17520  0.79777  1.0000
  N   N157      1.0  0.54270  0.16927  0.65602  1.0000
  H   H3808     1.0  0.61479  0.19868  0.66743  1.0000
  H   H3809     1.0  0.68147  0.17310  0.82514  1.0000
  N   N158      1.0  0.68526  0.12322  0.67048  1.0000
  C   C2220     1.0  0.72673  0.03936  0.73205  1.0000
  Fe  Fe318     1.0  0.71106  0.15062  0.56847  1.0000
  C   C2221     1.0  0.67591  0.12356  0.64401  1.0000
  H   H3810     1.0  0.73111  0.20968  0.49752  1.0000
  H   H3811     1.0  0.72697  0.15372  0.92983  1.0000
  S   S647      1.0  0.68580  0.20661  0.74908  1.0000
  H   H3812     1.0  0.66868  0.11365  0.64890  1.0000
  H   H3813     1.0  0.64523  0.20464  0.59130  1.0000
  C   C2222     1.0  0.70396  0.15451  0.51483  1.0000
  N   N159      1.0  0.63128  0.19139  0.57167  1.0000
  C   C2223     1.0  0.64273  0.17491  0.56948  1.0000
  C   C2224     1.0  0.64176  0.20427  0.56690  1.0000
  C   C2225     1.0  0.61884  0.19662  0.56081  1.0000
  C   C2226     1.0  0.62184  0.18975  0.58944  1.0000
  C   C2227     1.0  0.63432  0.16037  0.57192  1.0000
  S   S648      1.0  0.65454  0.22946  0.78274  1.0000
  C   C2228     1.0  0.62623  0.19765  0.54213  1.0000
  C   C2229     1.0  0.60993  0.20574  0.59417  1.0000
  H   H3814     1.0  0.69989  0.19599  0.51596  1.0000
  H   H3815     1.0  0.65115  0.17069  0.57827  1.0000
  H   H3816     1.0  0.63400  0.21707  0.56524  1.0000
  H   H3817     1.0  0.68128  0.08516  0.69851  1.0000
  H   H3818     1.0  0.60987  0.18826  0.56492  1.0000
  H   H3819     1.0  0.61096  0.20910  0.56209  1.0000
  H   H3820     1.0  0.61392  0.18049  0.59263  1.0000
  H   H3821     1.0  0.63028  0.18442  0.59823  1.0000
  H   H3822     1.0  0.59732  0.20603  0.68246  1.0000
  H   H3823     1.0  0.73620  0.99670  0.77147  1.0000
  H   H3824     1.0  0.68896  0.20997  0.55254  1.0000
  H   H3825     1.0  0.66972  0.00711  0.78932  1.0000
  H   H3826     1.0  0.56614  0.18590  0.62890  1.0000
  C   C2230     1.0  0.55133  0.16647  0.63883  1.0000
  H   H3827     1.0  0.63402  0.20709  0.53687  1.0000
  H   H3828     1.0  0.61589  0.20161  0.53549  1.0000
  H   H3829     1.0  0.63348  0.18548  0.53938  1.0000
  H   H3830     1.0  0.57733  0.16636  0.63910  1.0000
  H   H3831     1.0  0.67853  0.13053  0.84331  1.0000
  Fe  Fe319     1.0  0.72386  0.06845  0.78771  1.0000
  S   S649      1.0  0.69633  0.13357  0.58795  1.0000
  H   H3832     1.0  0.71844  0.19680  0.55097  1.0000
  H   H3833     1.0  0.57347  0.16868  0.61915  1.0000
  H   H3834     1.0  0.60961  0.20559  0.60719  1.0000
  H   H3835     1.0  0.72787  0.99749  0.74032  1.0000
  H   H3836     1.0  0.61377  0.21737  0.58675  1.0000
  C   C2231     1.0  0.55494  0.16120  0.66720  1.0000
  H   H3837     1.0  0.61650  0.22276  0.75961  1.0000
  C   C2232     1.0  0.70719  0.99936  0.79966  1.0000
  C   C2233     1.0  0.69516  0.02639  0.75081  1.0000
  H   H3838     1.0  0.73730  0.07602  0.92399  1.0000
  Fe  Fe320     1.0  0.68059  0.22022  0.76941  1.0000
  C   C2234     1.0  0.72731  0.15400  0.95475  1.0000
  H   H3839     1.0  0.55805  0.15127  0.69260  1.0000
  N   N160      1.0  0.61848  0.23089  0.64759  1.0000
  H   H3840     1.0  0.68625  0.11080  0.82538  1.0000
  H   H3841     1.0  0.64205  0.22172  0.73955  1.0000
  H   H3842     1.0  0.72383  0.16353  0.82103  1.0000
  C   C2235     1.0  0.73554  0.11175  0.84547  1.0000
  H   H3843     1.0  0.70263  0.22466  0.84277  1.0000
  H   H3844     1.0  0.67181  0.15813  0.85732  1.0000
  H   H3845     1.0  0.66177  0.19080  0.58030  1.0000
  H   H3846     1.0  0.72531  0.12291  0.66815  1.0000
  H   H3847     1.0  0.70087  0.08889  0.68620  1.0000
  H   H3848     1.0  0.72775  0.16268  0.79981  1.0000
  H   H3849     1.0  0.73460  0.17686  0.52411  1.0000
  C   C2236     1.0  0.72082  0.20848  0.50867  1.0000
  H   H3850     1.0  0.69144  0.01526  0.74989  1.0000
  H   H3851     1.0  0.69536  0.03543  0.73883  1.0000
  H   H3852     1.0  0.53785  0.16383  0.69161  1.0000
  N   N161      1.0  0.69473  0.14746  0.82902  1.0000
  C   C2237     1.0  0.69792  0.15062  0.84420  1.0000
  C   C2238     1.0  0.71078  0.14713  0.81609  1.0000
  C   C2239     1.0  0.69038  0.13059  0.83384  1.0000
  C   C2240     1.0  0.68054  0.16096  0.82353  1.0000
  C   C2241     1.0  0.68369  0.14978  0.85980  1.0000
  C   C2242     1.0  0.71786  0.16298  0.81130  1.0000
  C   C2243     1.0  0.68811  0.12373  0.82003  1.0000
  C   C2244     1.0  0.67917  0.16399  0.80531  1.0000
  H   H3853     1.0  0.70918  0.14172  0.84781  1.0000
  H   H3854     1.0  0.70068  0.16315  0.84161  1.0000
  H   H3855     1.0  0.70975  0.14480  0.80444  1.0000
  H   H3856     1.0  0.72063  0.13655  0.82041  1.0000
  S   S650      1.0  0.73194  0.14479  0.58171  1.0000
  N   N162      1.0  0.72729  0.02215  0.74298  1.0000
  H   H3857     1.0  0.58665  0.22181  0.76726  1.0000
  H   H3858     1.0  0.72142  0.10663  0.90018  1.0000
  C   C2245     1.0  0.71298  0.98288  0.79759  1.0000
  H   H3859     1.0  0.68529  0.03254  0.76004  1.0000
  H   H3860     1.0  0.72234  0.06564  0.73199  1.0000
  H   H3861     1.0  0.71258  0.22103  0.50787  1.0000
  Fe  Fe321     1.0  0.71594  0.12963  0.60222  1.0000
  C   C2246     1.0  0.72086  0.05383  0.74113  1.0000
  H   H3862     1.0  0.70695  0.09011  0.87158  1.0000
  H   H3863     1.0  0.72493  0.22873  0.52510  1.0000
  C   C2247     1.0  0.60831  0.23083  0.75108  1.0000
  C   C2248     1.0  0.62446  0.21801  0.63710  1.0000
  C   C2249     1.0  0.68766  0.98385  0.78943  1.0000
  H   H3864     1.0  0.67584  0.21908  0.88361  1.0000
  C   C2250     1.0  0.71123  0.19692  0.50614  1.0000
  C   C2251     1.0  0.60457  0.22583  0.66181  1.0000
  H   H3865     1.0  0.67095  0.99483  0.83418  1.0000
  H   H3866     1.0  0.71901  0.18436  0.50538  1.0000
  H   H3867     1.0  0.68199  0.13688  0.86535  1.0000
  H   H3868     1.0  0.71098  0.02847  0.76580  1.0000
  H   H3869     1.0  0.61372  0.21384  0.63587  1.0000
  H   H3870     1.0  0.63675  0.21967  0.66282  1.0000
  H   H3871     1.0  0.51496  0.18901  0.67512  1.0000
  H   H3872     1.0  0.67334  0.22318  0.85715  1.0000
  N   N163      1.0  0.72733  0.20310  0.52434  1.0000
  H   H3873     1.0  0.73929  0.04054  0.72421  1.0000
  C   C2252     1.0  0.72114  0.09645  0.91135  1.0000
  S   S651      1.0  0.63402  0.22753  0.49963  1.0000
  H   H3874     1.0  0.62977  0.21191  0.70198  1.0000
  H   H3875     1.0  0.70166  0.22497  0.54408  1.0000
  C   C2253     1.0  0.66629  0.22922  0.88854  1.0000
  H   H3876     1.0  0.58554  0.22719  0.74595  1.0000
  C   C2254     1.0  0.73092  0.09170  0.83267  1.0000
  C   C2255     1.0  0.51458  0.16781  0.65124  1.0000
  H   H3877     1.0  0.69249  0.21860  0.53087  1.0000
  S   S652      1.0  0.72422  0.10394  0.61702  1.0000
  H   H3878     1.0  0.69798  0.22858  0.86307  1.0000
  Fe  Fe322     1.0  0.55933  0.22561  0.62886  1.0000
  H   H3879     1.0  0.64662  0.21361  0.61747  1.0000
  C   C2256     1.0  0.59412  0.22160  0.75447  1.0000
  H   H3880     1.0  0.60708  0.22017  0.72374  1.0000
  H   H3881     1.0  0.73794  0.22010  0.84582  1.0000
  C   C2257     1.0  0.73711  0.10255  0.63024  1.0000
  H   H3882     1.0  0.52480  0.22758  0.69292  1.0000
  H   H3883     1.0  0.73923  0.12820  0.62212  1.0000
  H   H3884     1.0  0.64395  0.22006  0.70727  1.0000
  C   C2258     1.0  0.73872  0.08749  0.91418  1.0000
  H   H3885     1.0  0.65500  0.22673  0.63611  1.0000
  H   H3886     1.0  0.66879  0.22912  0.90057  1.0000
  H   H3887     1.0  0.50619  0.22983  0.70921  1.0000
  C   C2259     1.0  0.51948  0.23042  0.70542  1.0000
  H   H3888     1.0  0.74001  0.02583  0.75979  1.0000
  H   H3889     1.0  0.62861  0.42976  0.21125  1.0000
  H   H3890     1.0  0.71367  0.27146  0.42686  1.0000
  Fe  Fe323     1.0  0.67613  0.23372  0.11911  1.0000
  Fe  Fe324     1.0  0.53908  0.29241  0.20133  1.0000
  H   H3891     1.0  0.67328  0.36908  0.08362  1.0000
  S   S653      1.0  0.53750  0.28468  0.22873  1.0000
  Fe  Fe325     1.0  0.55480  0.28217  0.16864  1.0000
  S   S654      1.0  0.54154  0.30565  0.15405  1.0000
  S   S655      1.0  0.57397  0.26142  0.15849  1.0000
  Fe  Fe326     1.0  0.54837  0.31830  0.17033  1.0000
  S   S656      1.0  0.56033  0.34071  0.15958  1.0000
  Fe  Fe327     1.0  0.51901  0.30182  0.17466  1.0000
  S   S657      1.0  0.56312  0.29501  0.18335  1.0000
  S   S658      1.0  0.53193  0.27727  0.18797  1.0000
  Fe  Fe328     1.0  0.61394  0.41585  0.19212  1.0000
  S   S659      1.0  0.61851  0.39212  0.21113  1.0000
  Fe  Fe329     1.0  0.63364  0.39956  0.16360  1.0000
  S   S660      1.0  0.63984  0.37439  0.17995  1.0000
  S   S661      1.0  0.64366  0.40422  0.13620  1.0000
  Fe  Fe330     1.0  0.61311  0.38026  0.19331  1.0000
  S   S662      1.0  0.59710  0.36101  0.20356  1.0000
  Fe  Fe331     1.0  0.64474  0.38844  0.19607  1.0000
  S   S663      1.0  0.66868  0.38040  0.20515  1.0000
  S   S664      1.0  0.60650  0.40437  0.17543  1.0000
  S   S665      1.0  0.64048  0.41317  0.17860  1.0000
  S   S666      1.0  0.70141  0.38731  0.28650  1.0000
  S   S667      1.0  0.69264  0.42719  0.28597  1.0000
  Fe  Fe332     1.0  0.70609  0.40361  0.30023  1.0000
  S   S668      1.0  0.70190  0.39614  0.32803  1.0000
  Fe  Fe333     1.0  0.69064  0.41086  0.27040  1.0000
  S   S669      1.0  0.66665  0.41431  0.26277  1.0000
  H   H3892     1.0  0.61523  0.36826  0.14392  1.0000
  S   S670      1.0  0.72696  0.45214  0.25835  1.0000
  Fe  Fe334     1.0  0.72535  0.29271  0.37687  1.0000
  S   S671      1.0  0.70075  0.29343  0.37194  1.0000
  H   H3893     1.0  0.55589  0.28408  0.29321  1.0000
  H   H3894     1.0  0.72388  0.24204  0.35099  1.0000
  S   S672      1.0  0.64884  0.47900  0.20689  1.0000
  H   H3895     1.0  0.59785  0.25127  0.07182  1.0000
  C   C2260     1.0  0.61992  0.26355  0.13027  1.0000
  C   C2261     1.0  0.72120  0.31674  0.32519  1.0000
  H   H3896     1.0  0.68288  0.30704  0.43991  1.0000
  H   H3897     1.0  0.59080  0.24228  0.28218  1.0000
  S   S673      1.0  0.52468  0.31678  0.18958  1.0000
  C   C2262     1.0  0.61455  0.24745  0.09410  1.0000
  S   S674      1.0  0.71872  0.26538  0.08086  1.0000
  C   C2263     1.0  0.69794  0.34854  0.17414  1.0000
  H   H3898     1.0  0.63184  0.23665  0.05979  1.0000
  Fe  Fe335     1.0  0.73051  0.36425  0.11427  1.0000
  S   S675      1.0  0.71385  0.34606  0.12236  1.0000
  S   S676      1.0  0.72175  0.38664  0.12555  1.0000
  Fe  Fe336     1.0  0.72200  0.34347  0.09596  1.0000
  S   S677      1.0  0.70274  0.34067  0.08434  1.0000
  H   H3899     1.0  0.54196  0.24123  0.33063  1.0000
  C   C2264     1.0  0.71417  0.28689  0.07942  1.0000
  C   C2265     1.0  0.69774  0.29522  0.08430  1.0000
  C   C2266     1.0  0.69424  0.31200  0.08501  1.0000
  C   C2267     1.0  0.70717  0.32037  0.08125  1.0000
  C   C2268     1.0  0.72356  0.31220  0.07583  1.0000
  C   C2269     1.0  0.72704  0.29549  0.07474  1.0000
  H   H3900     1.0  0.68772  0.28871  0.08787  1.0000
  H   H3901     1.0  0.68158  0.31827  0.08900  1.0000
  C   C2270     1.0  0.58044  0.24284  0.27653  1.0000
  H   H3902     1.0  0.66710  0.31346  0.41970  1.0000
  C   C2271     1.0  0.71744  0.37941  0.33487  1.0000
  C   C2272     1.0  0.60620  0.27179  0.18251  1.0000
  H   H3903     1.0  0.72167  0.31012  0.31563  1.0000
  C   C2273     1.0  0.71604  0.37241  0.35184  1.0000
  H   H3904     1.0  0.68518  0.28581  0.46714  1.0000
  H   H3905     1.0  0.70534  0.37725  0.36068  1.0000
  C   C2274     1.0  0.66819  0.38975  0.22119  1.0000
  C   C2275     1.0  0.65362  0.40018  0.22778  1.0000
  C   C2276     1.0  0.65334  0.40774  0.24044  1.0000
  C   C2277     1.0  0.66761  0.40490  0.24663  1.0000
  C   C2278     1.0  0.68228  0.39458  0.23995  1.0000
  C   C2279     1.0  0.68255  0.38701  0.22725  1.0000
  H   H3906     1.0  0.64253  0.40237  0.22318  1.0000
  H   H3907     1.0  0.64197  0.41574  0.24551  1.0000
  H   H3908     1.0  0.69334  0.39227  0.24470  1.0000
  H   H3909     1.0  0.69387  0.37895  0.22221  1.0000
  C   C2280     1.0  0.66534  0.40038  0.13295  1.0000
  C   C2281     1.0  0.67285  0.39511  0.14655  1.0000
  C   C2282     1.0  0.69014  0.39142  0.14416  1.0000
  C   C2283     1.0  0.70010  0.39239  0.12819  1.0000
  C   C2284     1.0  0.69266  0.39744  0.11451  1.0000
  C   C2285     1.0  0.67525  0.40178  0.11690  1.0000
  H   H3910     1.0  0.66541  0.39361  0.15898  1.0000
  H   H3911     1.0  0.69570  0.38748  0.15477  1.0000
  H   H3912     1.0  0.70034  0.39821  0.10211  1.0000
  H   H3913     1.0  0.66946  0.40610  0.10636  1.0000
  C   C2286     1.0  0.59066  0.26859  0.14377  1.0000
  H   H3914     1.0  0.67700  0.28330  0.41342  1.0000
  H   H3915     1.0  0.72228  0.33792  0.16139  1.0000
  C   C2287     1.0  0.73434  0.29727  0.45973  1.0000
  C   C2288     1.0  0.60211  0.29040  0.12267  1.0000
  C   C2289     1.0  0.58857  0.28489  0.13435  1.0000
  H   H3916     1.0  0.59671  0.26852  0.41928  1.0000
  H   H3917     1.0  0.67755  0.34429  0.11610  1.0000
  H   H3918     1.0  0.60039  0.30295  0.11525  1.0000
  H   H3919     1.0  0.57649  0.29322  0.13595  1.0000
  C   C2290     1.0  0.57004  0.34666  0.17204  1.0000
  C   C2291     1.0  0.57871  0.35961  0.16514  1.0000
  C   C2292     1.0  0.58697  0.36425  0.17468  1.0000
  C   C2293     1.0  0.58657  0.35597  0.19122  1.0000
  C   C2294     1.0  0.57774  0.34318  0.19815  1.0000
  C   C2295     1.0  0.56957  0.33848  0.18860  1.0000
  H   H3920     1.0  0.57906  0.36603  0.15235  1.0000
  H   H3921     1.0  0.59361  0.37422  0.16928  1.0000
  H   H3922     1.0  0.57731  0.33678  0.21096  1.0000
  H   H3923     1.0  0.56284  0.32857  0.19409  1.0000
  C   C2296     1.0  0.71280  0.25099  0.35492  1.0000
  C   C2297     1.0  0.71405  0.26455  0.36040  1.0000
  C   C2298     1.0  0.69966  0.27606  0.36554  1.0000
  H   H3924     1.0  0.66298  0.42517  0.19648  1.0000
  H   H3925     1.0  0.66423  0.47389  0.28742  1.0000
  H   H3926     1.0  0.72609  0.26612  0.36061  1.0000
  H   H3927     1.0  0.60657  0.33172  0.17180  1.0000
  C   C2299     1.0  0.54938  0.26461  0.23385  1.0000
  C   C2300     1.0  0.56630  0.26071  0.22645  1.0000
  H   H3928     1.0  0.53255  0.26077  0.29726  1.0000
  H   H3929     1.0  0.57205  0.27013  0.21726  1.0000
  H   H3930     1.0  0.72981  0.28609  0.46604  1.0000
  H   H3931     1.0  0.67910  0.34977  0.14047  1.0000
  H   H3932     1.0  0.71142  0.24400  0.42640  1.0000
  C   C2301     1.0  0.55137  0.39479  0.19220  1.0000
  H   H3933     1.0  0.62605  0.25217  0.04218  1.0000
  H   H3934     1.0  0.61079  0.28129  0.09039  1.0000
  H   H3935     1.0  0.55394  0.38169  0.19094  1.0000
  H   H3936     1.0  0.60465  0.26837  0.05689  1.0000
  H   H3937     1.0  0.57419  0.30447  0.46473  1.0000
  H   H3938     1.0  0.63560  0.33025  0.11422  1.0000
  H   H3939     1.0  0.67825  0.42447  0.20724  1.0000
  C   C2302     1.0  0.69719  0.24879  0.35486  1.0000
  C   C2303     1.0  0.72370  0.27991  0.12948  1.0000
  H   H3940     1.0  0.65159  0.44194  0.17667  1.0000
  H   H3941     1.0  0.72123  0.48023  0.22594  1.0000
  H   H3942     1.0  0.70587  0.42157  0.16729  1.0000
  H   H3943     1.0  0.69756  0.45864  0.15720  1.0000
  H   H3944     1.0  0.66106  0.45125  0.24056  1.0000
  C   C2304     1.0  0.62139  0.25378  0.41323  1.0000
  H   H3945     1.0  0.68968  0.36101  0.17438  1.0000
  H   H3946     1.0  0.57574  0.39399  0.19512  1.0000
  C   C2305     1.0  0.68284  0.26018  0.36024  1.0000
  H   H3947     1.0  0.71566  0.35912  0.15365  1.0000
  C   C2306     1.0  0.63454  0.35647  0.12575  1.0000
  H   H3948     1.0  0.58274  0.39854  0.23888  1.0000
  C   C2307     1.0  0.65398  0.37346  0.10616  1.0000
  C   C2308     1.0  0.68200  0.46278  0.23025  1.0000
  H   H3949     1.0  0.72461  0.29312  0.12446  1.0000
  H   H3950     1.0  0.71026  0.27977  0.13241  1.0000
  C   C2309     1.0  0.64873  0.32964  0.10749  1.0000
  H   H3951     1.0  0.55818  0.28626  0.26099  1.0000
  Fe  Fe337     1.0  0.72579  0.39096  0.26958  1.0000
  C   C2310     1.0  0.68409  0.27389  0.36539  1.0000
  C   C2311     1.0  0.67223  0.27726  0.44523  1.0000
  H   H3952     1.0  0.68135  0.36982  0.10082  1.0000
  C   C2312     1.0  0.60923  0.46932  0.19657  1.0000
  H   H3953     1.0  0.72132  0.30688  0.33678  1.0000
  S   S678      1.0  0.71467  0.41345  0.25213  1.0000
  C   C2313     1.0  0.56370  0.24337  0.28920  1.0000
  C   C2314     1.0  0.71310  0.43709  0.32471  1.0000
  H   H3954     1.0  0.62445  0.38280  0.12720  1.0000
  H   H3955     1.0  0.67313  0.45218  0.19091  1.0000
  S   S679      1.0  0.65476  0.23967  0.10673  1.0000
  H   H3956     1.0  0.67980  0.43662  0.14549  1.0000
  H   H3957     1.0  0.68927  0.43019  0.33609  1.0000
  C   C2315     1.0  0.73544  0.47563  0.26869  1.0000
  C   C2316     1.0  0.72840  0.35902  0.35741  1.0000
  C   C2317     1.0  0.60842  0.26307  0.42309  1.0000
  H   H3958     1.0  0.57374  0.27410  0.28106  1.0000
  C   C2318     1.0  0.61212  0.28726  0.18266  1.0000
  H   H3959     1.0  0.64217  0.25161  0.06904  1.0000
  H   H3960     1.0  0.64289  0.26878  0.17185  1.0000
  S   S680      1.0  0.67467  0.26514  0.07726  1.0000
  H   H3961     1.0  0.61867  0.25104  0.10359  1.0000
  H   H3962     1.0  0.65194  0.46229  0.17573  1.0000
  H   H3963     1.0  0.70482  0.41502  0.14969  1.0000
  H   H3964     1.0  0.69836  0.30037  0.46093  1.0000
  C   C2319     1.0  0.62917  0.28773  0.15402  1.0000
  H   H3965     1.0  0.52219  0.24618  0.32534  1.0000
  S   S681      1.0  0.73126  0.40591  0.28434  1.0000
  C   C2320     1.0  0.63334  0.26301  0.07209  1.0000
  H   H3966     1.0  0.57977  0.25346  0.26571  1.0000
  H   H3967     1.0  0.69342  0.44180  0.18286  1.0000
  H   H3968     1.0  0.71665  0.42643  0.31859  1.0000
  C   C2321     1.0  0.56897  0.25366  0.31065  1.0000
  C   C2322     1.0  0.73680  0.30712  0.46904  1.0000
  H   H3969     1.0  0.68447  0.46353  0.14319  1.0000
  H   H3970     1.0  0.73624  0.34359  0.19716  1.0000
  C   C2323     1.0  0.70701  0.47936  0.29395  1.0000
  C   C2324     1.0  0.73505  0.46515  0.33573  1.0000
  C   C2325     1.0  0.66926  0.45592  0.24544  1.0000
  C   C2326     1.0  0.65045  0.45755  0.27215  1.0000
  H   H3971     1.0  0.70387  0.42182  0.34910  1.0000
  H   H3972     1.0  0.63204  0.44209  0.28178  1.0000
  H   H3973     1.0  0.70355  0.26153  0.44653  1.0000
  C   C2327     1.0  0.69996  0.25397  0.42634  1.0000
  H   H3974     1.0  0.62554  0.46079  0.26745  1.0000
  H   H3975     1.0  0.55401  0.40239  0.17942  1.0000
  H   H3976     1.0  0.67658  0.44473  0.25248  1.0000
  H   H3977     1.0  0.70382  0.29912  0.43138  1.0000
  C   C2328     1.0  0.64715  0.48081  0.24744  1.0000
  H   H3978     1.0  0.65953  0.44680  0.27757  1.0000
  C   C2329     1.0  0.63630  0.27721  0.05678  1.0000
  C   C2330     1.0  0.60514  0.27695  0.08260  1.0000
  C   C2331     1.0  0.65329  0.34694  0.10145  1.0000
  H   H3979     1.0  0.70424  0.37232  0.18395  1.0000
  S   S682      1.0  0.63471  0.28672  0.10601  1.0000
  H   H3980     1.0  0.64990  0.27589  0.05164  1.0000
  H   H3981     1.0  0.65039  0.24410  0.43684  1.0000
  C   C2332     1.0  0.72620  0.34223  0.19203  1.0000
  H   H3982     1.0  0.56709  0.24103  0.20085  1.0000
  C   C2333     1.0  0.56413  0.26557  0.32261  1.0000
  C   C2334     1.0  0.72847  0.32343  0.19285  1.0000
  H   H3983     1.0  0.68701  0.45357  0.22222  1.0000
  H   H3984     1.0  0.73675  0.45733  0.30477  1.0000
  H   H3985     1.0  0.59297  0.32620  0.13927  1.0000
  C   C2335     1.0  0.67852  0.30864  0.41113  1.0000
  H   H3986     1.0  0.70869  0.23673  0.04330  1.0000
  C   C2336     1.0  0.57462  0.39635  0.23195  1.0000
  H   H3987     1.0  0.73352  0.31878  0.07247  1.0000
  H   H3988     1.0  0.62526  0.35795  0.11826  1.0000
  Fe  Fe338     1.0  0.69480  0.25679  0.09156  1.0000
  H   H3989     1.0  0.60819  0.24544  0.14907  1.0000
  C   C2337     1.0  0.67647  0.47838  0.16175  1.0000
  H   H3990     1.0  0.61017  0.31715  0.19078  1.0000
  H   H3991     1.0  0.66300  0.33394  0.13062  1.0000
  C   C2338     1.0  0.70953  0.46777  0.28415  1.0000
  C   C2339     1.0  0.72376  0.46590  0.27146  1.0000
  C   C2340     1.0  0.55906  0.42624  0.19374  1.0000
  N   N164      1.0  0.68756  0.28280  0.43393  1.0000
  H   H3992     1.0  0.67075  0.25854  0.36028  1.0000
  C   C2341     1.0  0.55503  0.44389  0.19693  1.0000
  S   S683      1.0  0.59960  0.44089  0.19721  1.0000
  H   H3993     1.0  0.61343  0.31504  0.13243  1.0000
  H   H3994     1.0  0.61665  0.26215  0.17777  1.0000
  Fe  Fe339     1.0  0.71753  0.42824  0.26884  1.0000
  H   H3995     1.0  0.65020  0.32447  0.09651  1.0000
  H   H3996     1.0  0.67556  0.31145  0.39872  1.0000
  C   C2342     1.0  0.65685  0.29112  0.44895  1.0000
  C   C2343     1.0  0.56281  0.39611  0.20266  1.0000
  H   H3997     1.0  0.57151  0.42452  0.18513  1.0000
  H   H3998     1.0  0.58899  0.24184  0.22589  1.0000
  C   C2344     1.0  0.57226  0.41121  0.21719  1.0000
  H   H3999     1.0  0.68944  0.24809  0.43385  1.0000
  S   S684      1.0  0.61772  0.25141  0.39490  1.0000
  H   H4000     1.0  0.54994  0.42658  0.18657  1.0000
  H   H4001     1.0  0.65926  0.30020  0.45454  1.0000
  H   H4002     1.0  0.73237  0.37809  0.31043  1.0000
  H   H4003     1.0  0.65177  0.29748  0.43777  1.0000
  H   H4004     1.0  0.66817  0.26886  0.44004  1.0000
  H   H4005     1.0  0.60056  0.26609  0.19539  1.0000
  H   H4006     1.0  0.59661  0.27485  0.17513  1.0000
  C   C2345     1.0  0.57584  0.24475  0.23133  1.0000
  C   C2346     1.0  0.72468  0.37797  0.18909  1.0000
  S   S685      1.0  0.64606  0.24337  0.35183  1.0000
  C   C2347     1.0  0.69927  0.43304  0.34009  1.0000
  C   C2348     1.0  0.73842  0.30135  0.44239  1.0000
  H   H4007     1.0  0.63331  0.29567  0.14172  1.0000
  N   N165      1.0  0.67613  0.44725  0.16673  1.0000
  H   H4008     1.0  0.62217  0.28285  0.18974  1.0000
  H   H4009     1.0  0.71358  0.45466  0.34715  1.0000
  C   C2349     1.0  0.68521  0.28973  0.41632  1.0000
  C   C2350     1.0  0.71610  0.34972  0.16549  1.0000
  H   H4010     1.0  0.70717  0.27968  0.45834  1.0000
  C   C2351     1.0  0.65752  0.45224  0.16873  1.0000
  H   H4011     1.0  0.63886  0.46640  0.15439  1.0000
  H   H4012     1.0  0.53799  0.39814  0.19801  1.0000
  H   H4013     1.0  0.66621  0.34490  0.09392  1.0000
  H   H4014     1.0  0.55706  0.45283  0.18481  1.0000
  H   H4015     1.0  0.69339  0.44368  0.34620  1.0000
  H   H4016     1.0  0.63169  0.28952  0.06021  1.0000
  C   C2352     1.0  0.65092  0.45729  0.15266  1.0000
  H   H4017     1.0  0.71441  0.34577  0.20107  1.0000
  N   N166      1.0  0.72788  0.44109  0.32793  1.0000
  C   C2353     1.0  0.63640  0.45070  0.27005  1.0000
  C   C2354     1.0  0.60902  0.25672  0.06567  1.0000
  C   C2355     1.0  0.58688  0.27690  0.09171  1.0000
  H   H4018     1.0  0.59638  0.29854  0.15664  1.0000
  C   C2356     1.0  0.56038  0.27379  0.28644  1.0000
  C   C2357     1.0  0.67094  0.37492  0.09427  1.0000
  C   C2358     1.0  0.63383  0.46921  0.20550  1.0000
  C   C2359     1.0  0.53770  0.42462  0.23291  1.0000
  H   H4019     1.0  0.57061  0.42260  0.22168  1.0000
  C   C2360     1.0  0.67610  0.42581  0.19473  1.0000
  H   H4020     1.0  0.67104  0.38826  0.08888  1.0000
  H   H4021     1.0  0.60161  0.29458  0.19047  1.0000
  H   H4022     1.0  0.56274  0.39458  0.24072  1.0000
  C   C2361     1.0  0.69248  0.29534  0.43999  1.0000
  H   H4023     1.0  0.52440  0.43112  0.23447  1.0000
  H   H4024     1.0  0.54493  0.43439  0.22957  1.0000
  H   H4025     1.0  0.53906  0.41683  0.24533  1.0000
  C   C2362     1.0  0.64525  0.27687  0.15933  1.0000
  C   C2363     1.0  0.62725  0.37041  0.13555  1.0000
  S   S686      1.0  0.67748  0.26025  0.11584  1.0000
  N   N167      1.0  0.55868  0.41205  0.20875  1.0000
  H   H4026     1.0  0.69731  0.28731  0.40731  1.0000
  C   C2364     1.0  0.61617  0.32292  0.17811  1.0000
  H   H4027     1.0  0.71270  0.34977  0.28568  1.0000
  N   N168      1.0  0.72585  0.35397  0.17537  1.0000
  H   H4028     1.0  0.67503  0.26976  0.45734  1.0000
  S   S687      1.0  0.62705  0.26258  0.46132  1.0000
  H   H4029     1.0  0.58109  0.38467  0.22762  1.0000
  C   C2365     1.0  0.68423  0.46153  0.15659  1.0000
  H   H4030     1.0  0.71367  0.46653  0.32665  1.0000
  C   C2366     1.0  0.62674  0.30990  0.16795  1.0000
  H   H4031     1.0  0.65749  0.35024  0.15004  1.0000
  C   C2367     1.0  0.54192  0.25247  0.24575  1.0000
  C   C2368     1.0  0.62124  0.24496  0.05467  1.0000
  C   C2369     1.0  0.60514  0.32051  0.14286  1.0000
  N   N169      1.0  0.65176  0.35605  0.11475  1.0000
  H   H4032     1.0  0.70726  0.44762  0.31580  1.0000
  C   C2370     1.0  0.61782  0.27972  0.12060  1.0000
  H   H4033     1.0  0.63270  0.31666  0.15567  1.0000
  H   H4034     1.0  0.69311  0.34266  0.16696  1.0000
  H   H4035     1.0  0.73973  0.28903  0.07090  1.0000
  C   C2371     1.0  0.71765  0.37136  0.17800  1.0000
  C   C2372     1.0  0.73560  0.42759  0.34077  1.0000
  H   H4036     1.0  0.64415  0.37992  0.09895  1.0000
  H   H4037     1.0  0.69869  0.25851  0.41327  1.0000
  H   H4038     1.0  0.63527  0.37084  0.14344  1.0000
  C   C2373     1.0  0.66500  0.34666  0.12440  1.0000
  S   S688      1.0  0.72649  0.31283  0.38835  1.0000
  H   H4039     1.0  0.71688  0.31912  0.19986  1.0000
  H   H4040     1.0  0.68278  0.46587  0.26260  1.0000
  H   H4041     1.0  0.62258  0.27949  0.15157  1.0000
  H   H4042     1.0  0.72726  0.35360  0.37051  1.0000
  H   H4043     1.0  0.64716  0.44496  0.21580  1.0000
  H   H4044     1.0  0.64050  0.44352  0.26020  1.0000
  H   H4045     1.0  0.64694  0.28546  0.45821  1.0000
  S   S689      1.0  0.73770  0.30488  0.14746  1.0000
  H   H4046     1.0  0.72325  0.24935  0.04160  1.0000
  H   H4047     1.0  0.63209  0.25552  0.12948  1.0000
  C   C2374     1.0  0.60238  0.30731  0.15911  1.0000
  C   C2375     1.0  0.62545  0.25850  0.44292  1.0000
  H   H4048     1.0  0.54899  0.26880  0.26828  1.0000
  Fe  Fe340     1.0  0.67425  0.23809  0.08348  1.0000
  N   N170      1.0  0.61763  0.29806  0.16592  1.0000
  H   H4049     1.0  0.60032  0.27287  0.44513  1.0000
  H   H4050     1.0  0.70864  0.43511  0.14687  1.0000
  H   H4051     1.0  0.73795  0.27078  0.29041  1.0000
  H   H4052     1.0  0.64532  0.35455  0.09257  1.0000
  H   H4053     1.0  0.70653  0.24718  0.05927  1.0000
  S   S690      1.0  0.49167  0.30672  0.17355  1.0000
  H   H4054     1.0  0.50290  0.28567  0.14911  1.0000
  H   H4055     1.0  0.73234  0.31967  0.18084  1.0000
  N   N171      1.0  0.65923  0.46776  0.25661  1.0000
  H   H4056     1.0  0.54179  0.44761  0.20303  1.0000
  H   H4057     1.0  0.53981  0.40106  0.22757  1.0000
  C   C2376     1.0  0.72162  0.45687  0.33451  1.0000
  H   H4058     1.0  0.58441  0.41062  0.20814  1.0000
  C   C2377     1.0  0.54015  0.25886  0.30653  1.0000
  H   H4059     1.0  0.71605  0.32837  0.29406  1.0000
  H   H4060     1.0  0.70038  0.46044  0.28629  1.0000
  H   H4061     1.0  0.66440  0.36778  0.13501  1.0000
  H   H4062     1.0  0.63411  0.34448  0.13493  1.0000
  C   C2378     1.0  0.73779  0.32256  0.32023  1.0000
  C   C2379     1.0  0.71581  0.24046  0.05018  1.0000
  H   H4063     1.0  0.65401  0.28457  0.15873  1.0000
  H   H4064     1.0  0.67293  0.28273  0.36940  1.0000
  H   H4065     1.0  0.53851  0.28733  0.27581  1.0000
  C   C2380     1.0  0.63664  0.45182  0.21032  1.0000
  C   C2381     1.0  0.61246  0.45187  0.20082  1.0000
  H   H4066     1.0  0.56328  0.44548  0.20402  1.0000
  C   C2382     1.0  0.55090  0.27925  0.27222  1.0000
  H   H4067     1.0  0.60150  0.24613  0.09960  1.0000
  H   H4068     1.0  0.53180  0.41832  0.21280  1.0000
  H   H4069     1.0  0.65713  0.32061  0.11516  1.0000
  H   H4070     1.0  0.68817  0.31561  0.40985  1.0000
  S   S691      1.0  0.73888  0.27191  0.39383  1.0000
  H   H4071     1.0  0.62426  0.33043  0.17946  1.0000
  H   H4072     1.0  0.63713  0.30298  0.17426  1.0000
  C   C2383     1.0  0.62616  0.44318  0.20776  1.0000
  C   C2384     1.0  0.66629  0.35412  0.13828  1.0000
  C   C2385     1.0  0.63660  0.24691  0.41818  1.0000
  N   N172      1.0  0.70562  0.33015  0.32748  1.0000
  C   C2386     1.0  0.70551  0.33683  0.34205  1.0000
  C   C2387     1.0  0.73311  0.26932  0.11649  1.0000
  C   C2388     1.0  0.69030  0.32294  0.33172  1.0000
  C   C2389     1.0  0.70528  0.34444  0.31259  1.0000
  C   C2390     1.0  0.68974  0.34964  0.34774  1.0000
  H   H4073     1.0  0.60980  0.33078  0.14426  1.0000
  C   C2391     1.0  0.69100  0.30918  0.32299  1.0000
  C   C2392     1.0  0.70725  0.34019  0.29575  1.0000
  H   H4074     1.0  0.70729  0.32649  0.35303  1.0000
  H   H4075     1.0  0.71603  0.34306  0.33928  1.0000
  H   H4076     1.0  0.53524  0.27008  0.31199  1.0000
  H   H4077     1.0  0.65168  0.26856  0.15050  1.0000
  H   H4078     1.0  0.68720  0.31727  0.34522  1.0000
  H   H4079     1.0  0.67922  0.33292  0.32930  1.0000
  H   H4080     1.0  0.69327  0.35365  0.31435  1.0000
  H   H4081     1.0  0.71460  0.35190  0.31120  1.0000
  H   H4082     1.0  0.68840  0.36145  0.33830  1.0000
  H   H4083     1.0  0.67826  0.34474  0.35121  1.0000
  H   H4084     1.0  0.69090  0.35280  0.35901  1.0000
  H   H4085     1.0  0.61435  0.23675  0.05253  1.0000
  H   H4086     1.0  0.73854  0.24628  0.15222  1.0000
  H   H4087     1.0  0.58218  0.25369  0.30429  1.0000
  H   H4088     1.0  0.69483  0.31278  0.30936  1.0000
  H   H4089     1.0  0.67840  0.30647  0.32594  1.0000
  H   H4090     1.0  0.69931  0.29737  0.32777  1.0000
  H   H4091     1.0  0.69501  0.34010  0.29375  1.0000
  S   S692      1.0  0.73807  0.28677  0.43160  1.0000
  H   H4092     1.0  0.56245  0.38513  0.21323  1.0000
  C   C2393     1.0  0.68262  0.43292  0.15805  1.0000
  C   C2394     1.0  0.70157  0.42591  0.15550  1.0000
  H   H4093     1.0  0.67616  0.42251  0.16467  1.0000
  C   C2395     1.0  0.61046  0.26550  0.43776  1.0000
  H   H4094     1.0  0.55419  0.24338  0.28261  1.0000
  H   H4095     1.0  0.68429  0.41491  0.18992  1.0000
  C   C2396     1.0  0.70173  0.26772  0.43381  1.0000
  C   C2397     1.0  0.69589  0.28974  0.45762  1.0000
  H   H4096     1.0  0.72809  0.27528  0.14122  1.0000
  H   H4097     1.0  0.65919  0.46356  0.14187  1.0000
  H   H4098     1.0  0.59862  0.47612  0.19121  1.0000
  N   N173      1.0  0.55828  0.25745  0.29820  1.0000
  H   H4099     1.0  0.52877  0.25540  0.25128  1.0000
  H   H4100     1.0  0.71831  0.38046  0.16588  1.0000
  C   C2398     1.0  0.54165  0.41359  0.22015  1.0000
  H   H4101     1.0  0.63055  0.27699  0.04680  1.0000
  H   H4102     1.0  0.60466  0.28702  0.07123  1.0000
  H   H4103     1.0  0.69675  0.34091  0.18692  1.0000
  C   C2399     1.0  0.68006  0.44246  0.18371  1.0000
  H   H4104     1.0  0.64898  0.44625  0.14961  1.0000
  H   H4105     1.0  0.69273  0.46448  0.23398  1.0000
  H   H4106     1.0  0.59268  0.31361  0.16837  1.0000
  H   H4107     1.0  0.65228  0.38126  0.11507  1.0000
  C   C2400     1.0  0.60634  0.25793  0.14164  1.0000
  H   H4108     1.0  0.64052  0.47503  0.24180  1.0000
  Fe  Fe341     1.0  0.65724  0.26602  0.10200  1.0000
  H   H4109     1.0  0.64469  0.46459  0.28208  1.0000
  H   H4110     1.0  0.64683  0.24017  0.41035  1.0000
  H   H4111     1.0  0.67580  0.47745  0.17502  1.0000
  N   N174      1.0  0.61565  0.26072  0.07834  1.0000
  H   H4112     1.0  0.63771  0.26556  0.08201  1.0000
  C   C2401     1.0  0.62002  0.47801  0.19874  1.0000
  H   H4113     1.0  0.56542  0.27839  0.31604  1.0000
  Fe  Fe342     1.0  0.73685  0.32688  0.12617  1.0000
  C   C2402     1.0  0.63862  0.24918  0.43313  1.0000
  H   H4114     1.0  0.71126  0.47565  0.20415  1.0000
  H   H4115     1.0  0.57996  0.28994  0.09172  1.0000
  C   C2403     1.0  0.73130  0.37307  0.32353  1.0000
  H   H4116     1.0  0.72728  0.25851  0.11947  1.0000
  H   H4117     1.0  0.69596  0.48081  0.30371  1.0000
  H   H4118     1.0  0.55143  0.26568  0.33041  1.0000
  H   H4119     1.0  0.71690  0.39039  0.19066  1.0000
  H   H4120     1.0  0.59495  0.23786  0.17941  1.0000
  H   H4121     1.0  0.67639  0.47452  0.22262  1.0000
  H   H4122     1.0  0.73872  0.33227  0.30863  1.0000
  C   C2404     1.0  0.67130  0.47543  0.26046  1.0000
  H   H4123     1.0  0.72989  0.27666  0.10461  1.0000
  H   H4124     1.0  0.58597  0.27044  0.10494  1.0000
  H   H4125     1.0  0.57278  0.26113  0.33123  1.0000
  H   H4126     1.0  0.72408  0.36998  0.20172  1.0000
  C   C2405     1.0  0.55132  0.23642  0.25021  1.0000
  H   H4127     1.0  0.72877  0.47615  0.34131  1.0000
  C   C2406     1.0  0.53581  0.24371  0.32016  1.0000
  H   H4128     1.0  0.58053  0.27137  0.08564  1.0000
  H   H4129     1.0  0.73327  0.43537  0.29415  1.0000
  H   H4130     1.0  0.72733  0.42712  0.35334  1.0000
  H   H4131     1.0  0.73959  0.23729  0.13520  1.0000
  H   H4132     1.0  0.56918  0.24088  0.31841  1.0000
  Fe  Fe343     1.0  0.63579  0.23444  0.37904  1.0000
  H   H4133     1.0  0.73331  0.40687  0.33093  1.0000
  S   S693      1.0  0.73694  0.36336  0.08729  1.0000
  H   H4134     1.0  0.73754  0.37976  0.18353  1.0000
  C   C2407     1.0  0.56833  0.23264  0.24331  1.0000
  H   H4135     1.0  0.73816  0.31623  0.19996  1.0000
  H   H4136     1.0  0.73972  0.40066  0.34976  1.0000
  H   H4137     1.0  0.73988  0.32702  0.33026  1.0000
  S   S694      1.0  0.53156  0.28345  0.63612  1.0000
  H   H4138     1.0  0.62120  0.25377  0.62894  1.0000
  C   C2408     1.0  0.64717  0.24707  0.86098  1.0000
  C   C2409     1.0  0.65578  0.47080  0.73046  1.0000
  S   S695      1.0  0.65274  0.25863  0.49227  1.0000
  H   H4139     1.0  0.72482  0.47444  0.67933  1.0000
  H   H4140     1.0  0.61412  0.35407  0.76822  1.0000
  H   H4141     1.0  0.70164  0.42184  0.74682  1.0000
  C   C2410     1.0  0.59721  0.33683  0.78155  1.0000
  H   H4142     1.0  0.67535  0.23776  0.83820  1.0000
  Fe  Fe344     1.0  0.69596  0.23341  0.78945  1.0000
  S   S696      1.0  0.71271  0.40326  0.62587  1.0000
  H   H4143     1.0  0.72987  0.28090  0.76583  1.0000
  Fe  Fe345     1.0  0.57722  0.29855  0.69483  1.0000
  S   S697      1.0  0.55882  0.29380  0.71880  1.0000
  S   S698      1.0  0.58278  0.28014  0.67852  1.0000
  Fe  Fe346     1.0  0.58631  0.32677  0.70400  1.0000
  S   S699      1.0  0.56802  0.32429  0.72847  1.0000
  S   S700      1.0  0.60668  0.34145  0.69729  1.0000
  Fe  Fe347     1.0  0.57765  0.29691  0.73059  1.0000
  S   S701      1.0  0.58277  0.27943  0.75432  1.0000
  S   S702      1.0  0.59695  0.29927  0.70707  1.0000
  S   S703      1.0  0.56812  0.32636  0.68935  1.0000
  Fe  Fe348     1.0  0.66967  0.39873  0.71796  1.0000
  S   S704      1.0  0.64852  0.41808  0.70904  1.0000
  S   S705      1.0  0.69165  0.38315  0.70385  1.0000
  Fe  Fe349     1.0  0.65519  0.40022  0.75381  1.0000
  S   S706      1.0  0.63267  0.41968  0.74815  1.0000
  S   S707      1.0  0.65817  0.38859  0.78000  1.0000
  Fe  Fe350     1.0  0.63223  0.40436  0.73079  1.0000
  S   S708      1.0  0.60784  0.39902  0.73012  1.0000
  Fe  Fe351     1.0  0.65078  0.43182  0.72709  1.0000
  S   S709      1.0  0.65325  0.38401  0.73830  1.0000
  S   S710      1.0  0.67337  0.41343  0.73411  1.0000
  H   H4144     1.0  0.64340  0.23804  0.72151  1.0000
  C   C2411     1.0  0.73754  0.28396  0.77254  1.0000
  H   H4145     1.0  0.69294  0.46431  0.78028  1.0000
  Fe  Fe352     1.0  0.71874  0.30507  0.82856  1.0000
  S   S711      1.0  0.71850  0.32889  0.83472  1.0000
  S   S712      1.0  0.69640  0.29486  0.83196  1.0000
  C   C2412     1.0  0.70010  0.47621  0.70330  1.0000
  S   S713      1.0  0.73157  0.35694  0.78971  1.0000
  H   H4146     1.0  0.58405  0.25290  0.73252  1.0000
  Fe  Fe353     1.0  0.67674  0.24012  0.48804  1.0000
  H   H4147     1.0  0.70164  0.43922  0.55170  1.0000
  Fe  Fe354     1.0  0.64448  0.23892  0.51390  1.0000
  H   H4148     1.0  0.73133  0.24372  0.87975  1.0000
  C   C2413     1.0  0.52224  0.27633  0.69272  1.0000
  S   S714      1.0  0.65015  0.27875  0.77126  1.0000
  C   C2414     1.0  0.67654  0.23545  0.85124  1.0000
  S   S715      1.0  0.52287  0.33100  0.72131  1.0000
  H   H4149     1.0  0.72976  0.25877  0.48137  1.0000
  C   C2415     1.0  0.70337  0.27914  0.82080  1.0000
  C   C2416     1.0  0.69397  0.27810  0.81034  1.0000
  C   C2417     1.0  0.69947  0.26548  0.80144  1.0000
  C   C2418     1.0  0.71390  0.25340  0.80363  1.0000
  C   C2419     1.0  0.72365  0.25476  0.81362  1.0000
  C   C2420     1.0  0.71846  0.26778  0.82207  1.0000
  H   H4150     1.0  0.68251  0.28711  0.80901  1.0000
  H   H4151     1.0  0.69252  0.26509  0.79287  1.0000
  H   H4152     1.0  0.62720  0.24083  0.66341  1.0000
  H   H4153     1.0  0.72584  0.26866  0.83002  1.0000
  C   C2421     1.0  0.49544  0.32150  0.71925  1.0000
  H   H4154     1.0  0.60842  0.35197  0.79011  1.0000
  H   H4155     1.0  0.52348  0.25777  0.67248  1.0000
  H   H4156     1.0  0.63771  0.25540  0.86858  1.0000
  H   H4157     1.0  0.60643  0.29709  0.51346  1.0000
  S   S716      1.0  0.68865  0.24415  0.76506  1.0000
  C   C2422     1.0  0.49100  0.31778  0.69392  1.0000
  S   S717      1.0  0.64952  0.45979  0.71940  1.0000
  C   C2423     1.0  0.51101  0.32521  0.71086  1.0000
  H   H4158     1.0  0.70049  0.39648  0.59967  1.0000
  C   C2424     1.0  0.66116  0.46299  0.74520  1.0000
  H   H4159     1.0  0.56777  0.35243  0.74459  1.0000
  H   H4160     1.0  0.66126  0.44992  0.75024  1.0000
  H   H4161     1.0  0.67897  0.48027  0.69148  1.0000
  C   C2425     1.0  0.67853  0.37889  0.78229  1.0000
  C   C2426     1.0  0.68127  0.36967  0.79788  1.0000
  C   C2427     1.0  0.69753  0.36240  0.80013  1.0000
  C   C2428     1.0  0.71111  0.36449  0.78685  1.0000
  C   C2429     1.0  0.70835  0.37347  0.77121  1.0000
  C   C2430     1.0  0.69209  0.38050  0.76889  1.0000
  H   H4162     1.0  0.67082  0.36833  0.80828  1.0000
  H   H4163     1.0  0.69957  0.35559  0.81226  1.0000
  H   H4164     1.0  0.71882  0.37502  0.76088  1.0000
  H   H4165     1.0  0.69011  0.38732  0.75678  1.0000
  C   C2431     1.0  0.60163  0.27924  0.75872  1.0000
  C   C2432     1.0  0.61226  0.28934  0.74798  1.0000
  C   C2433     1.0  0.62725  0.28905  0.75183  1.0000
  C   C2434     1.0  0.63161  0.27869  0.76638  1.0000
  C   C2435     1.0  0.62106  0.26848  0.77703  1.0000
  C   C2436     1.0  0.60604  0.26882  0.77323  1.0000
  H   H4166     1.0  0.60893  0.29743  0.73676  1.0000
  H   H4167     1.0  0.63559  0.29667  0.74342  1.0000
  H   H4168     1.0  0.62440  0.26044  0.78828  1.0000
  H   H4169     1.0  0.59785  0.26098  0.78155  1.0000
  C   C2437     1.0  0.60632  0.35651  0.70798  1.0000
  C   C2438     1.0  0.62132  0.35777  0.71072  1.0000
  C   C2439     1.0  0.62183  0.37053  0.71785  1.0000
  C   C2440     1.0  0.60740  0.38235  0.72199  1.0000
  C   C2441     1.0  0.59229  0.38082  0.71974  1.0000
  C   C2442     1.0  0.59172  0.36790  0.71282  1.0000
  H   H4170     1.0  0.63257  0.34877  0.70735  1.0000
  H   H4171     1.0  0.63337  0.37130  0.72010  1.0000
  H   H4172     1.0  0.58103  0.38986  0.72305  1.0000
  H   H4173     1.0  0.58010  0.36711  0.71069  1.0000
  C   C2443     1.0  0.70731  0.39876  0.64760  1.0000
  C   C2444     1.0  0.71730  0.38561  0.65656  1.0000
  C   C2445     1.0  0.71249  0.38117  0.67385  1.0000
  C   C2446     1.0  0.69789  0.39009  0.68233  1.0000
  C   C2447     1.0  0.68814  0.40363  0.67345  1.0000
  C   C2448     1.0  0.69276  0.40784  0.65605  1.0000
  H   H4174     1.0  0.64535  0.23441  0.86787  1.0000
  H   H4175     1.0  0.72011  0.37074  0.68067  1.0000
  H   H4176     1.0  0.67692  0.41063  0.67995  1.0000
  H   H4177     1.0  0.68509  0.41813  0.64915  1.0000
  H   H4178     1.0  0.57947  0.24830  0.49171  1.0000
  H   H4179     1.0  0.50515  0.28657  0.66676  1.0000
  H   H4180     1.0  0.70516  0.45212  0.76565  1.0000
  H   H4181     1.0  0.59326  0.24483  0.71371  1.0000
  C   C2449     1.0  0.70586  0.25464  0.49603  1.0000
  C   C2450     1.0  0.69462  0.25531  0.51123  1.0000
  C   C2451     1.0  0.69838  0.26107  0.52328  1.0000
  C   C2452     1.0  0.71317  0.26659  0.52004  1.0000
  C   C2453     1.0  0.72444  0.26585  0.50484  1.0000
  C   C2454     1.0  0.72089  0.25964  0.49298  1.0000
  H   H4182     1.0  0.73686  0.39832  0.53464  1.0000
  H   H4183     1.0  0.68966  0.26150  0.53505  1.0000
  C   C2455     1.0  0.69509  0.23364  0.85062  1.0000
  C   C2456     1.0  0.51095  0.26047  0.68075  1.0000
  C   C2457     1.0  0.54534  0.28271  0.64830  1.0000
  C   C2458     1.0  0.54453  0.29658  0.65443  1.0000
  C   C2459     1.0  0.55569  0.29591  0.66409  1.0000
  C   C2460     1.0  0.56774  0.28138  0.66750  1.0000
  C   C2461     1.0  0.56817  0.26747  0.66171  1.0000
  C   C2462     1.0  0.55705  0.26811  0.65217  1.0000
  H   H4184     1.0  0.53537  0.30788  0.65160  1.0000
  H   H4185     1.0  0.55516  0.30669  0.66861  1.0000
  H   H4186     1.0  0.57710  0.25614  0.66467  1.0000
  H   H4187     1.0  0.55755  0.25728  0.64776  1.0000
  H   H4188     1.0  0.60776  0.32601  0.78333  1.0000
  H   H4189     1.0  0.51005  0.30215  0.61297  1.0000
  C   C2463     1.0  0.50654  0.32150  0.68556  1.0000
  H   H4190     1.0  0.67350  0.39915  0.82004  1.0000
  H   H4191     1.0  0.59921  0.30989  0.77055  1.0000
  H   H4192     1.0  0.57474  0.29944  0.78642  1.0000
  H   H4193     1.0  0.71657  0.38947  0.80776  1.0000
  Fe  Fe355     1.0  0.66337  0.25253  0.78030  1.0000
  C   C2464     1.0  0.66712  0.24646  0.87696  1.0000
  H   H4194     1.0  0.59412  0.26186  0.62242  1.0000
  C   C2465     1.0  0.60387  0.25007  0.56199  1.0000
  N   N175      1.0  0.58923  0.33634  0.76813  1.0000
  H   H4195     1.0  0.64544  0.23754  0.84037  1.0000
  C   C2466     1.0  0.58703  0.25011  0.56900  1.0000
  H   H4196     1.0  0.59021  0.26622  0.71320  1.0000
  H   H4197     1.0  0.65631  0.23765  0.65030  1.0000
  N   N176      1.0  0.58689  0.28203  0.50162  1.0000
  C   C2467     1.0  0.57594  0.29293  0.51331  1.0000
  H   H4198     1.0  0.58309  0.31752  0.75961  1.0000
  C   C2468     1.0  0.60420  0.27583  0.50482  1.0000
  C   C2469     1.0  0.63729  0.24618  0.74410  1.0000
  C   C2470     1.0  0.57492  0.28534  0.53199  1.0000
  H   H4199     1.0  0.56599  0.27100  0.50381  1.0000
  H   H4200     1.0  0.56292  0.29641  0.51162  1.0000
  H   H4201     1.0  0.72439  0.42394  0.78974  1.0000
  H   H4202     1.0  0.62547  0.28325  0.50748  1.0000
  H   H4203     1.0  0.64385  0.34315  0.78608  1.0000
  N   N177      1.0  0.70067  0.42065  0.78826  1.0000
  H   H4204     1.0  0.54998  0.35797  0.76013  1.0000
  H   H4205     1.0  0.60421  0.26704  0.51698  1.0000
  H   H4206     1.0  0.61234  0.26842  0.49565  1.0000
  H   H4207     1.0  0.56710  0.29480  0.53915  1.0000
  C   C2471     1.0  0.69141  0.43827  0.78885  1.0000
  H   H4208     1.0  0.50257  0.29400  0.60019  1.0000
  H   H4209     1.0  0.56879  0.27459  0.53631  1.0000
  H   H4210     1.0  0.58721  0.28169  0.53538  1.0000
  H   H4211     1.0  0.65761  0.25566  0.88347  1.0000
  H   H4212     1.0  0.69129  0.47829  0.71510  1.0000
  H   H4213     1.0  0.71062  0.41981  0.80920  1.0000
  H   H4214     1.0  0.69276  0.38793  0.58742  1.0000
  H   H4215     1.0  0.69474  0.39641  0.79506  1.0000
  C   C2472     1.0  0.73598  0.39363  0.54822  1.0000
  H   H4216     1.0  0.52860  0.32780  0.68746  1.0000
  H   H4217     1.0  0.63332  0.25941  0.73818  1.0000
  H   H4218     1.0  0.61088  0.25467  0.56783  1.0000
  C   C2473     1.0  0.52638  0.28027  0.70740  1.0000
  H   H4219     1.0  0.66974  0.26626  0.83631  1.0000
  H   H4220     1.0  0.64236  0.28098  0.85070  1.0000
  H   H4221     1.0  0.53383  0.26934  0.71448  1.0000
  C   C2474     1.0  0.70762  0.41854  0.77065  1.0000
  H   H4222     1.0  0.68609  0.45937  0.70142  1.0000
  S   S718      1.0  0.71912  0.23614  0.79470  1.0000
  N   N178      1.0  0.68519  0.32863  0.76643  1.0000
  C   C2475     1.0  0.68582  0.34106  0.75009  1.0000
  C   C2476     1.0  0.66721  0.32856  0.77476  1.0000
  C   C2477     1.0  0.69393  0.31131  0.76407  1.0000
  C   C2478     1.0  0.69376  0.33364  0.77682  1.0000
  C   C2479     1.0  0.70329  0.34143  0.73885  1.0000
  C   C2480     1.0  0.65680  0.34469  0.78036  1.0000
  C   C2481     1.0  0.68801  0.30477  0.75215  1.0000
  C   C2482     1.0  0.69276  0.32345  0.79474  1.0000
  H   H4223     1.0  0.67786  0.33918  0.74277  1.0000
  H   H4224     1.0  0.68057  0.35394  0.75212  1.0000
  H   H4225     1.0  0.66615  0.31805  0.78575  1.0000
  H   H4226     1.0  0.66063  0.32636  0.76633  1.0000
  H   H4227     1.0  0.70761  0.31029  0.75980  1.0000
  H   H4228     1.0  0.69231  0.30212  0.77609  1.0000
  H   H4229     1.0  0.70725  0.33272  0.77114  1.0000
  H   H4230     1.0  0.68871  0.34688  0.77739  1.0000
  H   H4231     1.0  0.70968  0.32939  0.73533  1.0000
  H   H4232     1.0  0.70198  0.35078  0.72715  1.0000
  H   H4233     1.0  0.71126  0.34546  0.74453  1.0000
  C   C2483     1.0  0.68164  0.40833  0.81540  1.0000
  H   H4234     1.0  0.71210  0.45095  0.78412  1.0000
  H   H4235     1.0  0.66145  0.34751  0.78989  1.0000
  H   H4236     1.0  0.69548  0.29205  0.75136  1.0000
  H   H4237     1.0  0.68974  0.31251  0.73940  1.0000
  H   H4238     1.0  0.67485  0.30358  0.75676  1.0000
  H   H4239     1.0  0.67983  0.32400  0.80204  1.0000
  H   H4240     1.0  0.69906  0.32861  0.80124  1.0000
  H   H4241     1.0  0.69929  0.31034  0.79506  1.0000
  H   H4242     1.0  0.72594  0.37596  0.53299  1.0000
  C   C2484     1.0  0.58550  0.23872  0.54682  1.0000
  H   H4243     1.0  0.58827  0.33559  0.79376  1.0000
  H   H4244     1.0  0.62086  0.32577  0.73737  1.0000
  H   H4245     1.0  0.61946  0.25483  0.71194  1.0000
  H   H4246     1.0  0.49979  0.27172  0.65947  1.0000
  C   C2485     1.0  0.59366  0.25362  0.72086  1.0000
  H   H4247     1.0  0.59984  0.35467  0.74815  1.0000
  C   C2486     1.0  0.61814  0.33146  0.74825  1.0000
  C   C2487     1.0  0.66770  0.26542  0.84983  1.0000
  H   H4248     1.0  0.59876  0.24571  0.49786  1.0000
  H   H4249     1.0  0.62144  0.32139  0.75877  1.0000
  H   H4250     1.0  0.62667  0.34011  0.74512  1.0000
  H   H4251     1.0  0.67780  0.41287  0.79091  1.0000
  C   C2488     1.0  0.57499  0.31240  0.78627  1.0000
  H   H4252     1.0  0.53406  0.28985  0.70236  1.0000
  H   H4253     1.0  0.73380  0.25901  0.86105  1.0000
  H   H4254     1.0  0.71816  0.42492  0.76460  1.0000
  H   H4255     1.0  0.53613  0.24639  0.70082  1.0000
  C   C2489     1.0  0.52251  0.24720  0.70594  1.0000
  H   H4256     1.0  0.59347  0.26109  0.48002  1.0000
  H   H4257     1.0  0.65059  0.24421  0.74443  1.0000
  H   H4258     1.0  0.69204  0.41016  0.58284  1.0000
  H   H4259     1.0  0.60982  0.26114  0.73089  1.0000
  H   H4260     1.0  0.73046  0.28317  0.78557  1.0000
  H   H4261     1.0  0.57453  0.36153  0.76658  1.0000
  H   H4262     1.0  0.73086  0.34771  0.58396  1.0000
  C   C2490     1.0  0.50007  0.27515  0.67088  1.0000
  H   H4263     1.0  0.65611  0.35558  0.76984  1.0000
  H   H4264     1.0  0.67930  0.24911  0.87647  1.0000
  H   H4265     1.0  0.68478  0.41779  0.76378  1.0000
  H   H4266     1.0  0.69475  0.41431  0.55473  1.0000
  H   H4267     1.0  0.49753  0.26914  0.72004  1.0000
  C   C2491     1.0  0.58797  0.29219  0.48412  1.0000
  C   C2492     1.0  0.61321  0.28937  0.50424  1.0000
  Fe  Fe356     1.0  0.73507  0.33341  0.80932  1.0000
  C   C2493     1.0  0.66627  0.47217  0.75349  1.0000
  C   C2494     1.0  0.68876  0.40924  0.79670  1.0000
  H   H4268     1.0  0.67966  0.44115  0.78445  1.0000
  H   H4269     1.0  0.64806  0.25866  0.83421  1.0000
  H   H4270     1.0  0.56513  0.34660  0.78232  1.0000
  C   C2495     1.0  0.71032  0.38327  0.55619  1.0000
  C   C2496     1.0  0.59982  0.34118  0.75116  1.0000
  C   C2497     1.0  0.60238  0.23874  0.53974  1.0000
  H   H4271     1.0  0.68304  0.25135  0.51376  1.0000
  H   H4272     1.0  0.59439  0.33952  0.74151  1.0000
  H   H4273     1.0  0.57909  0.31196  0.79756  1.0000
  H   H4274     1.0  0.51082  0.32173  0.67244  1.0000
  C   C2498     1.0  0.49592  0.26841  0.70788  1.0000
  H   H4275     1.0  0.61564  0.29736  0.49165  1.0000
  H   H4276     1.0  0.67944  0.26741  0.85138  1.0000
  C   C2499     1.0  0.60364  0.35272  0.77911  1.0000
  H   H4277     1.0  0.71302  0.40522  0.77035  1.0000
  H   H4278     1.0  0.49742  0.23671  0.60571  1.0000
  H   H4279     1.0  0.71007  0.41440  0.53650  1.0000
  S   S719      1.0  0.73381  0.31031  0.80270  1.0000
  H   H4280     1.0  0.63805  0.23525  0.61618  1.0000
  H   H4281     1.0  0.56207  0.31972  0.78679  1.0000
  N   N179      1.0  0.71805  0.39660  0.55759  1.0000
  C   C2500     1.0  0.71712  0.39479  0.57578  1.0000
  H   H4282     1.0  0.72999  0.39397  0.78756  1.0000
  H   H4283     1.0  0.70607  0.37088  0.53928  1.0000
  H   H4284     1.0  0.60602  0.25671  0.64684  1.0000
  N   N180      1.0  0.51255  0.26285  0.69695  1.0000
  Fe  Fe357     1.0  0.53731  0.25998  0.62672  1.0000
  H   H4285     1.0  0.70741  0.39200  0.53012  1.0000
  H   H4286     1.0  0.59368  0.36413  0.77796  1.0000
  H   H4287     1.0  0.52050  0.24745  0.71924  1.0000
  H   H4288     1.0  0.69921  0.24550  0.84494  1.0000
  H   H4289     1.0  0.70996  0.46519  0.70686  1.0000
  H   H4290     1.0  0.62662  0.23395  0.69863  1.0000
  C   C2501     1.0  0.57940  0.26725  0.50429  1.0000
  C   C2502     1.0  0.70118  0.45197  0.77908  1.0000
  H   H4291     1.0  0.62858  0.25450  0.84584  1.0000
  H   H4292     1.0  0.59097  0.30435  0.48307  1.0000
  C   C2503     1.0  0.51664  0.32492  0.69404  1.0000
  H   H4293     1.0  0.73490  0.39668  0.80535  1.0000
  H   H4294     1.0  0.72859  0.37859  0.65015  1.0000
  H   H4295     1.0  0.71643  0.42761  0.56342  1.0000
  C   C2504     1.0  0.71492  0.41645  0.79685  1.0000
  C   C2505     1.0  0.61100  0.25138  0.72412  1.0000
  H   H4296     1.0  0.73596  0.26986  0.50231  1.0000
  H   H4297     1.0  0.53428  0.27306  0.68398  1.0000
  S   S720      1.0  0.53546  0.23590  0.64498  1.0000
  H   H4298     1.0  0.73856  0.29716  0.76770  1.0000
  C   C2506     1.0  0.71270  0.38065  0.53853  1.0000
  C   C2507     1.0  0.61153  0.24456  0.54728  1.0000
  H   H4299     1.0  0.68742  0.43997  0.80184  1.0000
  H   H4300     1.0  0.69808  0.46766  0.68189  1.0000
  H   H4301     1.0  0.72349  0.40337  0.57799  1.0000
  H   H4302     1.0  0.67376  0.42037  0.81793  1.0000
  Fe  Fe358     1.0  0.73394  0.29223  0.52692  1.0000
  C   C2508     1.0  0.49856  0.30037  0.61070  1.0000
  C   C2509     1.0  0.71283  0.42891  0.55167  1.0000
  S   S721      1.0  0.70175  0.24677  0.48107  1.0000
  C   C2510     1.0  0.57217  0.29614  0.47722  1.0000
  H   H4303     1.0  0.57925  0.25967  0.51706  1.0000
  H   H4304     1.0  0.58111  0.25506  0.57993  1.0000
  H   H4305     1.0  0.56115  0.30270  0.48506  1.0000
  C   C2511     1.0  0.57777  0.24451  0.56141  1.0000
  S   S722      1.0  0.71766  0.27338  0.53554  1.0000
  Fe  Fe359     1.0  0.55068  0.32149  0.71434  1.0000
  S   S723      1.0  0.72490  0.31987  0.51934  1.0000
  H   H4306     1.0  0.55834  0.33651  0.76015  1.0000
  H   H4307     1.0  0.57838  0.23431  0.54095  1.0000
  C   C2512     1.0  0.72445  0.39810  0.79941  1.0000
  H   H4308     1.0  0.67027  0.46611  0.76494  1.0000
  H   H4309     1.0  0.51508  0.28571  0.71580  1.0000
  Fe  Fe360     1.0  0.54829  0.24380  0.59700  1.0000
  C   C2513     1.0  0.58845  0.25494  0.49284  1.0000
  H   H4310     1.0  0.71530  0.37098  0.56370  1.0000
  C   C2514     1.0  0.63572  0.23444  0.73412  1.0000
  C   C2515     1.0  0.70842  0.41322  0.55003  1.0000
  H   H4311     1.0  0.72837  0.26984  0.88630  1.0000
  H   H4312     1.0  0.57982  0.30497  0.51051  1.0000
  H   H4313     1.0  0.64548  0.24883  0.63435  1.0000
  H   H4314     1.0  0.49092  0.31293  0.60710  1.0000
  S   S724      1.0  0.52317  0.25601  0.61011  1.0000
  H   H4315     1.0  0.49845  0.27755  0.62873  1.0000
  C   C2516     1.0  0.64220  0.24954  0.84437  1.0000
  H   H4316     1.0  0.68999  0.43806  0.75730  1.0000
  N   N181      1.0  0.65806  0.37558  0.66733  1.0000
  C   C2517     1.0  0.64994  0.39384  0.66579  1.0000
  C   C2518     1.0  0.67401  0.37407  0.65430  1.0000
  C   C2519     1.0  0.66227  0.36934  0.68419  1.0000
  C   C2520     1.0  0.64590  0.36660  0.66554  1.0000
  C   C2521     1.0  0.63431  0.39816  0.67933  1.0000
  C   C2522     1.0  0.67245  0.38321  0.63647  1.0000
  C   C2523     1.0  0.67183  0.35122  0.68834  1.0000
  C   C2524     1.0  0.65322  0.35055  0.65881  1.0000
  H   H4317     1.0  0.65896  0.40109  0.66573  1.0000
  H   H4318     1.0  0.64594  0.39913  0.65380  1.0000
  H   H4319     1.0  0.68004  0.36091  0.65394  1.0000
  H   H4320     1.0  0.68335  0.37886  0.65739  1.0000
  H   H4321     1.0  0.66966  0.37732  0.68597  1.0000
  H   H4322     1.0  0.65090  0.37029  0.69412  1.0000
  H   H4323     1.0  0.63719  0.36334  0.67759  1.0000
  H   H4324     1.0  0.63770  0.37483  0.65714  1.0000
  H   H4325     1.0  0.63757  0.39692  0.69130  1.0000
  H   H4326     1.0  0.62811  0.41140  0.67560  1.0000
  H   H4327     1.0  0.62507  0.39055  0.68121  1.0000
  H   H4328     1.0  0.66165  0.38114  0.63317  1.0000
  H   H4329     1.0  0.67146  0.39676  0.63475  1.0000
  H   H4330     1.0  0.68393  0.37865  0.62765  1.0000
  H   H4331     1.0  0.66375  0.34240  0.69035  1.0000
  H   H4332     1.0  0.67554  0.34916  0.70028  1.0000
  H   H4333     1.0  0.68348  0.34834  0.67909  1.0000
  H   H4334     1.0  0.65914  0.35329  0.64544  1.0000
  H   H4335     1.0  0.64290  0.34441  0.66008  1.0000
  H   H4336     1.0  0.66224  0.34141  0.66562  1.0000
  C   C2525     1.0  0.57271  0.34858  0.76942  1.0000
  C   C2526     1.0  0.58711  0.31890  0.77034  1.0000
  C   C2527     1.0  0.56179  0.34864  0.75783  1.0000
  H   H4337     1.0  0.73390  0.30359  0.48241  1.0000
  C   C2528     1.0  0.69036  0.47081  0.69373  1.0000
  S   S725      1.0  0.56236  0.25014  0.61204  1.0000
  C   C2529     1.0  0.64793  0.23663  0.64296  1.0000
  C   C2530     1.0  0.69510  0.42449  0.75921  1.0000
  H   H4338     1.0  0.65158  0.28091  0.86738  1.0000
  H   H4339     1.0  0.60821  0.23440  0.52843  1.0000
  H   H4340     1.0  0.58668  0.24521  0.63755  1.0000
  H   H4341     1.0  0.49107  0.32164  0.73229  1.0000
  H   H4342     1.0  0.72284  0.43282  0.54109  1.0000
  C   C2531     1.0  0.59803  0.24881  0.62904  1.0000
  C   C2532     1.0  0.69947  0.39754  0.58681  1.0000
  H   H4343     1.0  0.69143  0.40393  0.82269  1.0000
  H   H4344     1.0  0.50561  0.24955  0.68242  1.0000
  S   S726      1.0  0.63250  0.24530  0.53870  1.0000
  H   H4345     1.0  0.69666  0.38585  0.56129  1.0000
  C   C2533     1.0  0.61148  0.24796  0.63826  1.0000
  S   S727      1.0  0.73199  0.33754  0.55457  1.0000
  S   S728      1.0  0.55637  0.24560  0.56939  1.0000
  H   H4346     1.0  0.73495  0.24554  0.81514  1.0000
  N   N182      1.0  0.66461  0.24862  0.85975  1.0000
  H   H4347     1.0  0.63038  0.24364  0.75714  1.0000
  C   C2534     1.0  0.65406  0.28055  0.85412  1.0000
  N   N183      1.0  0.61828  0.23446  0.73344  1.0000
  H   H4348     1.0  0.60260  0.24105  0.61965  1.0000
  H   H4349     1.0  0.73756  0.25478  0.76405  1.0000
  H   H4350     1.0  0.51554  0.28827  0.68624  1.0000
  S   S729      1.0  0.67124  0.24353  0.80457  1.0000
  H   H4351     1.0  0.65838  0.29208  0.84681  1.0000
  H   H4352     1.0  0.72392  0.38219  0.58099  1.0000
  H   H4353     1.0  0.59948  0.23538  0.66952  1.0000
  Fe  Fe361     1.0  0.64421  0.24591  0.47754  1.0000
  H   H4354     1.0  0.60287  0.24250  0.75579  1.0000
  H   H4355     1.0  0.56952  0.28478  0.47561  1.0000
  H   H4356     1.0  0.72764  0.48159  0.70745  1.0000
  H   H4357     1.0  0.72653  0.23291  0.86017  1.0000
  H   H4358     1.0  0.59847  0.28612  0.47529  1.0000
  C   C2535     1.0  0.73292  0.48722  0.27845  1.0000
  Fe  Fe362     1.0  0.63464  0.54411  0.19119  1.0000
  S   S730      1.0  0.65017  0.52463  0.17671  1.0000
  S   S731      1.0  0.61625  0.56653  0.18099  1.0000
  Fe  Fe363     1.0  0.65283  0.53066  0.21899  1.0000
  S   S732      1.0  0.66971  0.51041  0.20707  1.0000
  S   S733      1.0  0.65531  0.53083  0.24425  1.0000
  Fe  Fe364     1.0  0.67161  0.52953  0.18347  1.0000
  S   S734      1.0  0.69750  0.52695  0.16765  1.0000
  Fe  Fe365     1.0  0.64710  0.50676  0.20144  1.0000
  H   H4359     1.0  0.58010  0.70000  0.22683  1.0000
  S   S735      1.0  0.65660  0.55035  0.19585  1.0000
  S   S736      1.0  0.62978  0.52573  0.21548  1.0000
  Fe  Fe366     1.0  0.50583  0.64396  0.20762  1.0000
  S   S737      1.0  0.51252  0.63249  0.23239  1.0000
  H   H4360     1.0  0.66867  0.68647  0.19351  1.0000
  Fe  Fe367     1.0  0.54110  0.64963  0.19143  1.0000
  S   S738      1.0  0.55036  0.63892  0.21497  1.0000
  S   S739      1.0  0.55924  0.65840  0.16817  1.0000
  Fe  Fe368     1.0  0.53633  0.61925  0.21814  1.0000
  S   S740      1.0  0.54787  0.59248  0.22777  1.0000
  Fe  Fe369     1.0  0.52597  0.65308  0.22703  1.0000
  S   S741      1.0  0.52009  0.66867  0.24606  1.0000
  S   S742      1.0  0.52859  0.62892  0.19366  1.0000
  S   S743      1.0  0.51785  0.66549  0.20318  1.0000
  S   S744      1.0  0.70717  0.57039  0.24512  1.0000
  C   C2536     1.0  0.63381  0.49287  0.25722  1.0000
  H   H4361     1.0  0.72743  0.63561  0.20844  1.0000
  H   H4362     1.0  0.50087  0.69881  0.20803  1.0000
  C   C2537     1.0  0.71869  0.48914  0.29113  1.0000
  S   S745      1.0  0.70236  0.64982  0.13081  1.0000
  H   H4363     1.0  0.59305  0.59865  0.13406  1.0000
  Fe  Fe370     1.0  0.66192  0.71724  0.39498  1.0000
  H   H4364     1.0  0.67312  0.73059  0.44254  1.0000
  S   S746      1.0  0.71583  0.50278  0.30430  1.0000
  H   H4365     1.0  0.62036  0.72021  0.20670  1.0000
  C   C2538     1.0  0.49124  0.71994  0.27848  1.0000
  H   H4366     1.0  0.69604  0.52275  0.21784  1.0000
  S   S747      1.0  0.73952  0.62619  0.13222  1.0000
  H   H4367     1.0  0.66045  0.69848  0.13599  1.0000
  C   C2539     1.0  0.55158  0.70642  0.17141  1.0000
  H   H4368     1.0  0.61975  0.71311  0.22825  1.0000
  C   C2540     1.0  0.65600  0.64767  0.14438  1.0000
  C   C2541     1.0  0.66370  0.65084  0.12759  1.0000
  C   C2542     1.0  0.65807  0.66584  0.11713  1.0000
  C   C2543     1.0  0.64481  0.67770  0.12351  1.0000
  C   C2544     1.0  0.63635  0.67398  0.14005  1.0000
  C   C2545     1.0  0.64201  0.65897  0.15055  1.0000
  H   H4369     1.0  0.67427  0.64189  0.12270  1.0000
  H   H4370     1.0  0.66441  0.66848  0.10426  1.0000
  S   S748      1.0  0.58270  0.72145  0.28788  1.0000
  C   C2546     1.0  0.57065  0.71718  0.20525  1.0000
  H   H4371     1.0  0.72175  0.59932  0.22329  1.0000
  H   H4372     1.0  0.71212  0.70865  0.05189  1.0000
  H   H4373     1.0  0.70240  0.69066  0.09811  1.0000
  C   C2547     1.0  0.71588  0.66739  0.36820  1.0000
  C   C2548     1.0  0.70303  0.68006  0.36283  1.0000
  C   C2549     1.0  0.68990  0.68717  0.37437  1.0000
  C   C2550     1.0  0.68951  0.68156  0.39132  1.0000
  C   C2551     1.0  0.70212  0.66851  0.39671  1.0000
  C   C2552     1.0  0.71545  0.66157  0.38516  1.0000
  H   H4374     1.0  0.70322  0.68441  0.34973  1.0000
  H   H4375     1.0  0.67992  0.69675  0.37015  1.0000
  H   H4376     1.0  0.70162  0.66390  0.40981  1.0000
  H   H4377     1.0  0.68753  0.72746  0.10193  1.0000
  H   H4378     1.0  0.68916  0.57312  0.22057  1.0000
  H   H4379     1.0  0.73283  0.59325  0.18834  1.0000
  H   H4380     1.0  0.63593  0.65640  0.16352  1.0000
  H   H4381     1.0  0.68221  0.70413  0.07084  1.0000
  C   C2553     1.0  0.53617  0.67379  0.25139  1.0000
  C   C2554     1.0  0.55289  0.66629  0.24634  1.0000
  C   C2555     1.0  0.56533  0.67076  0.25097  1.0000
  C   C2556     1.0  0.56107  0.68257  0.26082  1.0000
  C   C2557     1.0  0.54436  0.69000  0.26583  1.0000
  C   C2558     1.0  0.53201  0.68586  0.26088  1.0000
  H   H4382     1.0  0.55622  0.65705  0.23891  1.0000
  H   H4383     1.0  0.57826  0.66499  0.24702  1.0000
  H   H4384     1.0  0.70330  0.49172  0.25177  1.0000
  Fe  Fe371     1.0  0.57100  0.71467  0.31495  1.0000
  C   C2559     1.0  0.56154  0.67888  0.16530  1.0000
  C   C2560     1.0  0.54960  0.69012  0.17391  1.0000
  H   H4385     1.0  0.66274  0.71232  0.43571  1.0000
  C   C2561     1.0  0.57774  0.70021  0.15205  1.0000
  C   C2562     1.0  0.57549  0.68406  0.15416  1.0000
  H   H4386     1.0  0.53866  0.68640  0.18221  1.0000
  C   C2563     1.0  0.70466  0.50482  0.24833  1.0000
  H   H4387     1.0  0.58458  0.67559  0.14715  1.0000
  C   C2564     1.0  0.66911  0.54251  0.24454  1.0000
  C   C2565     1.0  0.67408  0.55469  0.23077  1.0000
  C   C2566     1.0  0.68531  0.56371  0.23124  1.0000
  C   C2567     1.0  0.69211  0.56006  0.24520  1.0000
  C   C2568     1.0  0.68716  0.54787  0.25895  1.0000
  C   C2569     1.0  0.67539  0.53937  0.25875  1.0000
  H   H4388     1.0  0.66928  0.55724  0.21980  1.0000
  H   H4389     1.0  0.69235  0.54500  0.26978  1.0000
  H   H4390     1.0  0.67156  0.52998  0.26945  1.0000
  H   H4391     1.0  0.59669  0.62796  0.12588  1.0000
  H   H4392     1.0  0.63617  0.59767  0.13113  1.0000
  H   H4393     1.0  0.52751  0.68129  0.30197  1.0000
  N   N184      1.0  0.67109  0.68498  0.16798  1.0000
  C   C2570     1.0  0.73565  0.59925  0.19691  1.0000
  H   H4394     1.0  0.66527  0.72840  0.32414  1.0000
  C   C2571     1.0  0.62369  0.72263  0.21730  1.0000
  H   H4395     1.0  0.72848  0.67364  0.40914  1.0000
  N   N185      1.0  0.66841  0.71451  0.46701  1.0000
  S   S749      1.0  0.70854  0.61013  0.13174  1.0000
  C   C2572     1.0  0.70848  0.54220  0.16587  1.0000
  C   C2573     1.0  0.70031  0.55850  0.16726  1.0000
  H   H4396     1.0  0.70120  0.72452  0.46067  1.0000
  C   C2574     1.0  0.72586  0.53780  0.16290  1.0000
  H   H4397     1.0  0.68689  0.56200  0.16946  1.0000
  H   H4398     1.0  0.64022  0.72913  0.29419  1.0000
  C   C2575     1.0  0.73002  0.68384  0.41393  1.0000
  C   C2576     1.0  0.59710  0.57316  0.19411  1.0000
  C   C2577     1.0  0.59109  0.56296  0.20913  1.0000
  C   C2578     1.0  0.57587  0.56888  0.21938  1.0000
  C   C2579     1.0  0.56667  0.58503  0.21468  1.0000
  C   C2580     1.0  0.57273  0.59523  0.19969  1.0000
  C   C2581     1.0  0.58783  0.58925  0.18944  1.0000
  H   H4399     1.0  0.59802  0.55046  0.21277  1.0000
  H   H4400     1.0  0.57119  0.56093  0.23095  1.0000
  H   H4401     1.0  0.56575  0.60771  0.19595  1.0000
  H   H4402     1.0  0.59244  0.59717  0.17797  1.0000
  H   H4403     1.0  0.67125  0.66013  0.19685  1.0000
  H   H4404     1.0  0.71725  0.64318  0.18246  1.0000
  H   H4405     1.0  0.53605  0.65970  0.31035  1.0000
  H   H4406     1.0  0.59333  0.62405  0.16327  1.0000
  H   H4407     1.0  0.69193  0.66376  0.16567  1.0000
  H   H4408     1.0  0.67036  0.70519  0.17888  1.0000
  H   H4409     1.0  0.73145  0.56717  0.20509  1.0000
  C   C2582     1.0  0.68381  0.70232  0.08364  1.0000
  H   H4410     1.0  0.53248  0.67530  0.32179  1.0000
  H   H4411     1.0  0.59299  0.69775  0.20704  1.0000
  S   S750      1.0  0.72662  0.66530  0.15129  1.0000
  H   H4412     1.0  0.51916  0.69208  0.26442  1.0000
  H   H4413     1.0  0.72527  0.65164  0.38937  1.0000
  S   S751      1.0  0.61575  0.71353  0.15278  1.0000
  H   H4414     1.0  0.67644  0.70761  0.15054  1.0000
  H   H4415     1.0  0.72367  0.72462  0.08421  1.0000
  H   H4416     1.0  0.64125  0.69714  0.19277  1.0000
  H   H4417     1.0  0.62215  0.71495  0.36607  1.0000
  S   S752      1.0  0.73209  0.65863  0.35355  1.0000
  H   H4418     1.0  0.58540  0.60854  0.15116  1.0000
  C   C2583     1.0  0.63942  0.60042  0.14150  1.0000
  S   S753      1.0  0.73097  0.57973  0.30778  1.0000
  N   N186      1.0  0.72055  0.50667  0.21769  1.0000
  C   C2584     1.0  0.54384  0.70918  0.21666  1.0000
  H   H4419     1.0  0.67405  0.69139  0.45901  1.0000
  H   H4420     1.0  0.65372  0.49292  0.27549  1.0000
  C   C2585     1.0  0.50173  0.72004  0.28846  1.0000
  H   H4421     1.0  0.67805  0.71392  0.08814  1.0000
  C   C2586     1.0  0.72075  0.50694  0.23512  1.0000
  C   C2587     1.0  0.68009  0.72226  0.45199  1.0000
  C   C2588     1.0  0.71430  0.49151  0.21852  1.0000
  H   H4422     1.0  0.71297  0.65934  0.43330  1.0000
  C   C2589     1.0  0.71285  0.71851  0.08822  1.0000
  S   S754      1.0  0.57677  0.68843  0.26615  1.0000
  C   C2590     1.0  0.59965  0.63339  0.15379  1.0000
  H   H4423     1.0  0.60518  0.59353  0.14930  1.0000
  C   C2591     1.0  0.57986  0.70023  0.21397  1.0000
  C   C2592     1.0  0.71541  0.48746  0.20173  1.0000
  H   H4424     1.0  0.51060  0.66048  0.33446  1.0000
  H   H4425     1.0  0.58858  0.70406  0.14348  1.0000
  H   H4426     1.0  0.62561  0.68274  0.14480  1.0000
  H   H4427     1.0  0.49040  0.68647  0.23302  1.0000
  C   C2593     1.0  0.71051  0.71727  0.06013  1.0000
  S   S755      1.0  0.64000  0.69749  0.11103  1.0000
  C   C2594     1.0  0.72138  0.73010  0.05075  1.0000
  H   H4428     1.0  0.71420  0.54139  0.21908  1.0000
  H   H4429     1.0  0.51365  0.72321  0.28274  1.0000
  S   S756      1.0  0.71004  0.55171  0.29258  1.0000
  H   H4430     1.0  0.64838  0.70203  0.16278  1.0000
  H   H4431     1.0  0.65079  0.69689  0.44530  1.0000
  C   C2595     1.0  0.70223  0.69562  0.08473  1.0000
  C   C2596     1.0  0.72703  0.56603  0.16209  1.0000
  C   C2597     1.0  0.72329  0.65375  0.43985  1.0000
  H   H4432     1.0  0.62225  0.49619  0.25246  1.0000
  Fe  Fe372     1.0  0.53637  0.71921  0.30782  1.0000
  H   H4433     1.0  0.65387  0.48875  0.23661  1.0000
  N   N187      1.0  0.71388  0.70748  0.07682  1.0000
  H   H4434     1.0  0.52076  0.72094  0.20760  1.0000
  H   H4435     1.0  0.62809  0.68921  0.18550  1.0000
  C   C2598     1.0  0.70961  0.57048  0.16515  1.0000
  H   H4436     1.0  0.67534  0.67900  0.13558  1.0000
  S   S757      1.0  0.58768  0.70558  0.33367  1.0000
  H   H4437     1.0  0.73195  0.69876  0.43786  1.0000
  H   H4438     1.0  0.70455  0.68819  0.42971  1.0000
  N   N188      1.0  0.55273  0.72311  0.21352  1.0000
  S   S758      1.0  0.63484  0.72884  0.40277  1.0000
  C   C2599     1.0  0.52740  0.67125  0.31334  1.0000
  N   N189      1.0  0.62170  0.58910  0.22619  1.0000
  C   C2600     1.0  0.63553  0.59528  0.21256  1.0000
  C   C2601     1.0  0.62326  0.59231  0.24203  1.0000
  C   C2602     1.0  0.60533  0.59899  0.22187  1.0000
  C   C2603     1.0  0.62374  0.57085  0.22694  1.0000
  C   C2604     1.0  0.63453  0.59623  0.19464  1.0000
  C   C2605     1.0  0.63929  0.58265  0.24812  1.0000
  C   C2606     1.0  0.58964  0.59939  0.23601  1.0000
  C   C2607     1.0  0.61275  0.56102  0.24163  1.0000
  H   H4439     1.0  0.63612  0.60798  0.21304  1.0000
  H   H4440     1.0  0.64790  0.58724  0.21412  1.0000
  H   H4441     1.0  0.61281  0.58941  0.25249  1.0000
  H   H4442     1.0  0.62248  0.60582  0.24065  1.0000
  H   H4443     1.0  0.60594  0.61229  0.21645  1.0000
  H   H4444     1.0  0.60270  0.59444  0.21213  1.0000
  H   H4445     1.0  0.62126  0.56908  0.21558  1.0000
  H   H4446     1.0  0.63689  0.56408  0.22662  1.0000
  H   H4447     1.0  0.63429  0.58406  0.19272  1.0000
  H   H4448     1.0  0.62364  0.60564  0.19098  1.0000
  H   H4449     1.0  0.64579  0.60007  0.18595  1.0000
  H   H4450     1.0  0.63881  0.58562  0.26005  1.0000
  H   H4451     1.0  0.64048  0.56901  0.25056  1.0000
  H   H4452     1.0  0.65060  0.58620  0.23940  1.0000
  H   H4453     1.0  0.58762  0.58690  0.24284  1.0000
  H   H4454     1.0  0.57855  0.60575  0.23059  1.0000
  H   H4455     1.0  0.58977  0.60677  0.24473  1.0000
  H   H4456     1.0  0.60100  0.56111  0.23852  1.0000
  H   H4457     1.0  0.60990  0.56524  0.25331  1.0000
  H   H4458     1.0  0.61954  0.54788  0.24450  1.0000
  N   N190      1.0  0.50101  0.66204  0.31300  1.0000
  C   C2608     1.0  0.50961  0.66876  0.32212  1.0000
  H   H4459     1.0  0.62112  0.72093  0.24953  1.0000
  C   C2609     1.0  0.50271  0.67216  0.29544  1.0000
  C   C2610     1.0  0.50950  0.64408  0.31322  1.0000
  S   S759      1.0  0.73565  0.53098  0.26484  1.0000
  Fe  Fe373     1.0  0.72059  0.63149  0.11691  1.0000
  H   H4460     1.0  0.71166  0.59319  0.21085  1.0000
  C   C2611     1.0  0.50220  0.63430  0.30538  1.0000
  H   H4461     1.0  0.71403  0.71090  0.10078  1.0000
  H   H4462     1.0  0.73892  0.55189  0.22174  1.0000
  H   H4463     1.0  0.72535  0.53952  0.19814  1.0000
  C   C2612     1.0  0.64045  0.72537  0.30755  1.0000
  H   H4464     1.0  0.50213  0.68537  0.29515  1.0000
  H   H4465     1.0  0.51510  0.66767  0.28780  1.0000
  H   H4466     1.0  0.52269  0.64313  0.30637  1.0000
  H   H4467     1.0  0.51062  0.63691  0.32594  1.0000
  H   H4468     1.0  0.66129  0.65108  0.18644  1.0000
  H   H4469     1.0  0.72373  0.51856  0.23569  1.0000
  C   C2613     1.0  0.60684  0.71107  0.35178  1.0000
  H   H4470     1.0  0.66391  0.48371  0.15903  1.0000
  H   H4471     1.0  0.63011  0.64218  0.13572  1.0000
  H   H4472     1.0  0.63009  0.48762  0.27059  1.0000
  H   H4473     1.0  0.70809  0.52099  0.19792  1.0000
  H   H4474     1.0  0.70097  0.49280  0.22499  1.0000
  H   H4475     1.0  0.67656  0.69294  0.09153  1.0000
  H   H4476     1.0  0.71806  0.64643  0.45211  1.0000
  C   C2614     1.0  0.71357  0.53868  0.20744  1.0000
  H   H4477     1.0  0.50759  0.63594  0.29184  1.0000
  H   H4478     1.0  0.70629  0.69837  0.40845  1.0000
  H   H4479     1.0  0.63799  0.50450  0.25554  1.0000
  C   C2615     1.0  0.64111  0.68731  0.18670  1.0000
  H   H4480     1.0  0.61779  0.49142  0.19495  1.0000
  H   H4481     1.0  0.69745  0.72426  0.06093  1.0000
  S   S760      1.0  0.72710  0.64091  0.08932  1.0000
  S   S761      1.0  0.70883  0.62290  0.16506  1.0000
  C   C2616     1.0  0.63274  0.63528  0.11294  1.0000
  C   C2617     1.0  0.69363  0.68778  0.18113  1.0000
  H   H4482     1.0  0.64413  0.67495  0.19481  1.0000
  H   H4483     1.0  0.57451  0.68981  0.21392  1.0000
  S   S762      1.0  0.66388  0.72982  0.36800  1.0000
  H   H4484     1.0  0.68124  0.69813  0.12451  1.0000
  H   H4485     1.0  0.54204  0.71514  0.17773  1.0000
  H   H4486     1.0  0.54088  0.69901  0.27346  1.0000
  H   H4487     1.0  0.70558  0.64169  0.32680  1.0000
  C   C2618     1.0  0.70893  0.52185  0.21025  1.0000
  S   S763      1.0  0.50984  0.71536  0.31874  1.0000
  H   H4488     1.0  0.50528  0.62086  0.31121  1.0000
  H   H4489     1.0  0.61402  0.63562  0.17070  1.0000
  C   C2619     1.0  0.67905  0.69399  0.15111  1.0000
  H   H4490     1.0  0.58979  0.64209  0.14750  1.0000
  C   C2620     1.0  0.56581  0.71140  0.16074  1.0000
  H   H4491     1.0  0.68433  0.48746  0.15448  1.0000
  C   C2621     1.0  0.62198  0.63883  0.12971  1.0000
  H   H4492     1.0  0.51854  0.72043  0.22935  1.0000
  H   H4493     1.0  0.71231  0.61430  0.20783  1.0000
  H   H4494     1.0  0.69340  0.51293  0.24432  1.0000
  C   C2622     1.0  0.58937  0.72423  0.24505  1.0000
  N   N191      1.0  0.70381  0.61571  0.36638  1.0000
  C   C2623     1.0  0.71517  0.59950  0.37234  1.0000
  C   C2624     1.0  0.70427  0.62814  0.37569  1.0000
  C   C2625     1.0  0.71075  0.62227  0.34830  1.0000
  C   C2626     1.0  0.68609  0.61374  0.36982  1.0000
  C   C2627     1.0  0.71568  0.58458  0.36538  1.0000
  C   C2628     1.0  0.69916  0.62336  0.39479  1.0000
  C   C2629     1.0  0.70127  0.63948  0.34049  1.0000
  C   C2630     1.0  0.68130  0.60743  0.35688  1.0000
  H   H4495     1.0  0.72820  0.60117  0.36964  1.0000
  H   H4496     1.0  0.71161  0.59515  0.38598  1.0000
  H   H4497     1.0  0.69589  0.64033  0.37198  1.0000
  H   H4498     1.0  0.71692  0.63078  0.37251  1.0000
  H   H4499     1.0  0.72386  0.62333  0.34646  1.0000
  H   H4500     1.0  0.71156  0.61362  0.34050  1.0000
  H   H4501     1.0  0.68299  0.60523  0.38207  1.0000
  H   H4502     1.0  0.67732  0.62592  0.37081  1.0000
  H   H4503     1.0  0.70382  0.58024  0.37019  1.0000
  H   H4504     1.0  0.71881  0.58710  0.35171  1.0000
  H   H4505     1.0  0.72044  0.67534  0.44949  1.0000
  H   H4506     1.0  0.68736  0.61895  0.39921  1.0000
  H   H4507     1.0  0.70918  0.61398  0.40015  1.0000
  H   H4508     1.0  0.69720  0.63453  0.39986  1.0000
  Fe  Fe374     1.0  0.72629  0.52604  0.29235  1.0000
  H   H4509     1.0  0.49526  0.72301  0.26513  1.0000
  H   H4510     1.0  0.68766  0.64051  0.34345  1.0000
  H   H4511     1.0  0.67252  0.59907  0.36347  1.0000
  H   H4512     1.0  0.69167  0.60027  0.34904  1.0000
  H   H4513     1.0  0.67431  0.61791  0.34884  1.0000
  S   S764      1.0  0.66485  0.63037  0.15779  1.0000
  C   C2631     1.0  0.61366  0.72085  0.35785  1.0000
  H   H4514     1.0  0.50224  0.68105  0.32468  1.0000
  H   H4515     1.0  0.63934  0.64561  0.10659  1.0000
  C   C2632     1.0  0.49672  0.71608  0.30573  1.0000
  H   H4516     1.0  0.70380  0.54870  0.20231  1.0000
  H   H4517     1.0  0.64207  0.58815  0.15010  1.0000
  H   H4518     1.0  0.70531  0.50806  0.25977  1.0000
  H   H4519     1.0  0.54688  0.69955  0.22764  1.0000
  H   H4520     1.0  0.59345  0.64790  0.17267  1.0000
  H   H4521     1.0  0.54829  0.70269  0.20614  1.0000
  C   C2633     1.0  0.59694  0.60391  0.14249  1.0000
  H   H4522     1.0  0.63219  0.61845  0.15628  1.0000
  Fe  Fe375     1.0  0.62672  0.71731  0.12545  1.0000
  H   H4523     1.0  0.67453  0.66217  0.16000  1.0000
  H   H4524     1.0  0.73669  0.69173  0.40295  1.0000
  H   H4525     1.0  0.70648  0.68449  0.07904  1.0000
  C   C2634     1.0  0.59587  0.71849  0.34097  1.0000
  C   C2635     1.0  0.66306  0.70142  0.46220  1.0000
  H   H4526     1.0  0.70331  0.58315  0.16585  1.0000
  H   H4527     1.0  0.64570  0.72719  0.25071  1.0000
  C   C2636     1.0  0.67359  0.69213  0.13612  1.0000
  C   C2637     1.0  0.60460  0.64331  0.16353  1.0000
  C   C2638     1.0  0.71974  0.60143  0.21070  1.0000
  H   H4528     1.0  0.65188  0.71589  0.30957  1.0000
  C   C2639     1.0  0.52473  0.71375  0.21925  1.0000
  H   H4529     1.0  0.55729  0.71572  0.23830  1.0000
  C   C2640     1.0  0.65254  0.68899  0.16924  1.0000
  C   C2641     1.0  0.62555  0.61238  0.15096  1.0000
  C   C2642     1.0  0.67508  0.69146  0.18075  1.0000
  C   C2643     1.0  0.67283  0.65491  0.18599  1.0000
  C   C2644     1.0  0.65438  0.70755  0.44741  1.0000
  H   H4530     1.0  0.60895  0.65446  0.15531  1.0000
  H   H4531     1.0  0.61880  0.60465  0.16208  1.0000
  S   S765      1.0  0.67352  0.69088  0.40586  1.0000
  N   N192      1.0  0.61363  0.62531  0.14145  1.0000
  S   S766      1.0  0.55761  0.69716  0.31102  1.0000
  H   H4532     1.0  0.69872  0.67423  0.18441  1.0000
  H   H4533     1.0  0.65108  0.60520  0.13692  1.0000
  H   H4534     1.0  0.64926  0.68126  0.16270  1.0000
  C   C2645     1.0  0.55259  0.72717  0.22955  1.0000
  H   H4535     1.0  0.61510  0.61297  0.12186  1.0000
  H   H4536     1.0  0.69500  0.69322  0.19088  1.0000
  H   H4537     1.0  0.72559  0.57404  0.36959  1.0000
  H   H4538     1.0  0.61007  0.69766  0.35549  1.0000
  H   H4539     1.0  0.70403  0.64959  0.34440  1.0000
  H   H4540     1.0  0.68284  0.64355  0.18747  1.0000
  Fe  Fe376     1.0  0.56737  0.70593  0.28389  1.0000
  Fe  Fe377     1.0  0.69226  0.62796  0.14740  1.0000
  C   C2646     1.0  0.71265  0.69478  0.41897  1.0000
  C   C2647     1.0  0.60587  0.61802  0.13210  1.0000
  C   C2648     1.0  0.67811  0.66659  0.16925  1.0000
  H   H4541     1.0  0.57155  0.71607  0.19240  1.0000
  H   H4542     1.0  0.64278  0.71709  0.44975  1.0000
  H   H4543     1.0  0.71349  0.70652  0.42147  1.0000
  H   H4544     1.0  0.52012  0.70206  0.22280  1.0000
  H   H4545     1.0  0.49297  0.68037  0.27314  1.0000
  H   H4546     1.0  0.70126  0.69340  0.16931  1.0000
  H   H4547     1.0  0.61257  0.65047  0.12662  1.0000
  Fe  Fe378     1.0  0.72097  0.55684  0.26532  1.0000
  H   H4548     1.0  0.70707  0.49706  0.19439  1.0000
  H   H4549     1.0  0.68905  0.71252  0.44576  1.0000
  H   H4550     1.0  0.64240  0.62373  0.11422  1.0000
  H   H4551     1.0  0.62497  0.63505  0.10463  1.0000
  H   H4552     1.0  0.69284  0.68975  0.14861  1.0000
  S   S767      1.0  0.56874  0.73146  0.15876  1.0000
  H   H4553     1.0  0.73711  0.60621  0.31785  1.0000
  H   H4554     1.0  0.63748  0.72060  0.21416  1.0000
  H   H4555     1.0  0.73606  0.69003  0.09922  1.0000
  H   H4556     1.0  0.62977  0.71924  0.31385  1.0000
  Fe  Fe379     1.0  0.72592  0.60638  0.14841  1.0000
  H   H4557     1.0  0.49553  0.70941  0.18875  1.0000
  H   H4558     1.0  0.57826  0.72631  0.20396  1.0000
  Fe  Fe380     1.0  0.73255  0.55884  0.29527  1.0000
  H   H4559     1.0  0.73222  0.52525  0.16176  1.0000
  C   C2649     1.0  0.72705  0.64848  0.18317  1.0000
  C   C2650     1.0  0.73075  0.66705  0.44254  1.0000
  C   C2651     1.0  0.49057  0.70706  0.20237  1.0000
  Fe  Fe381     1.0  0.72040  0.64325  0.14702  1.0000
  H   H4560     1.0  0.65447  0.69507  0.47263  1.0000
  H   H4561     1.0  0.52959  0.72564  0.24867  1.0000
  S   S768      1.0  0.73902  0.58077  0.15902  1.0000
  H   H4562     1.0  0.73273  0.64480  0.43311  1.0000
  C   C2652     1.0  0.73277  0.64421  0.19784  1.0000
  S   S769      1.0  0.54568  0.72712  0.28048  1.0000
  C   C2653     1.0  0.69689  0.73212  0.09105  1.0000
  H   H4563     1.0  0.59719  0.71473  0.25299  1.0000
  H   H4564     1.0  0.59133  0.72086  0.23301  1.0000
  H   H4565     1.0  0.72824  0.48560  0.19409  1.0000
  H   H4566     1.0  0.73944  0.61082  0.22733  1.0000
  H   H4567     1.0  0.67498  0.48992  0.27575  1.0000
  H   H4568     1.0  0.73080  0.49673  0.23953  1.0000
  H   H4569     1.0  0.72948  0.67436  0.09351  1.0000
  C   C2654     1.0  0.73144  0.69719  0.07381  1.0000
  H   H4570     1.0  0.57628  0.72387  0.25150  1.0000
  C   C2655     1.0  0.73363  0.66001  0.16968  1.0000
  H   H4571     1.0  0.73340  0.69024  0.06396  1.0000
  H   H4572     1.0  0.73469  0.72418  0.04709  1.0000
  C   C2656     1.0  0.73509  0.54960  0.16129  1.0000
  H   H4573     1.0  0.67339  0.73020  0.30250  1.0000
  C   C2657     1.0  0.65388  0.72820  0.47175  1.0000
  H   H4574     1.0  0.73712  0.61186  0.18956  1.0000
  C   C2658     1.0  0.73677  0.68425  0.08895  1.0000
  H   H4575     1.0  0.67544  0.48520  0.24965  1.0000
  H   H4576     1.0  0.73760  0.51014  0.19365  1.0000
  H   H4577     1.0  0.73880  0.70743  0.98091  1.0000
  H   H4578     1.0  0.73906  0.66028  0.45130  1.0000
  C   C2659     1.0  0.73799  0.50514  0.20700  1.0000
  C   C2660     1.0  0.66540  0.48343  0.27567  1.0000
  H   H4579     1.0  0.64926  0.67488  0.81802  1.0000
  H   H4580     1.0  0.53115  0.70497  0.79119  1.0000
  Fe  Fe382     1.0  0.52479  0.66223  0.75418  1.0000
  S   S770      1.0  0.54159  0.64184  0.74178  1.0000
  C   C2661     1.0  0.52789  0.68994  0.81577  1.0000
  Fe  Fe383     1.0  0.55423  0.67287  0.75974  1.0000
  S   S771      1.0  0.57326  0.65359  0.74762  1.0000
  S   S772      1.0  0.56041  0.69436  0.76554  1.0000
  Fe  Fe384     1.0  0.55770  0.66034  0.72877  1.0000
  S   S773      1.0  0.56767  0.66514  0.70131  1.0000
  Fe  Fe385     1.0  0.55577  0.63669  0.76180  1.0000
  S   S774      1.0  0.56724  0.61154  0.77540  1.0000
  S   S775      1.0  0.54006  0.68103  0.73959  1.0000
  S   S776      1.0  0.53761  0.65557  0.77553  1.0000
  Fe  Fe386     1.0  0.67240  0.52788  0.74935  1.0000
  S   S777      1.0  0.66824  0.54169  0.72416  1.0000
  H   H4581     1.0  0.66155  0.67145  0.78811  1.0000
  Fe  Fe387     1.0  0.67316  0.55963  0.75911  1.0000
  S   S778      1.0  0.66845  0.57562  0.73471  1.0000
  S   S779      1.0  0.67329  0.57444  0.77723  1.0000
  Fe  Fe388     1.0  0.64990  0.56059  0.73739  1.0000
  S   S780      1.0  0.62597  0.57186  0.72868  1.0000
  Fe  Fe389     1.0  0.68717  0.55539  0.72387  1.0000
  S   S781      1.0  0.70488  0.56360  0.70021  1.0000
  S   S782      1.0  0.65278  0.54608  0.76279  1.0000
  S   S783      1.0  0.69325  0.54005  0.74809  1.0000
  N   N193      1.0  0.52321  0.71672  0.69675  1.0000
  S   S784      1.0  0.62457  0.70655  0.83710  1.0000
  S   S785      1.0  0.66512  0.71296  0.80235  1.0000
  Fe  Fe390     1.0  0.60450  0.70870  0.82395  1.0000
  S   S786      1.0  0.59379  0.68677  0.82538  1.0000
  H   H4582     1.0  0.62906  0.68010  0.81407  1.0000
  H   H4583     1.0  0.64330  0.72322  0.49852  1.0000
  S   S787      1.0  0.72023  0.62576  0.79885  1.0000
  C   C2662     1.0  0.72398  0.63591  0.75193  1.0000
  Fe  Fe391     1.0  0.71812  0.62980  0.82411  1.0000
  S   S788      1.0  0.69387  0.64083  0.83912  1.0000
  H   H4584     1.0  0.67307  0.72150  0.88851  1.0000
  C   C2663     1.0  0.67438  0.69365  0.81310  1.0000
  C   C2664     1.0  0.68812  0.68366  0.80473  1.0000
  C   C2665     1.0  0.69460  0.66755  0.81288  1.0000
  C   C2666     1.0  0.68735  0.66151  0.82941  1.0000
  C   C2667     1.0  0.67417  0.67181  0.83799  1.0000
  C   C2668     1.0  0.66772  0.68786  0.82984  1.0000
  H   H4585     1.0  0.69344  0.68817  0.79181  1.0000
  H   H4586     1.0  0.70493  0.65971  0.80624  1.0000
  H   H4587     1.0  0.66878  0.66725  0.85087  1.0000
  H   H4588     1.0  0.65755  0.69567  0.83655  1.0000
  C   C2669     1.0  0.69151  0.57550  0.78245  1.0000
  C   C2670     1.0  0.69046  0.58736  0.79138  1.0000
  C   C2671     1.0  0.70448  0.58834  0.79626  1.0000
  C   C2672     1.0  0.71966  0.57730  0.79243  1.0000
  C   C2673     1.0  0.72077  0.56547  0.78341  1.0000
  C   C2674     1.0  0.70678  0.56467  0.77828  1.0000
  H   H4589     1.0  0.67868  0.59571  0.79472  1.0000
  H   H4590     1.0  0.70342  0.59740  0.80333  1.0000
  C   C2675     1.0  0.69372  0.72015  0.84531  1.0000
  H   H4591     1.0  0.70769  0.55542  0.77150  1.0000
  C   C2676     1.0  0.57851  0.68132  0.69448  1.0000
  C   C2677     1.0  0.58032  0.69010  0.67798  1.0000
  C   C2678     1.0  0.58890  0.70310  0.67240  1.0000
  C   C2679     1.0  0.73084  0.72513  0.53106  1.0000
  C   C2680     1.0  0.59451  0.69809  0.69964  1.0000
  C   C2681     1.0  0.58531  0.68556  0.70540  1.0000
  H   H4592     1.0  0.57499  0.68693  0.66952  1.0000
  H   H4593     1.0  0.51423  0.71403  0.75316  1.0000
  S   S789      1.0  0.70944  0.71599  0.49378  1.0000
  H   H4594     1.0  0.58360  0.67913  0.71824  1.0000
  C   C2682     1.0  0.57003  0.69167  0.78206  1.0000
  C   C2683     1.0  0.57441  0.70543  0.78425  1.0000
  C   C2684     1.0  0.58176  0.70397  0.79744  1.0000
  C   C2685     1.0  0.58467  0.68875  0.80866  1.0000
  C   C2686     1.0  0.58022  0.67496  0.80654  1.0000
  C   C2687     1.0  0.57298  0.67639  0.79322  1.0000
  H   H4595     1.0  0.64056  0.68003  0.78447  1.0000
  H   H4596     1.0  0.61842  0.66005  0.80674  1.0000
  H   H4597     1.0  0.58238  0.66317  0.81521  1.0000
  H   H4598     1.0  0.56957  0.66573  0.79166  1.0000
  C   C2688     1.0  0.58333  0.60018  0.76254  1.0000
  C   C2689     1.0  0.59652  0.58893  0.76898  1.0000
  C   C2690     1.0  0.60978  0.58025  0.75866  1.0000
  C   C2691     1.0  0.60957  0.58238  0.74200  1.0000
  C   C2692     1.0  0.59614  0.59323  0.73570  1.0000
  C   C2693     1.0  0.58321  0.60238  0.74584  1.0000
  H   H4599     1.0  0.59665  0.58724  0.78189  1.0000
  H   H4600     1.0  0.62011  0.57193  0.76362  1.0000
  H   H4601     1.0  0.59587  0.59481  0.72284  1.0000
  H   H4602     1.0  0.57303  0.61097  0.74082  1.0000
  C   C2694     1.0  0.72851  0.66527  0.52465  1.0000
  C   C2695     1.0  0.71595  0.67686  0.53236  1.0000
  C   C2696     1.0  0.70995  0.69258  0.52301  1.0000
  N   N194      1.0  0.70757  0.49121  0.69436  1.0000
  H   H4603     1.0  0.57466  0.72759  0.61530  1.0000
  C   C2697     1.0  0.52552  0.69412  0.79783  1.0000
  H   H4604     1.0  0.71109  0.67379  0.54559  1.0000
  H   H4605     1.0  0.70036  0.70156  0.52899  1.0000
  H   H4606     1.0  0.73454  0.63136  0.72733  1.0000
  H   H4607     1.0  0.52718  0.67685  0.82188  1.0000
  H   H4608     1.0  0.72412  0.60319  0.76328  1.0000
  C   C2698     1.0  0.72247  0.54818  0.69552  1.0000
  C   C2699     1.0  0.72752  0.53478  0.70794  1.0000
  H   H4609     1.0  0.70113  0.52597  0.67069  1.0000
  H   H4610     1.0  0.67356  0.68112  0.48963  1.0000
  H   H4611     1.0  0.68738  0.53301  0.68864  1.0000
  H   H4612     1.0  0.72065  0.53396  0.72060  1.0000
  H   H4613     1.0  0.53217  0.67403  0.69702  1.0000
  H   H4614     1.0  0.49197  0.70674  0.81687  1.0000
  H   H4615     1.0  0.67894  0.70189  0.87277  1.0000
  H   H4616     1.0  0.52095  0.72606  0.64267  1.0000
  H   H4617     1.0  0.67896  0.68896  0.50416  1.0000
  C   C2700     1.0  0.64167  0.67217  0.81094  1.0000
  H   H4618     1.0  0.51503  0.68876  0.69010  1.0000
  C   C2701     1.0  0.70823  0.49716  0.72207  1.0000
  C   C2702     1.0  0.66055  0.49700  0.73250  1.0000
  H   H4619     1.0  0.54203  0.69930  0.68367  1.0000
  H   H4620     1.0  0.66022  0.51008  0.72754  1.0000
  H   H4621     1.0  0.72065  0.64958  0.74723  1.0000
  H   H4622     1.0  0.67814  0.71634  0.48704  1.0000
  H   H4623     1.0  0.65083  0.69691  0.88130  1.0000
  H   H4624     1.0  0.51615  0.68329  0.71194  1.0000
  H   H4625     1.0  0.65838  0.69588  0.50077  1.0000
  N   N195      1.0  0.62570  0.62931  0.72389  1.0000
  C   C2703     1.0  0.63902  0.61432  0.72014  1.0000
  C   C2704     1.0  0.61171  0.63184  0.71525  1.0000
  C   C2705     1.0  0.61830  0.62553  0.74229  1.0000
  C   C2706     1.0  0.63333  0.64429  0.71927  1.0000
  C   C2707     1.0  0.64599  0.61372  0.70177  1.0000
  C   C2708     1.0  0.61297  0.64322  0.69773  1.0000
  C   C2709     1.0  0.63048  0.62113  0.75391  1.0000
  C   C2710     1.0  0.62164  0.66004  0.72467  1.0000
  H   H4626     1.0  0.64994  0.61320  0.72532  1.0000
  H   H4627     1.0  0.63439  0.60269  0.72625  1.0000
  H   H4628     1.0  0.59948  0.63731  0.72257  1.0000
  H   H4629     1.0  0.61004  0.61965  0.71446  1.0000
  H   H4630     1.0  0.60824  0.63601  0.74603  1.0000
  H   H4631     1.0  0.61203  0.61493  0.74551  1.0000
  H   H4632     1.0  0.64450  0.64152  0.72458  1.0000
  H   H4633     1.0  0.63856  0.64758  0.70575  1.0000
  H   H4634     1.0  0.65093  0.62488  0.69454  1.0000
  H   H4635     1.0  0.65651  0.60277  0.70084  1.0000
  H   H4636     1.0  0.63658  0.61183  0.69620  1.0000
  H   H4637     1.0  0.61117  0.65643  0.69816  1.0000
  H   H4638     1.0  0.62478  0.63968  0.68899  1.0000
  H   H4639     1.0  0.60277  0.64256  0.69243  1.0000
  H   H4640     1.0  0.63942  0.60912  0.75292  1.0000
  H   H4641     1.0  0.62324  0.61950  0.76693  1.0000
  H   H4642     1.0  0.63721  0.63112  0.75188  1.0000
  H   H4643     1.0  0.62315  0.66095  0.73679  1.0000
  H   H4644     1.0  0.60839  0.66030  0.72575  1.0000
  H   H4645     1.0  0.62438  0.67131  0.71520  1.0000
  C   C2711     1.0  0.73804  0.70870  0.54212  1.0000
  H   H4646     1.0  0.63426  0.50945  0.77527  1.0000
  S   S790      1.0  0.49723  0.67321  0.75519  1.0000
  S   S791      1.0  0.61884  0.71951  0.79916  1.0000
  C   C2712     1.0  0.50786  0.69926  0.77791  1.0000
  H   H4647     1.0  0.72752  0.63395  0.76385  1.0000
  H   H4648     1.0  0.64902  0.71801  0.88195  1.0000
  H   H4649     1.0  0.60370  0.50592  0.73033  1.0000
  H   H4650     1.0  0.50786  0.66399  0.66754  1.0000
  H   H4651     1.0  0.49387  0.68129  0.67576  1.0000
  H   H4652     1.0  0.69679  0.69637  0.83805  1.0000
  C   C2713     1.0  0.65254  0.70930  0.87352  1.0000
  H   H4653     1.0  0.51884  0.69838  0.82338  1.0000
  C   C2714     1.0  0.59628  0.70690  0.68313  1.0000
  H   H4654     1.0  0.58495  0.71472  0.79906  1.0000
  H   H4655     1.0  0.68674  0.50465  0.68298  1.0000
  C   C2715     1.0  0.73204  0.60018  0.75136  1.0000
  S   S792      1.0  0.73711  0.64627  0.53646  1.0000
  C   C2716     1.0  0.67076  0.70783  0.86375  1.0000
  H   H4656     1.0  0.63705  0.71147  0.48748  1.0000
  H   H4657     1.0  0.73036  0.69985  0.54284  1.0000
  C   C2717     1.0  0.67776  0.70670  0.48079  1.0000
  H   H4658     1.0  0.68375  0.50689  0.70319  1.0000
  H   H4659     1.0  0.60665  0.48680  0.74512  1.0000
  N   N196      1.0  0.50790  0.69677  0.79597  1.0000
  H   H4660     1.0  0.70111  0.71374  0.85496  1.0000
  C   C2718     1.0  0.52322  0.68585  0.69892  1.0000
  H   H4661     1.0  0.63945  0.62467  0.80507  1.0000
  C   C2719     1.0  0.69810  0.52324  0.68445  1.0000
  S   S793      1.0  0.60765  0.72265  0.67600  1.0000
  H   H4662     1.0  0.59997  0.70118  0.70803  1.0000
  H   H4663     1.0  0.66572  0.72094  0.83347  1.0000
  C   C2720     1.0  0.72062  0.60153  0.73972  1.0000
  H   H4664     1.0  0.72748  0.55955  0.66950  1.0000
  C   C2721     1.0  0.71638  0.69655  0.50594  1.0000
  C   C2722     1.0  0.62329  0.52003  0.77538  1.0000
  H   H4665     1.0  0.67283  0.69858  0.85614  1.0000
  N   N197      1.0  0.60868  0.52501  0.75128  1.0000
  C   C2723     1.0  0.60828  0.53528  0.73400  1.0000
  C   C2724     1.0  0.59157  0.52917  0.76208  1.0000
  C   C2725     1.0  0.61317  0.50667  0.75152  1.0000
  C   C2726     1.0  0.62166  0.52902  0.75745  1.0000
  C   C2727     1.0  0.62423  0.53179  0.72059  1.0000
  C   C2728     1.0  0.58679  0.54630  0.76678  1.0000
  H   H4666     1.0  0.61228  0.51518  0.78312  1.0000
  H   H4667     1.0  0.50769  0.64154  0.71249  1.0000
  H   H4668     1.0  0.59778  0.53390  0.72958  1.0000
  H   H4669     1.0  0.60576  0.54875  0.73387  1.0000
  H   H4670     1.0  0.58982  0.51961  0.77379  1.0000
  H   H4671     1.0  0.58183  0.52896  0.75588  1.0000
  H   H4672     1.0  0.62636  0.50282  0.74524  1.0000
  H   H4673     1.0  0.61240  0.49922  0.76445  1.0000
  H   H4674     1.0  0.63422  0.52563  0.74955  1.0000
  H   H4675     1.0  0.61982  0.54266  0.75618  1.0000
  H   H4676     1.0  0.62761  0.51874  0.71916  1.0000
  H   H4677     1.0  0.62206  0.53979  0.70848  1.0000
  H   H4678     1.0  0.63485  0.53515  0.72292  1.0000
  H   H4679     1.0  0.57362  0.54846  0.77365  1.0000
  H   H4680     1.0  0.59436  0.54689  0.77512  1.0000
  H   H4681     1.0  0.58782  0.55668  0.75577  1.0000
  C   C2729     1.0  0.49453  0.71287  0.71635  1.0000
  H   H4682     1.0  0.49134  0.70566  0.72926  1.0000
  C   C2730     1.0  0.69915  0.70905  0.83248  1.0000
  H   H4683     1.0  0.50176  0.63892  0.75254  1.0000
  Fe  Fe392     1.0  0.73605  0.60106  0.80774  1.0000
  H   H4684     1.0  0.50502  0.72627  0.76835  1.0000
  C   C2731     1.0  0.72862  0.68481  0.49821  1.0000
  C   C2732     1.0  0.65544  0.48785  0.72419  1.0000
  H   H4685     1.0  0.62123  0.62934  0.82148  1.0000
  H   H4686     1.0  0.63412  0.64870  0.85893  1.0000
  C   C2733     1.0  0.69352  0.50607  0.69166  1.0000
  H   H4687     1.0  0.63689  0.65417  0.79198  1.0000
  H   H4688     1.0  0.73745  0.58670  0.75497  1.0000
  C   C2734     1.0  0.73147  0.54923  0.67913  1.0000
  H   H4689     1.0  0.72492  0.50297  0.69890  1.0000
  H   H4690     1.0  0.69286  0.72608  0.87627  1.0000
  C   C2735     1.0  0.64909  0.67891  0.79253  1.0000
  H   H4691     1.0  0.71866  0.61375  0.73107  1.0000
  C   C2736     1.0  0.67153  0.69243  0.49448  1.0000
  N   N198      1.0  0.67539  0.72380  0.85309  1.0000
  C   C2737     1.0  0.50200  0.68089  0.80506  1.0000
  H   H4692     1.0  0.67089  0.61766  0.81431  1.0000
  C   C2738     1.0  0.53312  0.69934  0.69591  1.0000
  Fe  Fe393     1.0  0.63766  0.71963  0.81271  1.0000
  H   H4693     1.0  0.50669  0.65907  0.69561  1.0000
  H   H4694     1.0  0.66769  0.62429  0.83286  1.0000
  H   H4695     1.0  0.50113  0.67872  0.81861  1.0000
  H   H4696     1.0  0.53960  0.72091  0.71961  1.0000
  H   H4697     1.0  0.71279  0.70750  0.82756  1.0000
  H   H4698     1.0  0.71271  0.63100  0.75392  1.0000
  S   S794      1.0  0.67325  0.50002  0.75769  1.0000
  H   H4699     1.0  0.73483  0.71065  0.55502  1.0000
  H   H4700     1.0  0.54395  0.72774  0.68140  1.0000
  C   C2739     1.0  0.71849  0.48784  0.67798  1.0000
  H   H4701     1.0  0.54093  0.69464  0.70524  1.0000
  H   H4702     1.0  0.62502  0.52884  0.78182  1.0000
  H   H4703     1.0  0.57210  0.71731  0.77573  1.0000
  H   H4704     1.0  0.69325  0.71461  0.82168  1.0000
  C   C2740     1.0  0.49904  0.65228  0.70652  1.0000
  H   H4705     1.0  0.61538  0.72816  0.74257  1.0000
  H   H4706     1.0  0.49380  0.70520  0.70826  1.0000
  H   H4707     1.0  0.70838  0.52474  0.68892  1.0000
  C   C2741     1.0  0.51385  0.71457  0.76602  1.0000
  C   C2742     1.0  0.51427  0.72323  0.68265  1.0000
  H   H4708     1.0  0.52332  0.72220  0.67070  1.0000
  C   C2743     1.0  0.50311  0.72664  0.80089  1.0000
  N   N199      1.0  0.64100  0.65397  0.81583  1.0000
  C   C2744     1.0  0.66609  0.48917  0.74715  1.0000
  C   C2745     1.0  0.63207  0.65055  0.83379  1.0000
  C   C2746     1.0  0.63084  0.65132  0.80534  1.0000
  C   C2747     1.0  0.65858  0.64378  0.81271  1.0000
  H   H4709     1.0  0.51369  0.72848  0.79030  1.0000
  C   C2748     1.0  0.62775  0.63370  0.80858  1.0000
  C   C2749     1.0  0.66169  0.62551  0.82252  1.0000
  H   H4710     1.0  0.59018  0.70991  0.65965  1.0000
  H   H4711     1.0  0.51783  0.70889  0.72346  1.0000
  H   H4712     1.0  0.63049  0.63757  0.83836  1.0000
  H   H4713     1.0  0.61912  0.65816  0.83537  1.0000
  H   H4714     1.0  0.73246  0.55685  0.78044  1.0000
  H   H4715     1.0  0.58908  0.50297  0.75017  1.0000
  H   H4716     1.0  0.66323  0.64365  0.79931  1.0000
  H   H4717     1.0  0.66709  0.64974  0.81576  1.0000
  C   C2750     1.0  0.54671  0.72262  0.70659  1.0000
  C   C2751     1.0  0.73858  0.62830  0.73925  1.0000
  H   H4718     1.0  0.52661  0.71490  0.76623  1.0000
  C   C2752     1.0  0.60238  0.50050  0.74379  1.0000
  H   H4719     1.0  0.51558  0.68815  0.77306  1.0000
  S   S795      1.0  0.73224  0.60422  0.83377  1.0000
  H   H4720     1.0  0.65069  0.61987  0.82736  1.0000
  H   H4721     1.0  0.70268  0.48678  0.73048  1.0000
  H   H4722     1.0  0.61948  0.63391  0.80055  1.0000
  H   H4723     1.0  0.51112  0.66990  0.80103  1.0000
  H   H4724     1.0  0.70807  0.60005  0.74728  1.0000
  H   H4725     1.0  0.65365  0.64805  0.84440  1.0000
  H   H4726     1.0  0.64373  0.71316  0.86517  1.0000
  C   C2753     1.0  0.64024  0.65394  0.84608  1.0000
  H   H4727     1.0  0.53369  0.68379  0.79195  1.0000
  H   H4728     1.0  0.65128  0.49397  0.71280  1.0000
  H   H4729     1.0  0.63846  0.66747  0.84513  1.0000
  H   H4730     1.0  0.65072  0.69170  0.79107  1.0000
  H   H4731     1.0  0.50546  0.71563  0.68329  1.0000
  C   C2754     1.0  0.73263  0.49742  0.66988  1.0000
  C   C2755     1.0  0.51164  0.71728  0.71349  1.0000
  H   H4732     1.0  0.71701  0.49922  0.72832  1.0000
  C   C2756     1.0  0.73469  0.66922  0.50754  1.0000
  H   H4733     1.0  0.72565  0.59166  0.73245  1.0000
  C   C2757     1.0  0.49528  0.67223  0.66824  1.0000
  H   H4734     1.0  0.72841  0.51100  0.66878  1.0000
  H   H4735     1.0  0.69851  0.50877  0.72080  1.0000
  H   H4736     1.0  0.54056  0.69118  0.81554  1.0000
  H   H4737     1.0  0.71085  0.49031  0.66862  1.0000
  H   H4738     1.0  0.49309  0.66015  0.71578  1.0000
  C   C2758     1.0  0.66507  0.73060  0.84010  1.0000
  H   H4739     1.0  0.50656  0.72673  0.81240  1.0000
  C   C2759     1.0  0.71787  0.49310  0.70513  1.0000
  H   H4740     1.0  0.73356  0.68784  0.48499  1.0000
  H   H4741     1.0  0.55649  0.71135  0.70481  1.0000
  C   C2760     1.0  0.64008  0.72340  0.48680  1.0000
  S   S796      1.0  0.73746  0.57824  0.79849  1.0000
  H   H4742     1.0  0.72503  0.72271  0.52212  1.0000
  H   H4743     1.0  0.73819  0.49528  0.65714  1.0000
  H   H4744     1.0  0.57444  0.72807  0.59482  1.0000
  C   C2761     1.0  0.49621  0.71100  0.80322  1.0000
  H   H4745     1.0  0.49324  0.63573  0.69523  1.0000
  H   H4746     1.0  0.49452  0.67987  0.65560  1.0000
  H   H4747     1.0  0.49513  0.70054  0.77619  1.0000
  C   C2762     1.0  0.53552  0.72750  0.69391  1.0000
  H   H4748     1.0  0.73207  0.71951  0.93947  1.0000
  H   H4749     1.0  0.50888  0.73001  0.71589  1.0000
  H   H4750     1.0  0.69099  0.70122  0.47571  1.0000
  H   H4751     1.0  0.73740  0.72939  0.95706  1.0000
  C   C2763     1.0  0.67923  0.73091  0.87900  1.0000
  H   H4752     1.0  0.62642  0.73217  0.58432  1.0000
  H   H4753     1.0  0.73989  0.67441  0.55629  1.0000
  Fe  Fe394     1.0  0.61215  0.73238  0.84096  1.0000
  H   H4754     1.0  0.69824  0.73185  0.83925  1.0000
  S   S797      1.0  0.73979  0.64227  0.81661  1.0000
  H   H4755     1.0  0.63255  0.77748  0.04099  1.0000
  C   C2764     1.0  0.55372  0.75311  0.19684  1.0000
  Fe  Fe395     1.0  0.55986  0.74191  0.28702  1.0000
  H   H4756     1.0  0.59918  0.78806  0.22220  1.0000
  S   S798      1.0  0.56083  0.76741  0.27096  1.0000
  H   H4757     1.0  0.66879  0.79528  0.13621  1.0000
  H   H4758     1.0  0.68466  0.75100  0.01749  1.0000
  C   C2765     1.0  0.73322  0.78776  0.22980  1.0000
  C   C2766     1.0  0.72144  0.93112  0.16027  1.0000
  H   H4759     1.0  0.72062  0.86773  0.15567  1.0000
  H   H4760     1.0  0.64252  0.82170  0.42720  1.0000
  H   H4761     1.0  0.71944  0.90014  0.19173  1.0000
  H   H4762     1.0  0.56655  0.75038  0.18932  1.0000
  S   S799      1.0  0.69308  0.76072  0.36129  1.0000
  C   C2767     1.0  0.72551  0.74913  0.31178  1.0000
  Fe  Fe396     1.0  0.70465  0.81832  0.03896  1.0000
  C   C2768     1.0  0.62658  0.80594  0.13960  1.0000
  S   S800      1.0  0.69820  0.83242  0.05955  1.0000
  S   S801      1.0  0.71622  0.78638  0.01051  1.0000
  Fe  Fe397     1.0  0.69797  0.78650  0.03484  1.0000
  S   S802      1.0  0.68558  0.76474  0.04618  1.0000
  S   S803      1.0  0.68560  0.81342  0.02828  1.0000
  Fe  Fe398     1.0  0.72424  0.91702  0.11003  1.0000
  C   C2769     1.0  0.72489  0.85544  0.18013  1.0000
  Fe  Fe399     1.0  0.70569  0.88866  0.12476  1.0000
  S   S804      1.0  0.72318  0.82107  0.01463  1.0000
  S   S805      1.0  0.68111  0.88097  0.13461  1.0000
  S   S806      1.0  0.73192  0.80048  0.27846  1.0000
  S   S807      1.0  0.64459  0.76417  0.38130  1.0000
  Fe  Fe400     1.0  0.64439  0.74896  0.40716  1.0000
  H   H4763     1.0  0.70968  0.92998  0.16953  1.0000
  S   S808      1.0  0.71801  0.90166  0.13572  1.0000
  S   S809      1.0  0.70963  0.90563  0.09970  1.0000
  Fe  Fe401     1.0  0.63780  0.80055  0.24312  1.0000
  S   S810      1.0  0.64568  0.78179  0.22731  1.0000
  S   S811      1.0  0.62390  0.79298  0.26929  1.0000
  Fe  Fe402     1.0  0.65602  0.82518  0.21670  1.0000
  S   S812      1.0  0.66549  0.80835  0.19870  1.0000
  S   S813      1.0  0.66341  0.84972  0.21129  1.0000
  Fe  Fe403     1.0  0.63970  0.80360  0.20691  1.0000
  S   S814      1.0  0.62499  0.80229  0.18964  1.0000
  Fe  Fe404     1.0  0.67054  0.78825  0.22086  1.0000
  S   S815      1.0  0.69369  0.76820  0.21946  1.0000
  S   S816      1.0  0.62962  0.82209  0.22328  1.0000
  S   S817      1.0  0.66330  0.80543  0.23831  1.0000
  C   C2770     1.0  0.70688  0.83733  0.19929  1.0000
  H   H4764     1.0  0.59703  0.77292  0.21264  1.0000
  H   H4765     1.0  0.58318  0.74992  0.23468  1.0000
  Fe  Fe405     1.0  0.61779  0.75469  0.11996  1.0000
  H   H4766     1.0  0.62048  0.77166  0.32167  1.0000
  S   S818      1.0  0.62133  0.77879  0.10216  1.0000
  C   C2771     1.0  0.65495  0.81901  0.14092  1.0000
  H   H4767     1.0  0.70387  0.79143  0.98022  1.0000
  H   H4768     1.0  0.68174  0.77571  0.99504  1.0000
  H   H4769     1.0  0.65249  0.76276  0.99156  1.0000
  H   H4770     1.0  0.62619  0.74874  0.31268  1.0000
  S   S819      1.0  0.60542  0.75440  0.14659  1.0000
  Fe  Fe406     1.0  0.70830  0.81985  0.28066  1.0000
  C   C2772     1.0  0.60947  0.73820  0.35326  1.0000
  S   S820      1.0  0.68394  0.81362  0.29539  1.0000
  Fe  Fe407     1.0  0.72482  0.84745  0.25774  1.0000
  H   H4771     1.0  0.70127  0.83782  0.18899  1.0000
  S   S821      1.0  0.71797  0.87408  0.24447  1.0000
  H   H4772     1.0  0.69871  0.84777  0.20503  1.0000
  H   H4773     1.0  0.67339  0.78033  0.01467  1.0000
  H   H4774     1.0  0.73140  0.74183  0.30212  1.0000
  C   C2773     1.0  0.73179  0.97510  0.12857  1.0000
  S   S822      1.0  0.71175  0.83021  0.25337  1.0000
  S   S823      1.0  0.71906  0.83866  0.28546  1.0000
  H   H4775     1.0  0.65750  0.82666  0.12819  1.0000
  H   H4776     1.0  0.58697  0.74547  0.25491  1.0000
  C   C2774     1.0  0.65482  0.80165  0.99300  1.0000
  Fe  Fe408     1.0  0.62739  0.73418  0.15211  1.0000
  C   C2775     1.0  0.62953  0.78234  0.18584  1.0000
  C   C2776     1.0  0.64499  0.77165  0.18693  1.0000
  C   C2777     1.0  0.64877  0.75615  0.18261  1.0000
  C   C2778     1.0  0.63699  0.75135  0.17743  1.0000
  C   C2779     1.0  0.62125  0.76167  0.17733  1.0000
  C   C2780     1.0  0.61763  0.77727  0.18119  1.0000
  H   H4777     1.0  0.65421  0.77552  0.19060  1.0000
  H   H4778     1.0  0.66091  0.74809  0.18297  1.0000
  H   H4779     1.0  0.61176  0.75760  0.17445  1.0000
  H   H4780     1.0  0.60556  0.78542  0.18063  1.0000
  C   C2781     1.0  0.70923  0.77441  0.22441  1.0000
  C   C2782     1.0  0.70560  0.78189  0.23792  1.0000
  C   C2783     1.0  0.71766  0.78844  0.24072  1.0000
  H   H4781     1.0  0.71995  0.73955  0.05793  1.0000
  C   C2784     1.0  0.68198  0.74480  0.31388  1.0000
  C   C2785     1.0  0.72514  0.77281  0.21413  1.0000
  H   H4782     1.0  0.69346  0.78277  0.24613  1.0000
  H   H4783     1.0  0.71468  0.79453  0.25096  1.0000
  C   C2786     1.0  0.63905  0.78588  0.03039  1.0000
  H   H4784     1.0  0.56154  0.73514  0.22766  1.0000
  C   C2787     1.0  0.67622  0.87255  0.15596  1.0000
  C   C2788     1.0  0.68143  0.87802  0.16721  1.0000
  C   C2789     1.0  0.67705  0.87130  0.18426  1.0000
  C   C2790     1.0  0.66784  0.85880  0.19004  1.0000
  C   C2791     1.0  0.66263  0.85337  0.17878  1.0000
  C   C2792     1.0  0.66666  0.86037  0.16179  1.0000
  H   H4785     1.0  0.68858  0.88762  0.16278  1.0000
  H   H4786     1.0  0.68093  0.87567  0.19296  1.0000
  H   H4787     1.0  0.65527  0.84396  0.18317  1.0000
  H   H4788     1.0  0.66246  0.85624  0.15314  1.0000
  C   C2793     1.0  0.63884  0.77502  0.08623  1.0000
  C   C2794     1.0  0.64686  0.78794  0.07695  1.0000
  C   C2795     1.0  0.66139  0.78480  0.06479  1.0000
  C   C2796     1.0  0.66763  0.76885  0.06156  1.0000
  C   C2797     1.0  0.65939  0.75602  0.07056  1.0000
  C   C2798     1.0  0.64509  0.75907  0.08299  1.0000
  H   H4789     1.0  0.64195  0.80034  0.07926  1.0000
  H   H4790     1.0  0.66769  0.79475  0.05791  1.0000
  H   H4791     1.0  0.66405  0.74371  0.06797  1.0000
  H   H4792     1.0  0.63876  0.74911  0.08989  1.0000
  C   C2799     1.0  0.71170  0.84346  0.06203  1.0000
  H   H4793     1.0  0.72796  0.76698  0.20372  1.0000
  H   H4794     1.0  0.64641  0.75756  0.33206  1.0000
  H   H4795     1.0  0.73163  0.75892  0.32892  1.0000
  S   S824      1.0  0.69872  0.82677  0.97949  1.0000
  C   C2800     1.0  0.72126  0.85249  0.04842  1.0000
  C   C2801     1.0  0.53575  0.73527  0.23942  1.0000
  H   H4796     1.0  0.71380  0.90240  0.21264  1.0000
  H   H4797     1.0  0.73544  0.90665  0.16802  1.0000
  C   C2802     1.0  0.72455  0.92305  0.19583  1.0000
  H   H4798     1.0  0.64114  0.76313  0.28760  1.0000
  C   C2803     1.0  0.72608  0.90344  0.24162  1.0000
  H   H4799     1.0  0.62778  0.78597  0.98506  1.0000
  C   C2804     1.0  0.65421  0.77576  0.98662  1.0000
  H   H4800     1.0  0.53199  0.74279  0.20634  1.0000
  H   H4801     1.0  0.71281  0.90813  0.24504  1.0000
  H   H4802     1.0  0.65789  0.76998  0.31559  1.0000
  C   C2805     1.0  0.68994  0.77606  0.34353  1.0000
  C   C2806     1.0  0.70258  0.78457  0.33460  1.0000
  C   C2807     1.0  0.70075  0.79623  0.31983  1.0000
  C   C2808     1.0  0.68607  0.79972  0.31423  1.0000
  C   C2809     1.0  0.67307  0.79184  0.32361  1.0000
  C   C2810     1.0  0.67508  0.77982  0.33816  1.0000
  H   H4803     1.0  0.71382  0.78214  0.33906  1.0000
  H   H4804     1.0  0.71065  0.80262  0.31286  1.0000
  H   H4805     1.0  0.66157  0.79490  0.31946  1.0000
  H   H4806     1.0  0.66520  0.77340  0.34515  1.0000
  C   C2811     1.0  0.57759  0.77514  0.27158  1.0000
  C   C2812     1.0  0.58791  0.76656  0.28268  1.0000
  C   C2813     1.0  0.60190  0.77235  0.28223  1.0000
  C   C2814     1.0  0.60589  0.78639  0.27033  1.0000
  C   C2815     1.0  0.59555  0.79500  0.25928  1.0000
  C   C2816     1.0  0.58120  0.78959  0.26016  1.0000
  H   H4807     1.0  0.58503  0.75555  0.29171  1.0000
  H   H4808     1.0  0.60973  0.76579  0.29095  1.0000
  H   H4809     1.0  0.59849  0.80593  0.25016  1.0000
  H   H4810     1.0  0.57314  0.79636  0.25169  1.0000
  H   H4811     1.0  0.65282  0.79426  0.15439  1.0000
  H   H4812     1.0  0.64297  0.82479  0.14826  1.0000
  H   H4813     1.0  0.65765  0.74657  0.28368  1.0000
  H   H4814     1.0  0.53792  0.74354  0.24620  1.0000
  H   H4815     1.0  0.66473  0.81927  0.14702  1.0000
  H   H4816     1.0  0.62403  0.80183  0.15334  1.0000
  H   H4817     1.0  0.63205  0.79887  0.03049  1.0000
  S   S825      1.0  0.72004  0.94504  0.10632  1.0000
  C   C2817     1.0  0.66837  0.77213  0.44505  1.0000
  C   C2818     1.0  0.66063  0.76610  0.43608  1.0000
  C   C2819     1.0  0.64374  0.76565  0.44157  1.0000
  H   H4818     1.0  0.70599  0.82119  0.22424  1.0000
  H   H4819     1.0  0.62111  0.76564  0.22798  1.0000
  H   H4820     1.0  0.68126  0.77304  0.44048  1.0000
  H   H4821     1.0  0.66763  0.76203  0.42485  1.0000
  H   H4822     1.0  0.64204  0.80878  0.99187  1.0000
  H   H4823     1.0  0.55364  0.75757  0.20780  1.0000
  N   N200      1.0  0.64412  0.79799  0.13206  1.0000
  C   C2820     1.0  0.64516  0.77955  0.13448  1.0000
  C   C2821     1.0  0.64767  0.80610  0.11388  1.0000
  C   C2822     1.0  0.61250  0.80266  0.13372  1.0000
  C   C2823     1.0  0.66200  0.76760  0.13647  1.0000
  C   C2824     1.0  0.66535  0.80059  0.10389  1.0000
  H   H4824     1.0  0.64144  0.77695  0.12419  1.0000
  H   H4825     1.0  0.63920  0.80364  0.10752  1.0000
  H   H4826     1.0  0.64507  0.81985  0.11210  1.0000
  H   H4827     1.0  0.61265  0.78926  0.13598  1.0000
  H   H4828     1.0  0.71233  0.80997  0.20766  1.0000
  H   H4829     1.0  0.61276  0.80840  0.12044  1.0000
  H   H4830     1.0  0.66127  0.75486  0.13642  1.0000
  H   H4831     1.0  0.66469  0.76688  0.14859  1.0000
  H   H4832     1.0  0.67257  0.77096  0.12647  1.0000
  H   H4833     1.0  0.67502  0.80286  0.10878  1.0000
  H   H4834     1.0  0.66639  0.80798  0.09094  1.0000
  H   H4835     1.0  0.66788  0.78740  0.10312  1.0000
  N   N201      1.0  0.64676  0.84790  0.26881  1.0000
  C   C2825     1.0  0.64033  0.83238  0.27125  1.0000
  C   C2826     1.0  0.63396  0.86243  0.26218  1.0000
  C   C2827     1.0  0.64763  0.84938  0.28562  1.0000
  C   C2828     1.0  0.66368  0.84618  0.25724  1.0000
  C   C2829     1.0  0.65075  0.81580  0.27915  1.0000
  C   C2830     1.0  0.63284  0.86414  0.24418  1.0000
  C   C2831     1.0  0.65502  0.86367  0.28619  1.0000
  C   C2832     1.0  0.67056  0.86219  0.24903  1.0000
  H   H4836     1.0  0.62746  0.83345  0.27906  1.0000
  H   H4837     1.0  0.63941  0.83057  0.25925  1.0000
  H   H4838     1.0  0.63583  0.87449  0.26281  1.0000
  H   H4839     1.0  0.62132  0.86182  0.27013  1.0000
  H   H4840     1.0  0.63503  0.85045  0.29398  1.0000
  H   H4841     1.0  0.65547  0.83807  0.29171  1.0000
  H   H4842     1.0  0.67313  0.83725  0.26384  1.0000
  H   H4843     1.0  0.66380  0.84049  0.24699  1.0000
  H   H4844     1.0  0.64969  0.81468  0.29253  1.0000
  H   H4845     1.0  0.64585  0.80541  0.27844  1.0000
  H   H4846     1.0  0.66397  0.81364  0.27254  1.0000
  H   H4847     1.0  0.62197  0.87416  0.24137  1.0000
  H   H4848     1.0  0.64392  0.86796  0.23528  1.0000
  H   H4849     1.0  0.63107  0.85274  0.24181  1.0000
  H   H4850     1.0  0.65369  0.86383  0.29937  1.0000
  H   H4851     1.0  0.64865  0.87612  0.28038  1.0000
  H   H4852     1.0  0.66857  0.86152  0.28076  1.0000
  H   H4853     1.0  0.68231  0.86110  0.25276  1.0000
  H   H4854     1.0  0.66208  0.87379  0.25190  1.0000
  H   H4855     1.0  0.67376  0.86376  0.23533  1.0000
  N   N202      1.0  0.65886  0.80496  0.39145  1.0000
  C   C2833     1.0  0.65398  0.80578  0.40956  1.0000
  C   C2834     1.0  0.66835  0.78743  0.39067  1.0000
  C   C2835     1.0  0.64299  0.80817  0.38555  1.0000
  C   C2836     1.0  0.66898  0.81787  0.38195  1.0000
  C   C2837     1.0  0.64369  0.82253  0.41380  1.0000
  C   C2838     1.0  0.68572  0.78251  0.39485  1.0000
  C   C2839     1.0  0.64469  0.80870  0.36710  1.0000
  C   C2840     1.0  0.67941  0.81600  0.36440  1.0000
  H   H4856     1.0  0.64663  0.79621  0.41693  1.0000
  H   H4857     1.0  0.66512  0.80291  0.41491  1.0000
  H   H4858     1.0  0.67018  0.78472  0.37841  1.0000
  H   H4859     1.0  0.66097  0.77833  0.39917  1.0000
  H   H4860     1.0  0.63560  0.79864  0.39299  1.0000
  H   H4861     1.0  0.63495  0.82038  0.38746  1.0000
  H   H4862     1.0  0.66074  0.83050  0.38050  1.0000
  H   H4863     1.0  0.67781  0.81822  0.38920  1.0000
  H   H4864     1.0  0.64975  0.83307  0.40692  1.0000
  H   H4865     1.0  0.69133  0.76944  0.39368  1.0000
  H   H4866     1.0  0.69431  0.79019  0.38612  1.0000
  H   H4867     1.0  0.68525  0.78292  0.40772  1.0000
  H   H4868     1.0  0.64909  0.81988  0.35900  1.0000
  H   H4869     1.0  0.63218  0.80967  0.36502  1.0000
  H   H4870     1.0  0.65266  0.79738  0.36304  1.0000
  H   H4871     1.0  0.60580  0.74554  0.21134  1.0000
  S   S826      1.0  0.60478  0.73620  0.11774  1.0000
  H   H4872     1.0  0.70411  0.83764  0.08865  1.0000
  N   N203      1.0  0.72452  0.83980  0.19350  1.0000
  C   C2841     1.0  0.59180  0.73585  0.33626  1.0000
  H   H4873     1.0  0.66278  0.75392  0.02548  1.0000
  H   H4874     1.0  0.73450  0.94935  0.17264  1.0000
  H   H4875     1.0  0.58337  0.74175  0.32797  1.0000
  C   C2842     1.0  0.66795  0.73763  0.31225  1.0000
  H   H4876     1.0  0.63802  0.76818  0.01718  1.0000
  S   S827      1.0  0.61857  0.75109  0.35958  1.0000
  C   C2843     1.0  0.72167  0.85500  0.16352  1.0000
  C   C2844     1.0  0.65953  0.77684  0.46002  1.0000
  N   N204      1.0  0.60926  0.74459  0.23562  1.0000
  H   H4877     1.0  0.67849  0.80527  0.36021  1.0000
  C   C2845     1.0  0.63495  0.77037  0.45652  1.0000
  C   C2846     1.0  0.72949  0.86445  0.06693  1.0000
  H   H4878     1.0  0.68517  0.75510  0.30342  1.0000
  C   C2847     1.0  0.59851  0.74563  0.34244  1.0000
  C   C2848     1.0  0.73679  0.91949  0.16651  1.0000
  H   H4879     1.0  0.64790  0.73502  0.46118  1.0000
  H   H4880     1.0  0.72241  0.94431  0.15630  1.0000
  C   C2849     1.0  0.72046  0.85489  0.08053  1.0000
  N   N205      1.0  0.65492  0.78341  0.00025  1.0000
  H   H4881     1.0  0.71569  0.93526  0.19355  1.0000
  S   S828      1.0  0.67110  0.73627  0.40140  1.0000
  C   C2850     1.0  0.63984  0.78117  0.01405  1.0000
  H   H4882     1.0  0.60610  0.76535  0.24683  1.0000
  H   H4883     1.0  0.71571  0.86616  0.18464  1.0000
  H   H4884     1.0  0.66600  0.77698  0.28929  1.0000
  H   H4885     1.0  0.63618  0.77506  0.14585  1.0000
  H   H4886     1.0  0.72656  0.79391  0.07620  1.0000
  S   S829      1.0  0.63299  0.75931  0.43035  1.0000
  H   H4887     1.0  0.66617  0.77498  0.97720  1.0000
  C   C2851     1.0  0.65560  0.80077  0.14111  1.0000
  H   H4888     1.0  0.62480  0.81970  0.13699  1.0000
  H   H4889     1.0  0.68340  0.74133  0.46332  1.0000
  N   N206      1.0  0.67380  0.89043  0.07715  1.0000
  C   C2852     1.0  0.67791  0.90737  0.06983  1.0000
  C   C2853     1.0  0.65517  0.89242  0.08179  1.0000
  C   C2854     1.0  0.68100  0.87933  0.06486  1.0000
  C   C2855     1.0  0.68125  0.88264  0.09219  1.0000
  C   C2856     1.0  0.69628  0.90753  0.06114  1.0000
  C   C2857     1.0  0.64598  0.90218  0.09553  1.0000
  C   C2858     1.0  0.67512  0.88561  0.04838  1.0000
  C   C2859     1.0  0.67596  0.86642  0.10305  1.0000
  H   H4890     1.0  0.67017  0.91489  0.06076  1.0000
  H   H4891     1.0  0.67481  0.91465  0.07961  1.0000
  H   H4892     1.0  0.65164  0.88010  0.08568  1.0000
  H   H4893     1.0  0.64962  0.89911  0.07087  1.0000
  H   H4894     1.0  0.69478  0.87701  0.06185  1.0000
  H   H4895     1.0  0.67812  0.86680  0.07011  1.0000
  H   H4896     1.0  0.69503  0.87992  0.08859  1.0000
  H   H4897     1.0  0.67801  0.89163  0.10038  1.0000
  H   H4898     1.0  0.69817  0.92044  0.05815  1.0000
  H   H4899     1.0  0.70501  0.89978  0.06906  1.0000
  H   H4900     1.0  0.69980  0.90338  0.04928  1.0000
  H   H4901     1.0  0.64776  0.91514  0.09188  1.0000
  H   H4902     1.0  0.63241  0.90288  0.09777  1.0000
  H   H4903     1.0  0.64968  0.89602  0.10750  1.0000
  H   H4904     1.0  0.66188  0.88525  0.05021  1.0000
  H   H4905     1.0  0.68244  0.87710  0.03996  1.0000
  H   H4906     1.0  0.67711  0.89825  0.04193  1.0000
  H   H4907     1.0  0.68667  0.85813  0.10819  1.0000
  H   H4908     1.0  0.67196  0.85922  0.09656  1.0000
  H   H4909     1.0  0.66609  0.86906  0.11405  1.0000
  S   S830      1.0  0.72847  0.86913  0.11857  1.0000
  H   H4910     1.0  0.54660  0.76355  0.18888  1.0000
  H   H4911     1.0  0.60033  0.80842  0.14081  1.0000
  C   C2860     1.0  0.64285  0.77571  0.46582  1.0000
  H   H4912     1.0  0.71582  0.75923  0.30655  1.0000
  C   C2861     1.0  0.67242  0.75595  0.01392  1.0000
  C   C2862     1.0  0.67098  0.77459  0.00574  1.0000
  S   S831      1.0  0.54873  0.73606  0.31434  1.0000
  H   H4913     1.0  0.59520  0.75904  0.33876  1.0000
  H   H4914     1.0  0.52703  0.74345  0.23174  1.0000
  C   C2863     1.0  0.61578  0.74094  0.21852  1.0000
  H   H4915     1.0  0.67844  0.76137  0.27770  1.0000
  C   C2864     1.0  0.72354  0.96848  0.12066  1.0000
  C   C2865     1.0  0.65351  0.75680  0.29051  1.0000
  H   H4916     1.0  0.65128  0.78432  0.03318  1.0000
  H   H4917     1.0  0.67497  0.80624  0.00122  1.0000
  H   H4918     1.0  0.62564  0.74796  0.21156  1.0000
  H   H4919     1.0  0.66253  0.80341  0.98013  1.0000
  H   H4920     1.0  0.58336  0.77650  0.23213  1.0000
  H   H4921     1.0  0.69340  0.73480  0.31427  1.0000
  H   H4922     1.0  0.69128  0.81996  0.21383  1.0000
  H   H4923     1.0  0.63087  0.78637  0.32304  1.0000
  H   H4924     1.0  0.72030  0.85357  0.21265  1.0000
  H   H4925     1.0  0.63811  0.74912  0.24594  1.0000
  C   C2866     1.0  0.70428  0.82113  0.21197  1.0000
  H   H4926     1.0  0.63080  0.82522  0.41202  1.0000
  H   H4927     1.0  0.73202  0.92713  0.23839  1.0000
  C   C2867     1.0  0.66140  0.81082  0.00210  1.0000
  H   H4928     1.0  0.72045  0.92766  0.14913  1.0000
  N   N207      1.0  0.65212  0.74983  0.30884  1.0000
  Fe  Fe409     1.0  0.73251  0.79354  0.02256  1.0000
  H   H4929     1.0  0.71914  0.74133  0.32306  1.0000
  C   C2868     1.0  0.62009  0.73445  0.24765  1.0000
  H   H4930     1.0  0.65486  0.81014  0.01518  1.0000
  H   H4931     1.0  0.63226  0.78297  0.30309  1.0000
  C   C2869     1.0  0.64779  0.76323  0.31856  1.0000
  H   H4932     1.0  0.67564  0.82733  0.35503  1.0000
  H   H4933     1.0  0.71945  0.82208  0.17387  1.0000
  Fe  Fe410     1.0  0.59471  0.73384  0.14513  1.0000
  C   C2870     1.0  0.66568  0.76851  0.28181  1.0000
  Fe  Fe411     1.0  0.67079  0.74981  0.37519  1.0000
  S   S832      1.0  0.71521  0.79124  0.04744  1.0000
  C   C2871     1.0  0.71149  0.84457  0.07807  1.0000
  Fe  Fe412     1.0  0.70517  0.81367  0.00450  1.0000
  C   C2872     1.0  0.73227  0.88665  0.24106  1.0000
  H   H4934     1.0  0.62831  0.78868  0.00990  1.0000
  C   C2873     1.0  0.73189  0.81662  0.17663  1.0000
  H   H4935     1.0  0.65966  0.82420  0.99585  1.0000
  C   C2874     1.0  0.60878  0.76266  0.23432  1.0000
  C   C2875     1.0  0.54540  0.73808  0.20163  1.0000
  H   H4936     1.0  0.67205  0.74854  0.00537  1.0000
  H   H4937     1.0  0.70996  0.85130  0.16462  1.0000
  H   H4938     1.0  0.69279  0.81494  0.36377  1.0000
  C   C2876     1.0  0.71447  0.90939  0.19959  1.0000
  Fe  Fe413     1.0  0.63736  0.74293  0.37616  1.0000
  H   H4939     1.0  0.70144  0.91517  0.19840  1.0000
  H   H4940     1.0  0.72804  0.92245  0.20753  1.0000
  C   C2877     1.0  0.63820  0.74050  0.31503  1.0000
  H   H4941     1.0  0.72133  0.85191  0.03599  1.0000
  C   C2878     1.0  0.59631  0.77558  0.22471  1.0000
  H   H4942     1.0  0.71196  0.97563  0.11729  1.0000
  Fe  Fe414     1.0  0.73321  0.88674  0.09400  1.0000
  H   H4943     1.0  0.62191  0.76996  0.46093  1.0000
  H   H4944     1.0  0.66143  0.77690  0.27069  1.0000
  C   C2879     1.0  0.63192  0.77668  0.31626  1.0000
  H   H4945     1.0  0.70006  0.74288  0.09342  1.0000
  S   S833      1.0  0.66881  0.78571  0.47049  1.0000
  C   C2880     1.0  0.73008  0.86300  0.05088  1.0000
  H   H4946     1.0  0.72010  0.85572  0.09295  1.0000
  H   H4947     1.0  0.71724  0.73697  0.03909  1.0000
  C   C2881     1.0  0.73010  0.95257  0.11719  1.0000
  S   S834      1.0  0.64062  0.73595  0.12555  1.0000
  C   C2882     1.0  0.59181  0.74189  0.24269  1.0000
  H   H4948     1.0  0.73049  0.97073  0.07175  1.0000
  H   H4949     1.0  0.73659  0.76998  0.30853  1.0000
  H   H4950     1.0  0.72804  0.83184  0.21870  1.0000
  H   H4951     1.0  0.67873  0.74903  0.32571  1.0000
  H   H4952     1.0  0.69618  0.74016  0.44319  1.0000
  H   H4953     1.0  0.61432  0.73713  0.26024  1.0000
  C   C2883     1.0  0.63797  0.73731  0.24307  1.0000
  H   H4954     1.0  0.64395  0.73739  0.22986  1.0000
  H   H4955     1.0  0.63631  0.73586  0.32868  1.0000
  H   H4956     1.0  0.54593  0.73460  0.18993  1.0000
  C   C2884     1.0  0.73696  0.91420  0.23782  1.0000
  H   H4957     1.0  0.69113  0.73746  0.08022  1.0000
  C   C2885     1.0  0.72910  0.84265  0.20812  1.0000
  H   H4958     1.0  0.73227  0.80326  0.18254  1.0000
  Fe  Fe415     1.0  0.73652  0.81260  0.25155  1.0000
  H   H4959     1.0  0.73233  0.84706  0.15664  1.0000
  H   H4960     1.0  0.65815  0.73804  0.47459  1.0000
  H   H4961     1.0  0.73379  0.80729  0.08381  1.0000
  C   C2886     1.0  0.64038  0.78484  0.97693  1.0000
  H   H4962     1.0  0.73710  0.87030  0.04029  1.0000
  C   C2887     1.0  0.73689  0.82510  0.18775  1.0000
  C   C2888     1.0  0.73798  0.79748  0.07651  1.0000
  H   H4963     1.0  0.73719  0.85879  0.17680  1.0000
  H   H4964     1.0  0.73788  0.81482  0.05337  1.0000
  C   C2889     1.0  0.73709  0.77961  0.21674  1.0000
  C   C2890     1.0  0.73745  0.75705  0.31614  1.0000
  N   N208      1.0  0.73975  0.92250  0.18186  1.0000
  H   H4965     1.0  0.73915  0.94484  0.20181  1.0000
  S   S835      1.0  0.74001  0.87835  0.06958  1.0000
  H   H4966     1.0  0.73999  0.81520  0.19863  1.0000
  H   H4967     1.0  0.74004  0.98139  0.08994  1.0000
  C   C2891     1.0  0.69067  0.73263  0.45518  1.0000
  S   S836      1.0  0.64202  0.73265  0.17083  1.0000
  H   H4968     1.0  0.64882  0.95219  0.85858  1.0000
  C   C2892     1.0  0.72600  0.92809  0.72621  1.0000
  C   C2893     1.0  0.57925  0.76576  0.57117  1.0000
  S   S837      1.0  0.70004  0.76059  0.49723  1.0000
  C   C2894     1.0  0.69514  0.81587  0.96642  1.0000
  Fe  Fe416     1.0  0.66091  0.75036  0.52958  1.0000
  S   S838      1.0  0.66553  0.77635  0.52118  1.0000
  H   H4969     1.0  0.67258  0.90509  0.71744  1.0000
  Fe  Fe417     1.0  0.67330  0.77050  0.49557  1.0000
  Fe  Fe418     1.0  0.69188  0.76378  0.52353  1.0000
  S   S839      1.0  0.70948  0.76821  0.53669  1.0000
  C   C2895     1.0  0.67207  0.73665  0.86325  1.0000
  H   H4970     1.0  0.56105  0.74229  0.57639  1.0000
  Fe  Fe419     1.0  0.59389  0.74455  0.66016  1.0000
  S   S840      1.0  0.56782  0.75425  0.67249  1.0000
  H   H4971     1.0  0.66267  0.93301  0.85831  1.0000
  Fe  Fe420     1.0  0.59173  0.77207  0.62937  1.0000
  S   S841      1.0  0.56535  0.78408  0.63994  1.0000
  S   S842      1.0  0.60431  0.78438  0.60390  1.0000
  Fe  Fe421     1.0  0.57473  0.77922  0.66338  1.0000
  S   S843      1.0  0.56978  0.79357  0.68353  1.0000
  Fe  Fe422     1.0  0.56133  0.75781  0.64802  1.0000
  C   C2896     1.0  0.51648  0.73900  0.63737  1.0000
  S   S844      1.0  0.60122  0.76922  0.65214  1.0000
  H   H4972     1.0  0.66386  0.93289  0.83118  1.0000
  Fe  Fe423     1.0  0.68112  0.94736  0.78161  1.0000
  S   S845      1.0  0.70017  0.92733  0.79325  1.0000
  H   H4973     1.0  0.64295  0.76753  0.60000  1.0000
  Fe  Fe424     1.0  0.67142  0.92263  0.76724  1.0000
  S   S846      1.0  0.68962  0.90093  0.77810  1.0000
  S   S847      1.0  0.65710  0.92092  0.74941  1.0000
  Fe  Fe425     1.0  0.68088  0.91180  0.80082  1.0000
  S   S848      1.0  0.67195  0.89879  0.82727  1.0000
  Fe  Fe426     1.0  0.70699  0.91862  0.76930  1.0000
  H   H4974     1.0  0.68238  0.74380  0.81984  1.0000
  S   S849      1.0  0.66123  0.93236  0.79057  1.0000
  S   S850      1.0  0.68923  0.93981  0.75716  1.0000
  Fe  Fe427     1.0  0.69507  0.80820  0.87390  1.0000
  S   S851      1.0  0.66950  0.81284  0.89028  1.0000
  S   S852      1.0  0.70951  0.82553  0.85387  1.0000
  Fe  Fe428     1.0  0.69950  0.77051  0.88489  1.0000
  S   S853      1.0  0.67430  0.77200  0.90178  1.0000
  S   S854      1.0  0.71510  0.74598  0.87961  1.0000
  Fe  Fe429     1.0  0.66529  0.79216  0.88128  1.0000
  S   S855      1.0  0.64502  0.79524  0.86769  1.0000
  Fe  Fe430     1.0  0.68087  0.79220  0.90954  1.0000
  S   S856      1.0  0.67754  0.78871  0.93748  1.0000
  S   S857      1.0  0.69009  0.78905  0.86386  1.0000
  S   S858      1.0  0.70675  0.78926  0.89368  1.0000
  Fe  Fe431     1.0  0.60594  0.74386  0.80619  1.0000
  H   H4975     1.0  0.70846  0.92470  0.83458  1.0000
  S   S859      1.0  0.59518  0.76433  0.78699  1.0000
  H   H4976     1.0  0.68977  0.92533  0.71820  1.0000
  H   H4977     1.0  0.60934  0.74616  0.75200  1.0000
  S   S860      1.0  0.54199  0.74450  0.64710  1.0000
  H   H4978     1.0  0.59203  0.73261  0.59901  1.0000
  H   H4979     1.0  0.71644  0.90819  0.69924  1.0000
  S   S861      1.0  0.70471  0.83111  0.56461  1.0000
  H   H4980     1.0  0.72408  0.79711  0.57052  1.0000
  H   H4981     1.0  0.51292  0.75028  0.67557  1.0000
  S   S862      1.0  0.71265  0.83877  0.60452  1.0000
  Fe  Fe432     1.0  0.62789  0.84089  0.70119  1.0000
  S   S863      1.0  0.65268  0.82416  0.69461  1.0000
  S   S864      1.0  0.61229  0.84445  0.68254  1.0000
  Fe  Fe433     1.0  0.63671  0.84671  0.73130  1.0000
  S   S865      1.0  0.66185  0.82986  0.72687  1.0000
  S   S866      1.0  0.63155  0.85625  0.75471  1.0000
  Fe  Fe434     1.0  0.66311  0.84270  0.70033  1.0000
  S   S867      1.0  0.68554  0.85227  0.68435  1.0000
  Fe  Fe435     1.0  0.64870  0.81319  0.72172  1.0000
  S   S868      1.0  0.65491  0.78559  0.73085  1.0000
  S   S869      1.0  0.63869  0.86071  0.70477  1.0000
  S   S870      1.0  0.62320  0.82885  0.72830  1.0000
  H   H4982     1.0  0.70832  0.90142  0.72846  1.0000
  H   H4983     1.0  0.49636  0.74398  0.67196  1.0000
  C   C2897     1.0  0.71533  0.81494  0.65256  1.0000
  C   C2898     1.0  0.71660  0.83163  0.64733  1.0000
  C   C2899     1.0  0.70812  0.84286  0.65755  1.0000
  C   C2900     1.0  0.69792  0.83759  0.67283  1.0000
  C   C2901     1.0  0.69684  0.82086  0.67825  1.0000
  C   C2902     1.0  0.70568  0.80949  0.66817  1.0000
  H   H4984     1.0  0.49306  0.73789  0.79890  1.0000
  H   H4985     1.0  0.70893  0.85580  0.65328  1.0000
  H   H4986     1.0  0.68916  0.81666  0.69019  1.0000
  H   H4987     1.0  0.70465  0.79661  0.67229  1.0000
  C   C2903     1.0  0.61158  0.76893  0.77041  1.0000
  C   C2904     1.0  0.60848  0.78174  0.75678  1.0000
  C   C2905     1.0  0.62178  0.78664  0.74432  1.0000
  C   C2906     1.0  0.63815  0.77867  0.74547  1.0000
  C   C2907     1.0  0.64119  0.76529  0.75865  1.0000
  C   C2908     1.0  0.62791  0.76048  0.77116  1.0000
  H   H4988     1.0  0.59582  0.78805  0.75604  1.0000
  H   H4989     1.0  0.61936  0.79641  0.73372  1.0000
  H   H4990     1.0  0.65384  0.75897  0.75946  1.0000
  H   H4991     1.0  0.63044  0.75045  0.78152  1.0000
  H   H4992     1.0  0.50078  0.78502  0.61728  1.0000
  H   H4993     1.0  0.61429  0.79043  0.70704  1.0000
  H   H4994     1.0  0.58502  0.77727  0.71726  1.0000
  H   H4995     1.0  0.66128  0.74950  0.81797  1.0000
  H   H4996     1.0  0.66474  0.81568  0.57028  1.0000
  C   C2909     1.0  0.68639  0.79925  0.94682  1.0000
  C   C2910     1.0  0.69384  0.79024  0.96020  1.0000
  C   C2911     1.0  0.68846  0.94673  0.83348  1.0000
  H   H4997     1.0  0.59853  0.73459  0.72597  1.0000
  C   C2912     1.0  0.68828  0.82486  0.95264  1.0000
  C   C2913     1.0  0.68394  0.81660  0.94286  1.0000
  C   C2914     1.0  0.50515  0.77215  0.62291  1.0000
  S   S871      1.0  0.68671  0.73806  0.53333  1.0000
  H   H4998     1.0  0.68587  0.83830  0.94980  1.0000
  H   H4999     1.0  0.67801  0.82371  0.93274  1.0000
  C   C2915     1.0  0.63757  0.77819  0.86693  1.0000
  C   C2916     1.0  0.63423  0.77764  0.85202  1.0000
  C   C2917     1.0  0.62687  0.76514  0.85130  1.0000
  C   C2918     1.0  0.62232  0.75330  0.86559  1.0000
  C   C2919     1.0  0.62569  0.75381  0.88051  1.0000
  C   C2920     1.0  0.63350  0.76607  0.88115  1.0000
  H   H5000     1.0  0.63718  0.78703  0.84100  1.0000
  H   H5001     1.0  0.62424  0.76496  0.83981  1.0000
  S   S872      1.0  0.67462  0.97439  0.78388  1.0000
  H   H5002     1.0  0.63575  0.76653  0.89277  1.0000
  H   H5003     1.0  0.71626  0.93595  0.73318  1.0000
  C   C2921     1.0  0.61865  0.73975  0.74272  1.0000
  C   C2922     1.0  0.50251  0.74349  0.63023  1.0000
  C   C2923     1.0  0.62444  0.74560  0.58098  1.0000
  H   H5004     1.0  0.67692  0.74178  0.88464  1.0000
  C   C2924     1.0  0.65025  0.90272  0.75116  1.0000
  C   C2925     1.0  0.64254  0.90203  0.73900  1.0000
  C   C2926     1.0  0.63727  0.88763  0.73973  1.0000
  C   C2927     1.0  0.63923  0.87395  0.75292  1.0000
  C   C2928     1.0  0.64676  0.87467  0.76523  1.0000
  C   C2929     1.0  0.65250  0.88893  0.76420  1.0000
  H   H5005     1.0  0.64065  0.91270  0.72893  1.0000
  H   H5006     1.0  0.63129  0.88727  0.73031  1.0000
  H   H5007     1.0  0.64827  0.86414  0.77547  1.0000
  H   H5008     1.0  0.65850  0.88938  0.77353  1.0000
  C   C2930     1.0  0.68320  0.87897  0.83502  1.0000
  C   C2931     1.0  0.67625  0.86974  0.85036  1.0000
  C   C2932     1.0  0.68423  0.85334  0.85629  1.0000
  C   C2933     1.0  0.69940  0.84622  0.84706  1.0000
  C   C2934     1.0  0.70656  0.85559  0.83190  1.0000
  C   C2935     1.0  0.69843  0.87191  0.82583  1.0000
  H   H5009     1.0  0.66449  0.87520  0.85754  1.0000
  H   H5010     1.0  0.67870  0.84625  0.86805  1.0000
  H   H5011     1.0  0.71832  0.85015  0.82473  1.0000
  H   H5012     1.0  0.70387  0.87896  0.81399  1.0000
  C   C2936     1.0  0.58290  0.80656  0.68323  1.0000
  C   C2937     1.0  0.59393  0.81240  0.66874  1.0000
  C   C2938     1.0  0.60328  0.82364  0.66875  1.0000
  C   C2939     1.0  0.60218  0.82864  0.68335  1.0000
  C   C2940     1.0  0.59166  0.82225  0.69797  1.0000
  C   C2941     1.0  0.58187  0.81150  0.69783  1.0000
  H   H5013     1.0  0.59473  0.80880  0.65739  1.0000
  H   H5014     1.0  0.61118  0.82871  0.65733  1.0000
  H   H5015     1.0  0.59044  0.82627  0.70921  1.0000
  H   H5016     1.0  0.57320  0.80728  0.70902  1.0000
  C   C2942     1.0  0.70701  0.78559  0.54504  1.0000
  C   C2943     1.0  0.71700  0.78440  0.55597  1.0000
  C   C2944     1.0  0.71630  0.79822  0.56215  1.0000
  C   C2945     1.0  0.70564  0.81338  0.55740  1.0000
  C   C2946     1.0  0.69549  0.81452  0.54661  1.0000
  C   C2947     1.0  0.69614  0.80067  0.54045  1.0000
  H   H5017     1.0  0.72605  0.79313  0.84638  1.0000
  C   C2948     1.0  0.66551  0.97181  0.83324  1.0000
  H   H5018     1.0  0.68723  0.82624  0.54284  1.0000
  H   H5019     1.0  0.68850  0.80175  0.53191  1.0000
  C   C2949     1.0  0.63016  0.75352  0.56457  1.0000
  H   H5020     1.0  0.60011  0.75530  0.55334  1.0000
  C   C2950     1.0  0.61647  0.75495  0.59316  1.0000
  C   C2951     1.0  0.61382  0.77229  0.58889  1.0000
  C   C2952     1.0  0.61917  0.78023  0.57239  1.0000
  C   C2953     1.0  0.62745  0.77086  0.56027  1.0000
  H   H5021     1.0  0.62416  0.78938  0.68612  1.0000
  H   H5022     1.0  0.61258  0.74869  0.60586  1.0000
  C   C2954     1.0  0.62165  0.75140  0.72548  1.0000
  H   H5023     1.0  0.63153  0.77707  0.54755  1.0000
  C   C2955     1.0  0.58748  0.74818  0.70546  1.0000
  H   H5024     1.0  0.73500  0.83685  0.50512  1.0000
  C   C2956     1.0  0.52477  0.75104  0.63749  1.0000
  C   C2957     1.0  0.51907  0.76766  0.63021  1.0000
  H   H5025     1.0  0.52884  0.76138  0.59517  1.0000
  H   H5026     1.0  0.52526  0.77707  0.63031  1.0000
  S   S873      1.0  0.72816  0.87617  0.60566  1.0000
  H   H5027     1.0  0.61696  0.79366  0.56895  1.0000
  H   H5028     1.0  0.72629  0.87198  0.65844  1.0000
  H   H5029     1.0  0.58469  0.74751  0.74488  1.0000
  C   C2958     1.0  0.73984  0.80949  0.51495  1.0000
  H   H5030     1.0  0.67090  0.78471  0.56240  1.0000
  C   C2959     1.0  0.69509  0.87683  0.71115  1.0000
  H   H5031     1.0  0.64084  0.77754  0.96787  1.0000
  H   H5032     1.0  0.70799  0.96254  0.79069  1.0000
  S   S874      1.0  0.63982  0.74153  0.54952  1.0000
  C   C2960     1.0  0.69830  0.79849  0.96988  1.0000
  H   H5033     1.0  0.70482  0.86589  0.71487  1.0000
  H   H5034     1.0  0.69514  0.95204  0.83942  1.0000
  H   H5035     1.0  0.57902  0.75876  0.60323  1.0000
  H   H5036     1.0  0.72102  0.73273  0.53904  1.0000
  H   H5037     1.0  0.66259  0.96164  0.87255  1.0000
  H   H5038     1.0  0.54148  0.74247  0.60501  1.0000
  C   C2961     1.0  0.64386  0.95387  0.82734  1.0000
  C   C2962     1.0  0.73660  0.91473  0.73424  1.0000
  H   H5039     1.0  0.55368  0.80254  0.59370  1.0000
  H   H5040     1.0  0.72400  0.83599  0.63533  1.0000
  H   H5041     1.0  0.55336  0.73271  0.70457  1.0000
  C   C2963     1.0  0.67641  0.98128  0.83714  1.0000
  C   C2964     1.0  0.53838  0.75000  0.59310  1.0000
  H   H5042     1.0  0.66613  0.97623  0.81968  1.0000
  H   H5043     1.0  0.69907  0.86730  0.74420  1.0000
  H   H5044     1.0  0.65241  0.97661  0.83926  1.0000
  H   H5045     1.0  0.55944  0.75403  0.61193  1.0000
  H   H5046     1.0  0.63991  0.94754  0.81987  1.0000
  H   H5047     1.0  0.58156  0.74900  0.55481  1.0000
  H   H5048     1.0  0.67973  0.75613  0.56187  1.0000
  H   H5049     1.0  0.63451  0.77691  0.70214  1.0000
  H   H5050     1.0  0.72943  0.87064  0.70099  1.0000
  H   H5051     1.0  0.72506  0.97605  0.79993  1.0000
  C   C2965     1.0  0.66952  0.94974  0.86885  1.0000
  C   C2966     1.0  0.67820  0.87301  0.72146  1.0000
  C   C2967     1.0  0.58895  0.75149  0.56227  1.0000
  H   H5052     1.0  0.52904  0.74065  0.69406  1.0000
  H   H5053     1.0  0.69035  0.92116  0.83110  1.0000
  H   H5054     1.0  0.63595  0.79683  0.58459  1.0000
  H   H5055     1.0  0.64319  0.82474  0.57095  1.0000
  H   H5056     1.0  0.65337  0.80950  0.55885  1.0000
  H   H5057     1.0  0.58203  0.76568  0.75236  1.0000
  H   H5058     1.0  0.62288  0.75938  0.69185  1.0000
  C   C2968     1.0  0.58171  0.76121  0.74149  1.0000
  H   H5059     1.0  0.69478  0.92905  0.69572  1.0000
  H   H5060     1.0  0.71966  0.94175  0.70294  1.0000
  C   C2969     1.0  0.49678  0.76009  0.62292  1.0000
  C   C2970     1.0  0.59323  0.76929  0.72576  1.0000
  C   C2971     1.0  0.66469  0.77650  0.57343  1.0000
  C   C2972     1.0  0.56994  0.75299  0.60095  1.0000
  H   H5061     1.0  0.73090  0.89871  0.62344  1.0000
  H   H5062     1.0  0.68835  0.89715  0.73729  1.0000
  N   N209      1.0  0.56447  0.76255  0.58510  1.0000
  C   C2973     1.0  0.60209  0.74343  0.71424  1.0000
  H   H5063     1.0  0.57636  0.75623  0.71165  1.0000
  N   N210      1.0  0.60385  0.81583  0.78751  1.0000
  C   C2974     1.0  0.60359  0.80952  0.80574  1.0000
  C   C2975     1.0  0.60368  0.83415  0.78299  1.0000
  C   C2976     1.0  0.61928  0.80704  0.77719  1.0000
  C   C2977     1.0  0.58882  0.81253  0.78408  1.0000
  C   C2978     1.0  0.60604  0.79050  0.81210  1.0000
  C   C2979     1.0  0.58818  0.84532  0.79162  1.0000
  C   C2980     1.0  0.63606  0.80777  0.78002  1.0000
  C   C2981     1.0  0.58517  0.82089  0.76672  1.0000
  H   H5064     1.0  0.61311  0.81366  0.80925  1.0000
  H   H5065     1.0  0.59149  0.81492  0.81327  1.0000
  H   H5066     1.0  0.60518  0.83895  0.76936  1.0000
  H   H5067     1.0  0.61447  0.83654  0.78608  1.0000
  H   H5068     1.0  0.61915  0.79372  0.77909  1.0000
  H   H5069     1.0  0.61977  0.81222  0.76377  1.0000
  H   H5070     1.0  0.59008  0.79899  0.78545  1.0000
  H   H5071     1.0  0.57737  0.81629  0.79336  1.0000
  H   H5072     1.0  0.60487  0.78752  0.82573  1.0000
  H   H5073     1.0  0.59641  0.78549  0.80985  1.0000
  H   H5074     1.0  0.61856  0.78381  0.80668  1.0000
  H   H5075     1.0  0.58916  0.85851  0.78646  1.0000
  H   H5076     1.0  0.57645  0.84410  0.78945  1.0000
  H   H5077     1.0  0.58744  0.84290  0.80512  1.0000
  H   H5078     1.0  0.63731  0.80240  0.79300  1.0000
  H   H5079     1.0  0.63827  0.82059  0.77608  1.0000
  H   H5080     1.0  0.64620  0.80024  0.77216  1.0000
  H   H5081     1.0  0.58144  0.83462  0.76484  1.0000
  H   H5082     1.0  0.57460  0.81655  0.76540  1.0000
  H   H5083     1.0  0.59582  0.81752  0.75665  1.0000
  N   N211      1.0  0.65594  0.84371  0.82686  1.0000
  C   C2982     1.0  0.66553  0.85653  0.81562  1.0000
  C   C2983     1.0  0.66843  0.82895  0.83361  1.0000
  C   C2984     1.0  0.64417  0.85129  0.84084  1.0000
  C   C2985     1.0  0.64656  0.83950  0.81662  1.0000
  C   C2986     1.0  0.65511  0.87408  0.81005  1.0000
  C   C2987     1.0  0.68169  0.82034  0.82062  1.0000
  C   C2988     1.0  0.63755  0.83931  0.85683  1.0000
  C   C2989     1.0  0.63752  0.82500  0.82469  1.0000
  H   H5084     1.0  0.67471  0.85808  0.82169  1.0000
  H   H5085     1.0  0.67300  0.85244  0.80405  1.0000
  H   H5086     1.0  0.66248  0.81914  0.84261  1.0000
  H   H5087     1.0  0.67512  0.83270  0.84094  1.0000
  H   H5088     1.0  0.65034  0.85889  0.84493  1.0000
  H   H5089     1.0  0.63312  0.86003  0.83660  1.0000
  H   H5090     1.0  0.63684  0.85045  0.81274  1.0000
  H   H5091     1.0  0.65471  0.83704  0.80459  1.0000
  H   H5092     1.0  0.64871  0.88026  0.82058  1.0000
  H   H5093     1.0  0.66363  0.88205  0.80162  1.0000
  H   H5094     1.0  0.64599  0.87399  0.80314  1.0000
  H   H5095     1.0  0.67602  0.81598  0.81291  1.0000
  H   H5096     1.0  0.69027  0.82846  0.81270  1.0000
  H   H5097     1.0  0.68946  0.80919  0.82718  1.0000
  H   H5098     1.0  0.64757  0.83213  0.86350  1.0000
  H   H5099     1.0  0.67841  0.85967  0.72286  1.0000
  H   H5100     1.0  0.62824  0.84669  0.86540  1.0000
  H   H5101     1.0  0.62444  0.82956  0.83081  1.0000
  H   H5102     1.0  0.64364  0.81505  0.83367  1.0000
  H   H5103     1.0  0.63752  0.81876  0.81496  1.0000
  H   H5104     1.0  0.69546  0.87696  0.69805  1.0000
  H   H5105     1.0  0.54969  0.76199  0.56861  1.0000
  H   H5106     1.0  0.68294  0.94971  0.86504  1.0000
  H   H5107     1.0  0.64326  0.80558  0.59657  1.0000
  H   H5108     1.0  0.73975  0.73315  0.52427  1.0000
  H   H5109     1.0  0.53250  0.74254  0.58858  1.0000
  C   C2990     1.0  0.55393  0.75412  0.57999  1.0000
  C   C2991     1.0  0.57827  0.73438  0.60227  1.0000
  C   C2992     1.0  0.66938  0.74610  0.82702  1.0000
  Fe  Fe436     1.0  0.72239  0.83092  0.58015  1.0000
  H   H5110     1.0  0.71051  0.87790  0.75076  1.0000
  Fe  Fe437     1.0  0.73148  0.81692  0.61388  1.0000
  H   H5111     1.0  0.73424  0.77605  0.86080  1.0000
  H   H5112     1.0  0.72545  0.77277  0.55957  1.0000
  H   H5113     1.0  0.59117  0.75433  0.69228  1.0000
  H   H5114     1.0  0.59356  0.73993  0.57078  1.0000
  H   H5115     1.0  0.49630  0.73408  0.63015  1.0000
  H   H5116     1.0  0.66832  0.93948  0.88002  1.0000
  C   C2993     1.0  0.55388  0.77922  0.58803  1.0000
  C   C2994     1.0  0.72818  0.93159  0.70898  1.0000
  H   H5117     1.0  0.62215  0.74475  0.89165  1.0000
  H   H5118     1.0  0.71914  0.76799  0.84511  1.0000
  H   H5119     1.0  0.67370  0.93315  0.70683  1.0000
  H   H5120     1.0  0.71984  0.86919  0.73294  1.0000
  C   C2995     1.0  0.69465  0.92770  0.83804  1.0000
  H   H5121     1.0  0.56779  0.78542  0.60295  1.0000
  S   S875      1.0  0.61220  0.73794  0.86528  1.0000
  S   S876      1.0  0.72523  0.80119  0.63927  1.0000
  H   H5122     1.0  0.68173  0.90668  0.69600  1.0000
  N   N212      1.0  0.60736  0.75784  0.71674  1.0000
  C   C2996     1.0  0.61372  0.76771  0.69968  1.0000
  H   H5123     1.0  0.66249  0.75962  0.60579  1.0000
  H   H5124     1.0  0.54324  0.77764  0.59880  1.0000
  C   C2997     1.0  0.56281  0.79089  0.59158  1.0000
  H   H5125     1.0  0.60345  0.77371  0.69299  1.0000
  H   H5126     1.0  0.66688  0.75698  0.83265  1.0000
  C   C2998     1.0  0.65272  0.81298  0.57056  1.0000
  H   H5127     1.0  0.57292  0.79454  0.58101  1.0000
  H   H5128     1.0  0.58848  0.76937  0.57565  1.0000
  H   H5129     1.0  0.57534  0.77652  0.56126  1.0000
  C   C2999     1.0  0.50446  0.74145  0.68087  1.0000
  H   H5130     1.0  0.49641  0.74419  0.69272  1.0000
  C   C3000     1.0  0.70796  0.87568  0.73964  1.0000
  H   H5131     1.0  0.71712  0.82812  0.51322  1.0000
  H   H5132     1.0  0.63526  0.78774  0.61907  1.0000
  S   S877      1.0  0.58727  0.74616  0.63627  1.0000
  N   N213      1.0  0.69859  0.89278  0.71229  1.0000
  H   H5133     1.0  0.54825  0.78622  0.57720  1.0000
  Fe  Fe438     1.0  0.69280  0.73597  0.50687  1.0000
  H   H5134     1.0  0.69102  0.92261  0.85153  1.0000
  H   H5135     1.0  0.69585  0.77683  0.96331  1.0000
  H   H5136     1.0  0.63123  0.83073  0.85465  1.0000
  C   C3001     1.0  0.64746  0.79955  0.58586  1.0000
  H   H5137     1.0  0.67523  0.87561  0.73399  1.0000
  H   H5138     1.0  0.65529  0.77837  0.62502  1.0000
  S   S878      1.0  0.66649  0.74565  0.50395  1.0000
  Fe  Fe439     1.0  0.73354  0.85235  0.59685  1.0000
  H   H5139     1.0  0.56863  0.76513  0.73999  1.0000
  C   C3002     1.0  0.70054  0.89256  0.72932  1.0000
  C   C3003     1.0  0.73564  0.74058  0.88229  1.0000
  H   H5140     1.0  0.66805  0.88027  0.71500  1.0000
  C   C3004     1.0  0.62210  0.78183  0.69899  1.0000
  C   C3005     1.0  0.68420  0.90674  0.70805  1.0000
  N   N214      1.0  0.66040  0.78368  0.58869  1.0000
  C   C3006     1.0  0.65302  0.77125  0.60311  1.0000
  C   C3007     1.0  0.67616  0.78639  0.59120  1.0000
  C   C3008     1.0  0.64560  0.77664  0.61977  1.0000
  C   C3009     1.0  0.67432  0.79921  0.60161  1.0000
  N   N215      1.0  0.66986  0.95301  0.83775  1.0000
  S   S879      1.0  0.73942  0.80770  0.59040  1.0000
  H   H5141     1.0  0.68371  0.77441  0.59682  1.0000
  H   H5142     1.0  0.68413  0.79075  0.57898  1.0000
  H   H5143     1.0  0.67004  0.74927  0.58286  1.0000
  H   H5144     1.0  0.59805  0.77824  0.72940  1.0000
  S   S880      1.0  0.62633  0.74524  0.81713  1.0000
  H   H5145     1.0  0.64008  0.76647  0.62883  1.0000
  C   C3010     1.0  0.68597  0.92447  0.70718  1.0000
  H   H5146     1.0  0.68361  0.79437  0.60956  1.0000
  H   H5147     1.0  0.66208  0.80216  0.60993  1.0000
  H   H5148     1.0  0.67757  0.81093  0.59340  1.0000
  N   N216      1.0  0.65928  0.86432  0.64075  1.0000
  C   C3011     1.0  0.67688  0.86522  0.63140  1.0000
  C   C3012     1.0  0.66011  0.84801  0.65329  1.0000
  C   C3013     1.0  0.65293  0.87842  0.64976  1.0000
  C   C3014     1.0  0.64893  0.86592  0.62850  1.0000
  C   C3015     1.0  0.67921  0.88160  0.61874  1.0000
  C   C3016     1.0  0.66851  0.83227  0.64621  1.0000
  C   C3017     1.0  0.63518  0.87990  0.66051  1.0000
  C   C3018     1.0  0.63319  0.85845  0.63519  1.0000
  H   H5149     1.0  0.68508  0.86306  0.64015  1.0000
  H   H5150     1.0  0.68223  0.85527  0.62424  1.0000
  H   H5151     1.0  0.64768  0.84623  0.66070  1.0000
  H   H5152     1.0  0.66698  0.84785  0.66260  1.0000
  H   H5153     1.0  0.66138  0.87756  0.65794  1.0000
  H   H5154     1.0  0.65284  0.89064  0.64091  1.0000
  H   H5155     1.0  0.64498  0.87923  0.62250  1.0000
  H   H5156     1.0  0.65661  0.85957  0.61832  1.0000
  H   H5157     1.0  0.67818  0.89170  0.62498  1.0000
  H   H5158     1.0  0.69201  0.87966  0.61093  1.0000
  H   H5159     1.0  0.67053  0.88562  0.61025  1.0000
  H   H5160     1.0  0.68225  0.83071  0.64284  1.0000
  H   H5161     1.0  0.66582  0.82114  0.65592  1.0000
  H   H5162     1.0  0.66396  0.83234  0.63533  1.0000
  H   H5163     1.0  0.63350  0.86847  0.67005  1.0000
  H   H5164     1.0  0.62575  0.88350  0.65284  1.0000
  H   H5165     1.0  0.63265  0.88996  0.66729  1.0000
  H   H5166     1.0  0.62363  0.86591  0.62802  1.0000
  H   H5167     1.0  0.62722  0.85836  0.64833  1.0000
  H   H5168     1.0  0.63584  0.84570  0.63299  1.0000
  C   C3019     1.0  0.71386  0.89621  0.69924  1.0000
  H   H5169     1.0  0.62570  0.76185  0.72744  1.0000
  H   H5170     1.0  0.65324  0.77566  0.57030  1.0000
  S   S881      1.0  0.59039  0.73323  0.83043  1.0000
  C   C3020     1.0  0.73601  0.78168  0.84736  1.0000
  H   H5171     1.0  0.71181  0.89761  0.68662  1.0000
  C   C3021     1.0  0.67632  0.75912  0.57431  1.0000
  C   C3022     1.0  0.66234  0.94658  0.85568  1.0000
  H   H5172     1.0  0.63585  0.95172  0.83992  1.0000
  C   C3023     1.0  0.70334  0.97519  0.79236  1.0000
  H   H5173     1.0  0.69332  0.95091  0.81995  1.0000
  C   C3024     1.0  0.73022  0.88339  0.70076  1.0000
  H   H5174     1.0  0.65167  0.73424  0.84590  1.0000
  H   H5175     1.0  0.68809  0.75863  0.57765  1.0000
  H   H5176     1.0  0.64148  0.96731  0.82141  1.0000
  H   H5177     1.0  0.63266  0.74467  0.71762  1.0000
  C   C3025     1.0  0.66250  0.94660  0.82728  1.0000
  H   H5178     1.0  0.67722  0.74767  0.85573  1.0000
  H   H5179     1.0  0.65851  0.74157  0.86707  1.0000
  H   H5180     1.0  0.66929  0.94902  0.81408  1.0000
  H   H5181     1.0  0.73302  0.77394  0.82601  1.0000
  H   H5182     1.0  0.58379  0.73668  0.70558  1.0000
  H   H5183     1.0  0.67718  0.97797  0.85028  1.0000
  H   H5184     1.0  0.64235  0.79727  0.96950  1.0000
  H   H5185     1.0  0.73833  0.75588  0.94347  1.0000
  H   H5186     1.0  0.61273  0.73577  0.70687  1.0000
  S   S882      1.0  0.73337  0.90978  0.75598  1.0000
  H   H5187     1.0  0.72735  0.83046  0.52741  1.0000
  H   H5188     1.0  0.68911  0.97956  0.82917  1.0000
  H   H5189     1.0  0.72986  0.80802  0.82076  1.0000
  H   H5190     1.0  0.63040  0.73588  0.74725  1.0000
  C   C3026     1.0  0.72963  0.82733  0.51521  1.0000
  H   H5191     1.0  0.73416  0.76240  0.89085  1.0000
  C   C3027     1.0  0.73213  0.76945  0.83952  1.0000
  H   H5192     1.0  0.73245  0.80136  0.52487  1.0000
  H   H5193     1.0  0.73459  0.88366  0.71165  1.0000
  H   H5194     1.0  0.73702  0.74725  0.92695  1.0000
  H   H5195     1.0  0.63586  0.77951  0.47722  1.0000
  H   H5196     1.0  0.73961  0.80680  0.50305  1.0000
  H   H5197     1.0  0.74002  0.88699  0.68976  1.0000
  C   C3028     1.0  0.73993  0.86919  0.65753  1.0000
  H   H5198     1.0  0.62834  0.73279  0.48561  1.0000
  S   S883      1.0  0.77141  0.09244  0.03951  1.0000
  H   H5199     1.0  0.76653  0.20997  0.07010  1.0000
  H   H5200     1.0  0.80654  0.21455  0.25946  1.0000
  S   S884      1.0  0.90500  0.20612  0.15479  1.0000
  C   C3029     1.0  0.79977  0.18653  0.04974  1.0000
  H   H5201     1.0  0.85260  0.18950  0.02278  1.0000
  H   H5202     1.0  0.83313  0.14524  0.36532  1.0000
  C   C3030     1.0  0.82030  0.10177  0.28065  1.0000
  H   H5203     1.0  0.79888  0.07354  0.30410  1.0000
  Fe  Fe440     1.0  0.82576  0.19830  0.28571  1.0000
  S   S885      1.0  0.82525  0.19588  0.31238  1.0000
  C   C3031     1.0  0.78175  0.09668  0.29801  1.0000
  Fe  Fe441     1.0  0.81107  0.16823  0.29254  1.0000
  S   S886      1.0  0.80895  0.16323  0.31993  1.0000
  S   S887      1.0  0.80471  0.15069  0.28113  1.0000
  Fe  Fe442     1.0  0.79978  0.19082  0.31734  1.0000
  S   S888      1.0  0.77668  0.20182  0.33465  1.0000
  Fe  Fe443     1.0  0.83448  0.16867  0.31296  1.0000
  S   S889      1.0  0.85296  0.15330  0.32838  1.0000
  S   S890      1.0  0.79954  0.19539  0.29052  1.0000
  S   S891      1.0  0.83738  0.17150  0.28569  1.0000
  H   H5204     1.0  0.77397  0.09401  0.31073  1.0000
  H   H5205     1.0  0.82313  0.16428  0.00204  1.0000
  Fe  Fe444     1.0  0.82044  0.03070  0.22072  1.0000
  H   H5206     1.0  0.78921  0.10533  0.29801  1.0000
  C   C3032     1.0  0.77700  0.08485  0.16157  1.0000
  H   H5207     1.0  0.79790  0.07640  0.17445  1.0000
  H   H5208     1.0  0.85585  0.16224  0.01168  1.0000
  S   S892      1.0  0.78666  0.17019  0.00940  1.0000
  H   H5209     1.0  0.79859  0.19859  0.00882  1.0000
  Fe  Fe445     1.0  0.77798  0.02463  0.13114  1.0000
  S   S893      1.0  0.80460  0.02676  0.12145  1.0000
  H   H5210     1.0  0.80890  0.99022  0.12476  1.0000
  Fe  Fe446     1.0  0.79944  0.06601  0.21660  1.0000
  S   S894      1.0  0.82096  0.07732  0.20139  1.0000
  S   S895      1.0  0.77456  0.08342  0.22118  1.0000
  S   S896      1.0  0.84393  0.03921  0.20610  1.0000
  Fe  Fe447     1.0  0.83528  0.06006  0.22003  1.0000
  S   S897      1.0  0.84760  0.06904  0.23546  1.0000
  Fe  Fe448     1.0  0.82741  0.05579  0.18890  1.0000
  S   S898      1.0  0.83418  0.06006  0.16100  1.0000
  S   S899      1.0  0.80466  0.04593  0.20274  1.0000
  Fe  Fe449     1.0  0.91448  0.15333  0.23465  1.0000
  S   S900      1.0  0.92916  0.14083  0.21384  1.0000
  S   S901      1.0  0.90427  0.18076  0.23058  1.0000
  Fe  Fe450     1.0  0.92036  0.12208  0.26051  1.0000
  S   S902      1.0  0.93562  0.10674  0.24189  1.0000
  S   S903      1.0  0.91649  0.11178  0.28794  1.0000
  Fe  Fe451     1.0  0.94758  0.12883  0.23002  1.0000
  Fe  Fe452     1.0  0.91566  0.12012  0.22748  1.0000
  S   S904      1.0  0.90505  0.11021  0.21149  1.0000
  S   S905      1.0  0.93382  0.14294  0.24977  1.0000
  S   S906      1.0  0.89956  0.13380  0.24707  1.0000
  H   H5211     1.0  0.93866  0.13481  0.28325  1.0000
  Fe  Fe453     1.0  0.75480  0.00071  0.14038  1.0000
  H   H5212     1.0  0.76291  0.04437  0.08498  1.0000
  H   H5213     1.0  0.96524  0.15635  0.23387  1.0000
  C   C3033     1.0  0.86348  0.08062  0.22847  1.0000
  C   C3034     1.0  0.86901  0.08519  0.24022  1.0000
  C   C3035     1.0  0.88180  0.09414  0.23527  1.0000
  C   C3036     1.0  0.88917  0.09864  0.21848  1.0000
  C   C3037     1.0  0.88344  0.09431  0.20672  1.0000
  C   C3038     1.0  0.87066  0.08537  0.21167  1.0000
  H   H5214     1.0  0.86361  0.08150  0.25326  1.0000
  H   H5215     1.0  0.88611  0.09733  0.24446  1.0000
  H   H5216     1.0  0.88904  0.09778  0.19370  1.0000
  H   H5217     1.0  0.86654  0.08194  0.20249  1.0000
  C   C3039     1.0  0.81243  0.03570  0.13301  1.0000
  C   C3040     1.0  0.82757  0.04066  0.12606  1.0000
  C   C3041     1.0  0.83400  0.04814  0.13479  1.0000
  C   C3042     1.0  0.82560  0.05031  0.15075  1.0000
  C   C3043     1.0  0.81039  0.04534  0.15775  1.0000
  C   C3044     1.0  0.80368  0.03826  0.14877  1.0000
  H   H5218     1.0  0.83434  0.03880  0.11384  1.0000
  H   H5219     1.0  0.84569  0.05202  0.12926  1.0000
  H   H5220     1.0  0.80373  0.04714  0.16993  1.0000
  H   H5221     1.0  0.79187  0.03461  0.15405  1.0000
  C   C3045     1.0  0.86062  0.19184  0.99567  1.0000
  H   H5222     1.0  0.74541  0.19070  0.32679  1.0000
  S   S907      1.0  0.76849  0.00818  0.15509  1.0000
  Fe  Fe454     1.0  0.83950  0.23255  0.06397  1.0000
  Fe  Fe455     1.0  0.76790  0.15380  0.01871  1.0000
  C   C3046     1.0  0.75133  0.09754  0.26428  1.0000
  C   C3047     1.0  0.75765  0.09769  0.24739  1.0000
  C   C3048     1.0  0.76692  0.08307  0.24230  1.0000
  C   C3049     1.0  0.76962  0.06823  0.25409  1.0000
  C   C3050     1.0  0.76287  0.06800  0.27096  1.0000
  H   H5223     1.0  0.78778  0.09808  0.17356  1.0000
  H   H5224     1.0  0.75565  0.10922  0.23830  1.0000
  H   H5225     1.0  0.77655  0.05684  0.25018  1.0000
  H   H5226     1.0  0.84002  0.20687  0.01105  1.0000
  C   C3051     1.0  0.87092  0.14228  0.31698  1.0000
  C   C3052     1.0  0.87615  0.14789  0.29987  1.0000
  C   C3053     1.0  0.89032  0.13873  0.29093  1.0000
  C   C3054     1.0  0.89918  0.12383  0.29903  1.0000
  C   C3055     1.0  0.89416  0.11844  0.31619  1.0000
  C   C3056     1.0  0.88012  0.12769  0.32515  1.0000
  H   H5227     1.0  0.86952  0.15945  0.29357  1.0000
  H   H5228     1.0  0.89442  0.14330  0.27781  1.0000
  H   H5229     1.0  0.90101  0.10699  0.32252  1.0000
  H   H5230     1.0  0.87620  0.12334  0.33838  1.0000
  C   C3057     1.0  0.78378  0.15584  0.27981  1.0000
  C   C3058     1.0  0.77633  0.14349  0.27911  1.0000
  H   H5231     1.0  0.96355  0.18596  0.20173  1.0000
  C   C3059     1.0  0.83062  0.98546  0.19129  1.0000
  C   C3060     1.0  0.82232  0.98366  0.10196  1.0000
  C   C3061     1.0  0.77436  0.17199  0.27987  1.0000
  H   H5232     1.0  0.78363  0.13112  0.27870  1.0000
  Fe  Fe456     1.0  0.75947  0.11945  0.03115  1.0000
  H   H5233     1.0  0.82904  0.00898  0.19696  1.0000
  H   H5234     1.0  0.78009  0.18170  0.27985  1.0000
  H   H5235     1.0  0.78541  0.09040  0.26354  1.0000
  H   H5236     1.0  0.74066  0.10439  0.15471  1.0000
  H   H5237     1.0  0.83276  0.10474  0.27505  1.0000
  C   C3062     1.0  0.90374  0.19959  0.17606  1.0000
  C   C3063     1.0  0.90109  0.18367  0.18407  1.0000
  C   C3064     1.0  0.90102  0.17793  0.20095  1.0000
  C   C3065     1.0  0.90348  0.18820  0.20980  1.0000
  C   C3066     1.0  0.90559  0.20432  0.20193  1.0000
  C   C3067     1.0  0.90579  0.21000  0.18501  1.0000
  H   H5238     1.0  0.89945  0.17563  0.17714  1.0000
  H   H5239     1.0  0.89909  0.16556  0.20713  1.0000
  H   H5240     1.0  0.90732  0.21229  0.20887  1.0000
  H   H5241     1.0  0.93802  0.12598  0.30497  1.0000
  N   N217      1.0  0.76163  0.08259  0.17505  1.0000
  C   C3068     1.0  0.80179  0.19598  0.03349  1.0000
  C   C3069     1.0  0.79753  0.19099  0.02123  1.0000
  C   C3070     1.0  0.79151  0.17642  0.02507  1.0000
  C   C3071     1.0  0.78951  0.16701  0.04130  1.0000
  C   C3072     1.0  0.79360  0.17205  0.05360  1.0000
  H   H5242     1.0  0.75914  0.22896  0.11325  1.0000
  H   H5243     1.0  0.81733  0.10203  0.29400  1.0000
  H   H5244     1.0  0.74849  0.98928  0.20741  1.0000
  H   H5245     1.0  0.84271  0.15015  0.99557  1.0000
  H   H5246     1.0  0.81241  0.19302  0.98106  1.0000
  H   H5247     1.0  0.74214  0.19256  0.06417  1.0000
  H   H5248     1.0  0.77810  0.11690  0.08164  1.0000
  H   H5249     1.0  0.76055  0.02979  0.06263  1.0000
  H   H5250     1.0  0.87395  0.22686  0.21639  1.0000
  H   H5251     1.0  0.83098  0.08187  0.26737  1.0000
  H   H5252     1.0  0.75249  0.10956  0.09426  1.0000
  H   H5253     1.0  0.95727  0.18650  0.13921  1.0000
  H   H5254     1.0  0.81992  0.09804  0.24529  1.0000
  H   H5255     1.0  0.74490  0.10900  0.26812  1.0000
  H   H5256     1.0  0.79371  0.16410  0.37561  1.0000
  H   H5257     1.0  0.76316  0.00937  0.19060  1.0000
  C   C3073     1.0  0.98786  0.16082  0.23670  1.0000
  H   H5258     1.0  0.75606  0.18988  0.03046  1.0000
  H   H5259     1.0  0.96774  0.22714  0.18845  1.0000
  H   H5260     1.0  0.81902  0.06358  0.26158  1.0000
  H   H5261     1.0  0.81565  0.22532  0.11124  1.0000
  C   C3074     1.0  0.79358  0.22240  0.33966  1.0000
  C   C3075     1.0  0.95167  0.19227  0.16409  1.0000
  H   H5262     1.0  0.96388  0.23115  0.16818  1.0000
  C   C3076     1.0  0.83215  0.22689  0.12620  1.0000
  C   C3077     1.0  0.75320  0.06283  0.20338  1.0000
  C   C3078     1.0  0.80036  0.11248  0.06321  1.0000
  H   H5263     1.0  0.78662  0.20105  0.39322  1.0000
  H   H5264     1.0  0.77644  0.10674  0.06688  1.0000
  N   N218      1.0  0.76884  0.99450  0.21403  1.0000
  H   H5265     1.0  0.80887  0.20405  0.36885  1.0000
  H   H5266     1.0  0.77402  0.09572  0.15144  1.0000
  H   H5267     1.0  0.77287  0.10283  0.28975  1.0000
  S   S908      1.0  0.74132  0.16661  0.01912  1.0000
  S   S909      1.0  0.76613  0.01559  0.11604  1.0000
  H   H5268     1.0  0.95318  0.20277  0.16839  1.0000
  H   H5269     1.0  0.75364  0.12648  0.97781  1.0000
  H   H5270     1.0  0.82567  0.07548  0.28887  1.0000
  H   H5271     1.0  0.79201  0.16471  0.06615  1.0000
  H   H5272     1.0  0.97165  0.19719  0.14189  1.0000
  C   C3079     1.0  0.82225  0.99075  0.21905  1.0000
  C   C3080     1.0  0.82415  0.16232  0.38277  1.0000
  H   H5273     1.0  0.78500  0.19129  0.37819  1.0000
  H   H5274     1.0  0.81170  0.11202  0.27430  1.0000
  H   H5275     1.0  0.79303  0.10617  0.26637  1.0000
  N   N219      1.0  0.78776  0.09015  0.08675  1.0000
  C   C3081     1.0  0.83544  0.19509  0.98588  1.0000
  H   H5276     1.0  0.94724  0.22787  0.18570  1.0000
  C   C3082     1.0  0.79766  0.07750  0.07649  1.0000
  C   C3083     1.0  0.79736  0.09120  0.09865  1.0000
  S   S910      1.0  0.74547  0.08208  0.29722  1.0000
  H   H5277     1.0  0.83679  0.21395  0.23534  1.0000
  C   C3084     1.0  0.80094  0.05916  0.08567  1.0000
  C   C3085     1.0  0.79491  0.07948  0.11596  1.0000
  H   H5278     1.0  0.77208  0.07425  0.10492  1.0000
  H   H5279     1.0  0.78362  0.02701  0.18341  1.0000
  H   H5280     1.0  0.84927  0.14865  0.37292  1.0000
  H   H5281     1.0  0.74824  0.07248  0.21088  1.0000
  H   H5282     1.0  0.79149  0.07837  0.06636  1.0000
  H   H5283     1.0  0.81018  0.08009  0.07015  1.0000
  H   H5284     1.0  0.81097  0.08883  0.09315  1.0000
  H   H5285     1.0  0.76683  0.00980  0.23130  1.0000
  H   H5286     1.0  0.74556  0.18137  0.97881  1.0000
  C   C3086     1.0  0.76651  0.01667  0.06684  1.0000
  H   H5287     1.0  0.81664  0.19389  0.38707  1.0000
  H   H5288     1.0  0.83017  0.98374  0.12384  1.0000
  H   H5289     1.0  0.82931  0.16445  0.39239  1.0000
  H   H5290     1.0  0.80553  0.10553  0.05310  1.0000
  H   H5291     1.0  0.78951  0.05485  0.09313  1.0000
  H   H5292     1.0  0.81021  0.05665  0.09333  1.0000
  H   H5293     1.0  0.80657  0.05128  0.07637  1.0000
  H   H5294     1.0  0.78246  0.08337  0.12369  1.0000
  H   H5295     1.0  0.80423  0.07994  0.12253  1.0000
  H   H5296     1.0  0.95125  0.20800  0.13953  1.0000
  H   H5297     1.0  0.79664  0.06636  0.11545  1.0000
  C   C3087     1.0  0.82082  0.08440  0.27829  1.0000
  H   H5298     1.0  0.85052  0.20007  0.34205  1.0000
  H   H5299     1.0  0.75262  0.22241  0.35579  1.0000
  H   H5300     1.0  0.83290  0.14892  0.01685  1.0000
  H   H5301     1.0  0.74239  0.02260  0.09109  1.0000
  S   S911      1.0  0.81299  0.04996  0.23609  1.0000
  H   H5302     1.0  0.82343  0.17052  0.34713  1.0000
  C   C3088     1.0  0.77372  0.99753  0.22835  1.0000
  H   H5303     1.0  0.83633  0.17613  0.01652  1.0000
  S   S912      1.0  0.81744  0.00433  0.23262  1.0000
  C   C3089     1.0  0.85275  0.19928  0.01121  1.0000
  H   H5304     1.0  0.90732  0.22248  0.17897  1.0000
  H   H5305     1.0  0.83984  0.20374  0.21910  1.0000
  N   N220      1.0  0.84700  0.14356  0.23170  1.0000
  C   C3090     1.0  0.85647  0.13753  0.21607  1.0000
  C   C3091     1.0  0.83371  0.13363  0.23999  1.0000
  C   C3092     1.0  0.85911  0.14018  0.24273  1.0000
  C   C3093     1.0  0.84004  0.16199  0.22682  1.0000
  C   C3094     1.0  0.87178  0.14502  0.20637  1.0000
  C   C3095     1.0  0.82048  0.13584  0.23005  1.0000
  C   C3096     1.0  0.85184  0.13861  0.26147  1.0000
  C   C3097     1.0  0.82701  0.17039  0.24009  1.0000
  H   H5306     1.0  0.86083  0.12375  0.21890  1.0000
  H   H5307     1.0  0.84834  0.14017  0.20716  1.0000
  H   H5308     1.0  0.82681  0.13650  0.25218  1.0000
  H   H5309     1.0  0.83951  0.12009  0.24290  1.0000
  H   H5310     1.0  0.86836  0.12828  0.24159  1.0000
  H   H5311     1.0  0.86652  0.15000  0.23879  1.0000
  H   H5312     1.0  0.85022  0.16893  0.22270  1.0000
  H   H5313     1.0  0.83470  0.16513  0.21563  1.0000
  H   H5314     1.0  0.87805  0.13904  0.19565  1.0000
  H   H5315     1.0  0.86829  0.15857  0.20130  1.0000
  H   H5316     1.0  0.88118  0.14252  0.21390  1.0000
  H   H5317     1.0  0.81510  0.14907  0.22532  1.0000
  H   H5318     1.0  0.82554  0.12921  0.21970  1.0000
  H   H5319     1.0  0.81001  0.13030  0.23838  1.0000
  H   H5320     1.0  0.84834  0.12641  0.26718  1.0000
  H   H5321     1.0  0.84095  0.14859  0.26434  1.0000
  H   H5322     1.0  0.86147  0.13917  0.26761  1.0000
  H   H5323     1.0  0.83289  0.17343  0.24855  1.0000
  H   H5324     1.0  0.81759  0.16307  0.24732  1.0000
  H   H5325     1.0  0.81964  0.18211  0.23389  1.0000
  N   N221      1.0  0.95965  0.17582  0.17365  1.0000
  C   C3098     1.0  0.95895  0.16155  0.16693  1.0000
  H   H5326     1.0  0.97879  0.18749  0.17464  1.0000
  C   C3099     1.0  0.78569  0.01481  0.19213  1.0000
  C   C3100     1.0  0.95038  0.17348  0.19151  1.0000
  C   C3101     1.0  0.94163  0.16105  0.16515  1.0000
  H   H5327     1.0  0.96760  0.16129  0.15463  1.0000
  S   S913      1.0  0.83553  0.21930  0.26685  1.0000
  N   N222      1.0  0.85023  0.18263  0.99127  1.0000
  H   H5328     1.0  0.82943  0.99367  0.09621  1.0000
  H   H5329     1.0  0.76077  0.15813  0.32827  1.0000
  H   H5330     1.0  0.79214  0.17892  0.39693  1.0000
  H   H5331     1.0  0.83453  0.20966  0.35699  1.0000
  C   C3102     1.0  0.95853  0.19590  0.14516  1.0000
  H   H5332     1.0  0.87222  0.21106  0.19855  1.0000
  H   H5333     1.0  0.93701  0.17422  0.19246  1.0000
  H   H5334     1.0  0.95512  0.16085  0.19862  1.0000
  H   H5335     1.0  0.94286  0.15013  0.15996  1.0000
  H   H5336     1.0  0.94364  0.18290  0.21398  1.0000
  H   H5337     1.0  0.93624  0.17218  0.15655  1.0000
  H   H5338     1.0  0.79397  0.00576  0.18469  1.0000
  C   C3103     1.0  0.96392  0.09707  0.31634  1.0000
  H   H5339     1.0  0.95800  0.10871  0.32083  1.0000
  H   H5340     1.0  0.76206  0.19517  0.05180  1.0000
  H   H5341     1.0  0.82293  0.20634  0.12448  1.0000
  C   C3104     1.0  0.98651  0.13762  0.22631  1.0000
  H   H5342     1.0  0.87310  0.22832  0.17069  1.0000
  H   H5343     1.0  0.96842  0.08620  0.29546  1.0000
  C   C3105     1.0  0.76865  0.01020  0.20061  1.0000
  H   H5344     1.0  0.79076  0.17064  0.35508  1.0000
  H   H5345     1.0  0.81950  0.22812  0.15914  1.0000
  C   C3106     1.0  0.75170  0.99083  0.21854  1.0000
  C   C3107     1.0  0.81462  0.04894  0.28614  1.0000
  H   H5346     1.0  0.80112  0.10532  0.23769  1.0000
  C   C3108     1.0  0.79248  0.08011  0.29371  1.0000
  H   H5347     1.0  0.94911  0.10030  0.29861  1.0000
  C   C3109     1.0  0.74972  0.16300  0.28036  1.0000
  H   H5348     1.0  0.76729  0.22179  0.03746  1.0000
  H   H5349     1.0  0.96772  0.13869  0.27951  1.0000
  H   H5350     1.0  0.75627  0.10935  0.17147  1.0000
  H   H5351     1.0  0.81017  0.98780  0.09821  1.0000
  C   C3110     1.0  0.74966  0.07852  0.16755  1.0000
  Fe  Fe457     1.0  0.74659  0.02945  0.15776  1.0000
  C   C3111     1.0  0.77841  0.21768  0.34309  1.0000
  H   H5352     1.0  0.74582  0.20914  0.08321  1.0000
  H   H5353     1.0  0.77948  0.16342  0.97595  1.0000
  H   H5354     1.0  0.82927  0.20260  0.34151  1.0000
  H   H5355     1.0  0.83562  0.21912  0.13786  1.0000
  H   H5356     1.0  0.76572  0.22042  0.29384  1.0000
  C   C3112     1.0  0.83785  0.19973  0.34989  1.0000
  S   S914      1.0  0.75736  0.04671  0.13496  1.0000
  S   S915      1.0  0.97538  0.12668  0.22003  1.0000
  H   H5357     1.0  0.75502  0.06644  0.16357  1.0000
  H   H5358     1.0  0.86854  0.19047  0.22097  1.0000
  C   C3113     1.0  0.84599  0.21036  0.22432  1.0000
  H   H5359     1.0  0.78192  0.07383  0.15573  1.0000
  H   H5360     1.0  0.97530  0.08599  0.26860  1.0000
  H   H5361     1.0  0.76360  0.10490  0.11065  1.0000
  H   H5362     1.0  0.76060  0.02117  0.20550  1.0000
  C   C3114     1.0  0.75737  0.05675  0.07909  1.0000
  H   H5363     1.0  0.93802  0.19353  0.16636  1.0000
  H   H5364     1.0  0.80481  0.04729  0.29761  1.0000
  H   H5365     1.0  0.75004  0.18806  0.28033  1.0000
  H   H5366     1.0  0.79693  0.22946  0.98818  1.0000
  H   H5367     1.0  0.83464  0.98987  0.17808  1.0000
  C   C3115     1.0  0.75814  0.09946  0.10366  1.0000
  H   H5368     1.0  0.82627  0.19905  0.99676  1.0000
  N   N223      1.0  0.80482  0.08096  0.27725  1.0000
  C   C3116     1.0  0.96253  0.09862  0.29843  1.0000
  C   C3117     1.0  0.79704  0.09351  0.26387  1.0000
  H   H5369     1.0  0.85391  0.21352  0.19181  1.0000
  H   H5370     1.0  0.77863  0.05914  0.05878  1.0000
  C   C3118     1.0  0.74334  0.08909  0.06410  1.0000
  C   C3119     1.0  0.86130  0.17405  0.97773  1.0000
  C   C3120     1.0  0.76687  0.06791  0.18834  1.0000
  N   N224      1.0  0.82118  0.17810  0.36977  1.0000
  H   H5371     1.0  0.88023  0.21973  0.10195  1.0000
  C   C3121     1.0  0.97762  0.17585  0.17207  1.0000
  H   H5372     1.0  0.76971  0.99044  0.25522  1.0000
  H   H5373     1.0  0.76950  0.01489  0.07906  1.0000
  C   C3122     1.0  0.81356  0.17617  0.35671  1.0000
  C   C3123     1.0  0.75925  0.14699  0.27962  1.0000
  H   H5374     1.0  0.85658  0.23048  0.23290  1.0000
  H   H5375     1.0  0.80657  0.20713  0.03037  1.0000
  H   H5376     1.0  0.81677  0.22206  0.21332  1.0000
  S   S916      1.0  0.84233  0.21555  0.04696  1.0000
  S   S917      1.0  0.80443  0.19265  0.06557  1.0000
  C   C3124     1.0  0.82744  0.99631  0.20196  1.0000
  H   H5377     1.0  0.95723  0.08739  0.32470  1.0000
  H   H5378     1.0  0.84590  0.17330  0.35400  1.0000
  C   C3125     1.0  0.75737  0.17563  0.27994  1.0000
  H   H5379     1.0  0.81249  0.15827  0.38978  1.0000
  C   C3126     1.0  0.98854  0.10785  0.28408  1.0000
  C   C3127     1.0  0.97854  0.15193  0.23255  1.0000
  C   C3128     1.0  0.82599  0.18990  0.97580  1.0000
  H   H5380     1.0  0.75884  0.05144  0.21158  1.0000
  C   C3129     1.0  0.75369  0.08266  0.27607  1.0000
  C   C3130     1.0  0.83546  0.15777  0.00475  1.0000
  H   H5381     1.0  0.76297  0.20895  0.01913  1.0000
  H   H5382     1.0  0.84496  0.18171  0.37102  1.0000
  H   H5383     1.0  0.86370  0.20247  0.98536  1.0000
  H   H5384     1.0  0.77310  0.05674  0.18296  1.0000
  C   C3131     1.0  0.86051  0.19714  0.23067  1.0000
  H   H5385     1.0  0.79685  0.12579  0.05711  1.0000
  H   H5386     1.0  0.80418  0.21672  0.33148  1.0000
  H   H5387     1.0  0.82625  0.04943  0.28909  1.0000
  C   C3132     1.0  0.75464  0.09827  0.18172  1.0000
  H   H5388     1.0  0.83545  0.13581  0.38611  1.0000
  C   C3133     1.0  0.82224  0.23176  0.20349  1.0000
  C   C3134     1.0  0.75213  0.20298  0.02406  1.0000
  H   H5389     1.0  0.76526  0.08365  0.08640  1.0000
  C   C3135     1.0  0.84485  0.16992  0.00657  1.0000
  H   H5390     1.0  0.74028  0.19855  0.35709  1.0000
  H   H5391     1.0  0.96330  0.14942  0.17507  1.0000
  C   C3136     1.0  0.79161  0.08782  0.16685  1.0000
  H   H5392     1.0  0.74770  0.20252  0.01324  1.0000
  C   C3137     1.0  0.78472  0.10678  0.07486  1.0000
  H   H5393     1.0  0.74859  0.14207  0.33554  1.0000
  H   H5394     1.0  0.95244  0.11252  0.27120  1.0000
  C   C3138     1.0  0.80888  0.06417  0.27286  1.0000
  C   C3139     1.0  0.80785  0.09509  0.24615  1.0000
  C   C3140     1.0  0.81049  0.19204  0.37805  1.0000
  H   H5395     1.0  0.93273  0.15939  0.17727  1.0000
  H   H5396     1.0  0.78501  0.15573  0.04436  1.0000
  S   S918      1.0  0.76764  0.13457  0.00561  1.0000
  H   H5397     1.0  0.96759  0.12942  0.30056  1.0000
  H   H5398     1.0  0.77612  0.07034  0.19369  1.0000
  H   H5399     1.0  0.79216  0.01617  0.20103  1.0000
  H   H5400     1.0  0.94465  0.19894  0.19567  1.0000
  C   C3141     1.0  0.94394  0.13421  0.29381  1.0000
  C   C3142     1.0  0.96581  0.11267  0.26926  1.0000
  C   C3143     1.0  0.77232  0.98429  0.24468  1.0000
  H   H5401     1.0  0.76177  0.09855  0.19066  1.0000
  Fe  Fe458     1.0  0.81537  0.21544  0.05791  1.0000
  C   C3144     1.0  0.76625  0.06513  0.06430  1.0000
  H   H5402     1.0  0.74783  0.09388  0.11234  1.0000
  H   H5403     1.0  0.81008  0.11135  0.06994  1.0000
  H   H5404     1.0  0.98163  0.17199  0.24133  1.0000
  C   C3145     1.0  0.86071  0.22023  0.19619  1.0000
  H   H5405     1.0  0.75553  0.23018  0.14660  1.0000
  H   H5406     1.0  0.81739  0.03757  0.28115  1.0000
  H   H5407     1.0  0.74377  0.22372  0.30108  1.0000
  H   H5408     1.0  0.79795  0.06194  0.26982  1.0000
  H   H5409     1.0  0.78334  0.07267  0.29442  1.0000
  C   C3146     1.0  0.75937  0.08146  0.05693  1.0000
  H   H5410     1.0  0.80781  0.18853  0.34998  1.0000
  C   C3147     1.0  0.75422  0.23024  0.29529  1.0000
  S   S919      1.0  0.85729  0.22633  0.08122  1.0000
  H   H5411     1.0  0.79427  0.10400  0.10096  1.0000
  H   H5412     1.0  0.80125  0.09122  0.15561  1.0000
  H   H5413     1.0  0.76479  0.05646  0.28005  1.0000
  C   C3148     1.0  0.79262  0.19037  0.38708  1.0000
  C   C3149     1.0  0.83617  0.14727  0.37623  1.0000
  C   C3150     1.0  0.80042  0.16522  0.36255  1.0000
  C   C3151     1.0  0.95077  0.18617  0.20104  1.0000
  C   C3152     1.0  0.75059  0.20152  0.05938  1.0000
  H   H5414     1.0  0.75341  0.13727  0.27963  1.0000
  H   H5415     1.0  0.75438  0.09097  0.14124  1.0000
  C   C3153     1.0  0.76449  0.22582  0.35320  1.0000
  C   C3154     1.0  0.75438  0.22898  0.04115  1.0000
  C   C3155     1.0  0.77103  0.08598  0.09536  1.0000
  H   H5416     1.0  0.80998  0.08376  0.24136  1.0000
  C   C3156     1.0  0.83797  0.18244  0.36157  1.0000
  S   S920      1.0  0.76237  0.13761  0.04397  1.0000
  N   N225      1.0  0.85056  0.22563  0.21190  1.0000
  Fe  Fe459     1.0  0.74445  0.03626  0.12205  1.0000
  C   C3157     1.0  0.96307  0.12878  0.28984  1.0000
  H   H5417     1.0  0.83935  0.20665  0.97806  1.0000
  H   H5418     1.0  0.80606  0.15265  0.35989  1.0000
  H   H5419     1.0  0.86821  0.20226  0.23565  1.0000
  H   H5420     1.0  0.94032  0.14691  0.29633  1.0000
  H   H5421     1.0  0.80266  0.98767  0.15203  1.0000
  H   H5422     1.0  0.85540  0.18769  0.24113  1.0000
  S   S921      1.0  0.81304  0.23055  0.07630  1.0000
  H   H5423     1.0  0.86045  0.20763  0.01169  1.0000
  H   H5424     1.0  0.84342  0.22402  0.11634  1.0000
  C   C3158     1.0  0.80650  0.22764  0.25614  1.0000
  H   H5425     1.0  0.75642  0.14905  0.31406  1.0000
  N   N226      1.0  0.74249  0.21735  0.04901  1.0000
  H   H5426     1.0  0.80690  0.22170  0.13343  1.0000
  H   H5427     1.0  0.77860  0.01417  0.05795  1.0000
  H   H5428     1.0  0.97699  0.09293  0.31776  1.0000
  H   H5429     1.0  0.98894  0.09953  0.25516  1.0000
  H   H5430     1.0  0.87209  0.16501  0.98223  1.0000
  N   N227      1.0  0.97001  0.11200  0.28540  1.0000
  C   C3159     1.0  0.97581  0.09842  0.26041  1.0000
  H   H5431     1.0  0.76315  0.99185  0.07265  1.0000
  C   C3160     1.0  0.74125  0.06436  0.08609  1.0000
  H   H5432     1.0  0.74945  0.17644  0.34518  1.0000
  C   C3161     1.0  0.75610  0.00435  0.06737  1.0000
  H   H5433     1.0  0.75679  0.00428  0.05426  1.0000
  H   H5434     1.0  0.96726  0.12456  0.26023  1.0000
  H   H5435     1.0  0.87280  0.18358  0.99763  1.0000
  H   H5436     1.0  0.97040  0.09921  0.24981  1.0000
  Fe  Fe460     1.0  0.91359  0.23009  0.14485  1.0000
  H   H5437     1.0  0.78689  0.99875  0.22487  1.0000
  H   H5438     1.0  0.82785  0.22732  0.19182  1.0000
  C   C3162     1.0  0.81841  0.21995  0.12370  1.0000
  H   H5439     1.0  0.78512  0.22945  0.30831  1.0000
  C   C3163     1.0  0.74436  0.09159  0.15254  1.0000
  H   H5440     1.0  0.74406  0.00151  0.10101  1.0000
  H   H5441     1.0  0.86076  0.22700  0.13425  1.0000
  C   C3164     1.0  0.75110  0.15328  0.32590  1.0000
  Fe  Fe461     1.0  0.74051  0.14626  0.00766  1.0000
  H   H5442     1.0  0.74308  0.05971  0.19993  1.0000
  C   C3165     1.0  0.98720  0.16105  0.18314  1.0000
  C   C3166     1.0  0.75619  0.20328  0.07424  1.0000
  H   H5443     1.0  0.98693  0.14887  0.18120  1.0000
  H   H5444     1.0  0.98471  0.17581  0.15910  1.0000
  H   H5445     1.0  0.98248  0.16128  0.19644  1.0000
  H   H5446     1.0  0.76127  0.19065  0.08103  1.0000
  H   H5447     1.0  0.82916  0.17664  0.97533  1.0000
  S   S922      1.0  0.94307  0.18210  0.79995  1.0000
  S   S923      1.0  0.90352  0.18853  0.79846  1.0000
  Fe  Fe462     1.0  0.91801  0.18962  0.81608  1.0000
  S   S924      1.0  0.91408  0.17611  0.84269  1.0000
  Fe  Fe463     1.0  0.92848  0.18360  0.78138  1.0000
  S   S925      1.0  0.93658  0.16592  0.76420  1.0000
  C   C3167     1.0  0.74967  0.22084  0.51185  1.0000
  S   S926      1.0  0.84125  0.21674  0.88504  1.0000
  Fe  Fe464     1.0  0.82621  0.20224  0.90676  1.0000
  S   S927      1.0  0.82141  0.17774  0.90681  1.0000
  H   H5448     1.0  0.78059  0.07386  0.57535  1.0000
  H   H5449     1.0  0.75300  0.17104  0.94718  1.0000
  H   H5450     1.0  0.81536  0.18099  0.94435  1.0000
  C   C3168     1.0  0.97975  0.16096  0.76325  1.0000
  Fe  Fe465     1.0  0.78606  0.07090  0.67079  1.0000
  S   S928      1.0  0.80694  0.06072  0.65166  1.0000
  S   S929      1.0  0.77216  0.09731  0.66367  1.0000
  Fe  Fe466     1.0  0.79436  0.04049  0.69766  1.0000
  S   S930      1.0  0.78657  0.02851  0.72444  1.0000
  Fe  Fe467     1.0  0.82196  0.05373  0.67118  1.0000
  S   S931      1.0  0.84534  0.06373  0.66474  1.0000
  Fe  Fe468     1.0  0.79920  0.03618  0.66296  1.0000
  S   S932      1.0  0.80140  0.06526  0.68967  1.0000
  S   S933      1.0  0.77682  0.04717  0.68067  1.0000
  Fe  Fe469     1.0  0.88040  0.09929  0.71909  1.0000
  S   S934      1.0  0.88864  0.11603  0.69471  1.0000
  S   S935      1.0  0.87075  0.07619  0.72205  1.0000
  Fe  Fe470     1.0  0.88710  0.12087  0.73889  1.0000
  S   S936      1.0  0.89553  0.13932  0.71604  1.0000
  S   S937      1.0  0.88476  0.12559  0.76403  1.0000
  Fe  Fe471     1.0  0.87402  0.13667  0.70771  1.0000
  S   S938      1.0  0.85437  0.15854  0.69983  1.0000
  Fe  Fe472     1.0  0.90945  0.11685  0.70568  1.0000
  S   S939      1.0  0.86440  0.11991  0.73137  1.0000
  S   S940      1.0  0.90235  0.09838  0.72918  1.0000
  H   H5451     1.0  0.76685  0.98510  0.69185  1.0000
  H   H5452     1.0  0.79855  0.19268  0.95681  1.0000
  H   H5453     1.0  0.75730  0.07950  0.86478  1.0000
  C   C3169     1.0  0.81362  0.99085  0.65623  1.0000
  C   C3170     1.0  0.89983  0.19075  0.88605  1.0000
  H   H5454     1.0  0.87776  0.19134  0.96323  1.0000
  H   H5455     1.0  0.83849  0.20188  0.69524  1.0000
  H   H5456     1.0  0.78242  0.05806  0.62706  1.0000
  H   H5457     1.0  0.86444  0.17638  0.78249  1.0000
  C   C3171     1.0  0.89019  0.18625  0.68009  1.0000
  N   N228      1.0  0.87336  0.21490  0.66675  1.0000
  H   H5458     1.0  0.75107  0.21965  0.88468  1.0000
  S   S941      1.0  0.81475  0.18584  0.63037  1.0000
  S   S942      1.0  0.85928  0.18875  0.62373  1.0000
  C   C3172     1.0  0.76871  0.22916  0.89086  1.0000
  C   C3173     1.0  0.80935  0.04656  0.75114  1.0000
  C   C3174     1.0  0.81070  0.07706  0.72319  1.0000
  S   S943      1.0  0.81638  0.02801  0.68073  1.0000
  Fe  Fe473     1.0  0.74248  0.14217  0.86325  1.0000
  C   C3175     1.0  0.75799  0.17186  0.59051  1.0000
  C   C3176     1.0  0.77484  0.17073  0.58979  1.0000
  C   C3177     1.0  0.77935  0.18069  0.59759  1.0000
  C   C3178     1.0  0.76700  0.19108  0.60681  1.0000
  H   H5459     1.0  0.97242  0.20127  0.86029  1.0000
  H   H5460     1.0  0.75377  0.08391  0.73079  1.0000
  H   H5461     1.0  0.78438  0.16257  0.58274  1.0000
  H   H5462     1.0  0.77032  0.19840  0.61324  1.0000
  C   C3179     1.0  0.79194  0.04816  0.58067  1.0000
  H   H5463     1.0  0.93070  0.14248  0.70490  1.0000
  C   C3180     1.0  0.85540  0.16472  0.67851  1.0000
  C   C3181     1.0  0.84158  0.17545  0.67293  1.0000
  C   C3182     1.0  0.84265  0.18231  0.65603  1.0000
  C   C3183     1.0  0.85755  0.17852  0.64461  1.0000
  C   C3184     1.0  0.87121  0.16723  0.65011  1.0000
  C   C3185     1.0  0.87011  0.16022  0.66709  1.0000
  H   H5464     1.0  0.83018  0.17897  0.68174  1.0000
  H   H5465     1.0  0.83209  0.19109  0.65200  1.0000
  H   H5466     1.0  0.88273  0.16420  0.64129  1.0000
  H   H5467     1.0  0.88082  0.15190  0.67138  1.0000
  C   C3186     1.0  0.75877  0.09927  0.65076  1.0000
  C   C3187     1.0  0.75294  0.08553  0.65078  1.0000
  H   H5468     1.0  0.79103  0.12871  0.63685  1.0000
  C   C3188     1.0  0.85081  0.20520  0.69242  1.0000
  H   H5469     1.0  0.87622  0.21667  0.69059  1.0000
  C   C3189     1.0  0.98013  0.21360  0.79303  1.0000
  H   H5470     1.0  0.75670  0.07364  0.65873  1.0000
  H   H5471     1.0  0.75133  0.22026  0.58185  1.0000
  H   H5472     1.0  0.75643  0.06982  0.59425  1.0000
  H   H5473     1.0  0.74544  0.10521  0.88016  1.0000
  C   C3190     1.0  0.85103  0.06792  0.68114  1.0000
  C   C3191     1.0  0.85025  0.05674  0.69648  1.0000
  C   C3192     1.0  0.85634  0.05945  0.70889  1.0000
  C   C3193     1.0  0.86265  0.07367  0.70632  1.0000
  C   C3194     1.0  0.86291  0.08516  0.69115  1.0000
  C   C3195     1.0  0.85744  0.08210  0.67849  1.0000
  H   H5474     1.0  0.84560  0.04563  0.69851  1.0000
  H   H5475     1.0  0.85646  0.05029  0.72040  1.0000
  H   H5476     1.0  0.86774  0.09616  0.68900  1.0000
  H   H5477     1.0  0.85827  0.09068  0.66656  1.0000
  C   C3196     1.0  0.75480  0.22482  0.56823  1.0000
  C   C3197     1.0  0.75818  0.07127  0.73703  1.0000
  C   C3198     1.0  0.76827  0.05959  0.72778  1.0000
  C   C3199     1.0  0.77397  0.04324  0.73582  1.0000
  H   H5478     1.0  0.76442  0.22512  0.71612  1.0000
  H   H5479     1.0  0.77142  0.06322  0.71444  1.0000
  H   H5480     1.0  0.84294  0.13093  0.64348  1.0000
  C   C3200     1.0  0.80849  0.17992  0.89336  1.0000
  S   S944      1.0  0.79312  0.02170  0.64762  1.0000
  C   C3201     1.0  0.75887  0.05007  0.76229  1.0000
  C   C3202     1.0  0.79906  0.19360  0.86788  1.0000
  C   C3203     1.0  0.80891  0.19242  0.87892  1.0000
  H   H5481     1.0  0.83936  0.11953  0.66504  1.0000
  H   H5482     1.0  0.79970  0.20298  0.85650  1.0000
  H   H5483     1.0  0.81708  0.20095  0.87606  1.0000
  C   C3204     1.0  0.76159  0.22581  0.87771  1.0000
  S   S945      1.0  0.91691  0.21699  0.80760  1.0000
  S   S946      1.0  0.96266  0.22216  0.78392  1.0000
  C   C3205     1.0  0.92270  0.15372  0.76503  1.0000
  C   C3206     1.0  0.92525  0.14590  0.75195  1.0000
  C   C3207     1.0  0.91392  0.13683  0.75179  1.0000
  C   C3208     1.0  0.89998  0.13547  0.76479  1.0000
  C   C3209     1.0  0.89770  0.14282  0.77818  1.0000
  C   C3210     1.0  0.90903  0.15194  0.77830  1.0000
  H   H5484     1.0  0.93599  0.14693  0.74185  1.0000
  H   H5485     1.0  0.91601  0.13090  0.74158  1.0000
  H   H5486     1.0  0.88702  0.14166  0.78834  1.0000
  H   H5487     1.0  0.90718  0.15760  0.78862  1.0000
  C   C3211     1.0  0.78819  0.06564  0.58430  1.0000
  C   C3212     1.0  0.90481  0.18823  0.85758  1.0000
  C   C3213     1.0  0.89476  0.20408  0.85378  1.0000
  C   C3214     1.0  0.88688  0.21308  0.86630  1.0000
  H   H5488     1.0  0.85842  0.19559  0.95657  1.0000
  H   H5489     1.0  0.89274  0.20924  0.84134  1.0000
  C   C3215     1.0  0.94106  0.20666  0.85463  1.0000
  Fe  Fe474     1.0  0.80836  0.23224  0.60895  1.0000
  N   N229      1.0  0.77945  0.06742  0.60171  1.0000
  C   C3216     1.0  0.83853  0.13197  0.65660  1.0000
  H   H5490     1.0  0.94571  0.18063  0.85377  1.0000
  H   H5491     1.0  0.96791  0.21007  0.74607  1.0000
  C   C3217     1.0  0.94923  0.19223  0.84556  1.0000
  H   H5492     1.0  0.76333  0.11526  0.95217  1.0000
  H   H5493     1.0  0.80272  0.04708  0.57000  1.0000
  H   H5494     1.0  0.79989  0.14620  0.95641  1.0000
  H   H5495     1.0  0.84122  0.07166  0.76162  1.0000
  H   H5496     1.0  0.85483  0.21931  0.64147  1.0000
  Fe  Fe475     1.0  0.90460  0.21541  0.78829  1.0000
  N   N230      1.0  0.77416  0.17685  0.95190  1.0000
  H   H5497     1.0  0.97300  0.19023  0.77330  1.0000
  S   S947      1.0  0.92868  0.21048  0.76992  1.0000
  H   H5498     1.0  0.75610  0.00373  0.72372  1.0000
  H   H5499     1.0  0.74258  0.09564  0.91987  1.0000
  C   C3218     1.0  0.77852  0.08492  0.60299  1.0000
  H   H5500     1.0  0.86013  0.15770  0.73536  1.0000
  N   N231      1.0  0.87029  0.18281  0.74558  1.0000
  C   C3219     1.0  0.88403  0.17436  0.73336  1.0000
  C   C3220     1.0  0.85894  0.17090  0.75457  1.0000
  C   C3221     1.0  0.87813  0.18634  0.75762  1.0000
  C   C3222     1.0  0.86150  0.19868  0.73590  1.0000
  C   C3223     1.0  0.89904  0.18276  0.72512  1.0000
  H   H5501     1.0  0.82734  0.09470  0.71071  1.0000
  C   C3224     1.0  0.86712  0.18847  0.77474  1.0000
  C   C3225     1.0  0.84615  0.20909  0.74552  1.0000
  H   H5502     1.0  0.88915  0.16142  0.73946  1.0000
  H   H5503     1.0  0.76433  0.22458  0.84638  1.0000
  H   H5504     1.0  0.84867  0.17598  0.76412  1.0000
  H   H5505     1.0  0.86592  0.15942  0.76163  1.0000
  H   H5506     1.0  0.88887  0.17608  0.76034  1.0000
  H   H5507     1.0  0.88344  0.19760  0.75203  1.0000
  H   H5508     1.0  0.87017  0.20718  0.72973  1.0000
  H   H5509     1.0  0.85793  0.19648  0.72534  1.0000
  H   H5510     1.0  0.89538  0.19561  0.71803  1.0000
  H   H5511     1.0  0.90605  0.18275  0.73422  1.0000
  H   H5512     1.0  0.90790  0.17547  0.71621  1.0000
  C   C3226     1.0  0.85593  0.21190  0.67362  1.0000
  H   H5513     1.0  0.82023  0.99714  0.66079  1.0000
  H   H5514     1.0  0.77208  0.16433  0.93401  1.0000
  H   H5515     1.0  0.78883  0.04257  0.61542  1.0000
  H   H5516     1.0  0.87405  0.19285  0.78131  1.0000
  C   C3227     1.0  0.77455  0.22278  0.70569  1.0000
  C   C3228     1.0  0.88783  0.22917  0.73513  1.0000
  C   C3229     1.0  0.97319  0.21445  0.85488  1.0000
  H   H5517     1.0  0.75878  0.16895  0.53590  1.0000
  H   H5518     1.0  0.97772  0.13611  0.76358  1.0000
  H   H5519     1.0  0.76591  0.20350  0.94993  1.0000
  C   C3230     1.0  0.76682  0.07232  0.90518  1.0000
  H   H5520     1.0  0.79584  0.03798  0.59086  1.0000
  H   H5521     1.0  0.76279  0.15858  0.97133  1.0000
  C   C3231     1.0  0.74787  0.13248  0.96735  1.0000
  C   C3232     1.0  0.77440  0.07996  0.91493  1.0000
  C   C3233     1.0  0.75343  0.06649  0.75427  1.0000
  C   C3234     1.0  0.77229  0.09839  0.87491  1.0000
  H   H5522     1.0  0.75784  0.18966  0.53708  1.0000
  C   C3235     1.0  0.88575  0.19891  0.66442  1.0000
  H   H5523     1.0  0.77695  0.06824  0.89499  1.0000
  C   C3236     1.0  0.74573  0.18309  0.59888  1.0000
  C   C3237     1.0  0.97179  0.19634  0.74765  1.0000
  C   C3238     1.0  0.74589  0.13381  0.93918  1.0000
  C   C3239     1.0  0.98695  0.14208  0.76532  1.0000
  H   H5524     1.0  0.78640  0.99987  0.69294  1.0000
  H   H5525     1.0  0.80363  0.22706  0.55211  1.0000
  Fe  Fe476     1.0  0.74500  0.14234  0.89801  1.0000
  C   C3240     1.0  0.75911  0.04700  0.61267  1.0000
  H   H5526     1.0  0.76660  0.08032  0.92755  1.0000
  H   H5527     1.0  0.78678  0.07209  0.91650  1.0000
  H   H5528     1.0  0.77619  0.09268  0.90852  1.0000
  C   C3241     1.0  0.79170  0.99160  0.64317  1.0000
  H   H5529     1.0  0.88952  0.19179  0.69046  1.0000
  H   H5530     1.0  0.96023  0.19148  0.75129  1.0000
  H   H5531     1.0  0.77057  0.10718  0.86301  1.0000
  H   H5532     1.0  0.77827  0.08616  0.87181  1.0000
  H   H5533     1.0  0.78106  0.10283  0.87922  1.0000
  H   H5534     1.0  0.80614  0.21245  0.57091  1.0000
  H   H5535     1.0  0.77743  0.21956  0.58440  1.0000
  C   C3242     1.0  0.96371  0.22223  0.84078  1.0000
  C   C3243     1.0  0.78878  0.05575  0.61444  1.0000
  C   C3244     1.0  0.75364  0.11471  0.64057  1.0000
  H   H5536     1.0  0.74648  0.22564  0.49950  1.0000
  H   H5537     1.0  0.84218  0.15737  0.75170  1.0000
  C   C3245     1.0  0.87763  0.22362  0.67754  1.0000
  H   H5538     1.0  0.81453  0.05389  0.59937  1.0000
  H   H5539     1.0  0.80560  0.10341  0.71025  1.0000
  C   C3246     1.0  0.79119  0.17939  0.94229  1.0000
  C   C3247     1.0  0.80721  0.05642  0.61156  1.0000
  H   H5540     1.0  0.83810  0.20158  0.75526  1.0000
  C   C3248     1.0  0.77271  0.21479  0.69433  1.0000
  H   H5541     1.0  0.75388  0.23092  0.51425  1.0000
  C   C3249     1.0  0.86830  0.18566  0.96156  1.0000
  S   S948      1.0  0.78739  0.21882  0.61838  1.0000
  H   H5542     1.0  0.88122  0.19204  0.65792  1.0000
  C   C3250     1.0  0.82787  0.07352  0.76150  1.0000
  H   H5543     1.0  0.94462  0.19417  0.83418  1.0000
  C   C3251     1.0  0.82649  0.07535  0.74356  1.0000
  H   H5544     1.0  0.81035  0.04422  0.73880  1.0000
  H   H5545     1.0  0.83480  0.06419  0.73926  1.0000
  H   H5546     1.0  0.83239  0.08588  0.73595  1.0000
  H   H5547     1.0  0.82011  0.06588  0.72004  1.0000
  H   H5548     1.0  0.79784  0.06561  0.76544  1.0000
  Fe  Fe477     1.0  0.83362  0.20163  0.62009  1.0000
  H   H5549     1.0  0.97451  0.16460  0.75195  1.0000
  H   H5550     1.0  0.97891  0.19343  0.73554  1.0000
  H   H5551     1.0  0.81798  0.08932  0.69738  1.0000
  N   N232      1.0  0.92306  0.06336  0.68963  1.0000
  C   C3252     1.0  0.92841  0.07979  0.68312  1.0000
  C   C3253     1.0  0.91850  0.06051  0.70829  1.0000
  C   C3254     1.0  0.90773  0.06506  0.68337  1.0000
  C   C3255     1.0  0.93707  0.04990  0.68337  1.0000
  C   C3256     1.0  0.93173  0.08626  0.66416  1.0000
  C   C3257     1.0  0.93203  0.06150  0.71650  1.0000
  C   C3258     1.0  0.89976  0.04980  0.68873  1.0000
  C   C3259     1.0  0.93826  0.03208  0.69423  1.0000
  H   H5552     1.0  0.91894  0.08969  0.68873  1.0000
  H   H5553     1.0  0.94013  0.07914  0.68674  1.0000
  H   H5554     1.0  0.91496  0.04834  0.71410  1.0000
  H   H5555     1.0  0.90717  0.06985  0.71232  1.0000
  H   H5556     1.0  0.89794  0.07575  0.68720  1.0000
  H   H5557     1.0  0.91040  0.06787  0.66961  1.0000
  H   H5558     1.0  0.93648  0.04920  0.67080  1.0000
  H   H5559     1.0  0.94941  0.05288  0.68164  1.0000
  H   H5560     1.0  0.93984  0.07661  0.65741  1.0000
  H   H5561     1.0  0.91993  0.09136  0.65977  1.0000
  H   H5562     1.0  0.93816  0.09676  0.66089  1.0000
  H   H5563     1.0  0.92887  0.05610  0.73000  1.0000
  H   H5564     1.0  0.94456  0.05472  0.71128  1.0000
  H   H5565     1.0  0.93258  0.07463  0.71519  1.0000
  H   H5566     1.0  0.89625  0.04560  0.70237  1.0000
  H   H5567     1.0  0.90774  0.03952  0.68281  1.0000
  H   H5568     1.0  0.88809  0.05326  0.68415  1.0000
  H   H5569     1.0  0.94244  0.03093  0.70568  1.0000
  H   H5570     1.0  0.94776  0.02332  0.68720  1.0000
  H   H5571     1.0  0.92652  0.02771  0.69772  1.0000
  N   N233      1.0  0.80735  0.13844  0.65533  1.0000
  C   C3260     1.0  0.79161  0.15133  0.65923  1.0000
  C   C3261     1.0  0.81167  0.13975  0.63684  1.0000
  C   C3262     1.0  0.82095  0.14284  0.66031  1.0000
  C   C3263     1.0  0.80440  0.12147  0.66505  1.0000
  C   C3264     1.0  0.78625  0.15385  0.67720  1.0000
  C   C3265     1.0  0.79757  0.13878  0.62938  1.0000
  C   C3266     1.0  0.81477  0.10633  0.65761  1.0000
  H   H5572     1.0  0.79267  0.16372  0.65097  1.0000
  H   H5573     1.0  0.78083  0.14815  0.65684  1.0000
  H   H5574     1.0  0.82260  0.13003  0.63307  1.0000
  H   H5575     1.0  0.81552  0.15170  0.63019  1.0000
  H   H5576     1.0  0.82191  0.15593  0.65433  1.0000
  H   H5577     1.0  0.81807  0.14217  0.67388  1.0000
  H   H5578     1.0  0.80651  0.11908  0.67778  1.0000
  H   H5579     1.0  0.79117  0.12080  0.66694  1.0000
  H   H5580     1.0  0.79418  0.16094  0.67949  1.0000
  H   H5581     1.0  0.77338  0.16152  0.67916  1.0000
  H   H5582     1.0  0.78626  0.14191  0.68643  1.0000
  C   C3267     1.0  0.75589  0.06854  0.87515  1.0000
  H   H5583     1.0  0.80285  0.13644  0.61669  1.0000
  S   S949      1.0  0.74577  0.12772  0.84363  1.0000
  H   H5584     1.0  0.81068  0.10589  0.64661  1.0000
  H   H5585     1.0  0.81273  0.09476  0.66688  1.0000
  H   H5586     1.0  0.82830  0.10570  0.65432  1.0000
  N   N234      1.0  0.86365  0.16774  0.86016  1.0000
  C   C3268     1.0  0.86235  0.17540  0.87446  1.0000
  C   C3269     1.0  0.86492  0.18133  0.84466  1.0000
  C   C3270     1.0  0.87922  0.15413  0.85903  1.0000
  C   C3271     1.0  0.84835  0.16075  0.86373  1.0000
  C   C3272     1.0  0.86446  0.16320  0.89109  1.0000
  C   C3273     1.0  0.84997  0.19626  0.84428  1.0000
  C   C3274     1.0  0.88688  0.14912  0.84215  1.0000
  C   C3275     1.0  0.84579  0.15390  0.85003  1.0000
  H   H5587     1.0  0.87176  0.18317  0.87134  1.0000
  H   H5588     1.0  0.85006  0.18396  0.87716  1.0000
  H   H5589     1.0  0.86673  0.17668  0.83335  1.0000
  H   H5590     1.0  0.87626  0.18627  0.84267  1.0000
  H   H5591     1.0  0.88938  0.15781  0.86203  1.0000
  H   H5592     1.0  0.87708  0.14260  0.86844  1.0000
  H   H5593     1.0  0.84820  0.15033  0.87481  1.0000
  H   H5594     1.0  0.83681  0.16989  0.86754  1.0000
  H   H5595     1.0  0.85530  0.15512  0.89560  1.0000
  H   H5596     1.0  0.87726  0.15550  0.89041  1.0000
  H   H5597     1.0  0.86226  0.17054  0.90062  1.0000
  H   H5598     1.0  0.85198  0.20488  0.83196  1.0000
  H   H5599     1.0  0.83815  0.19241  0.84598  1.0000
  H   H5600     1.0  0.84878  0.20349  0.85359  1.0000
  H   H5601     1.0  0.89726  0.13810  0.84366  1.0000
  H   H5602     1.0  0.89246  0.15910  0.83284  1.0000
  H   H5603     1.0  0.87799  0.14570  0.83720  1.0000
  H   H5604     1.0  0.85198  0.14055  0.85107  1.0000
  H   H5605     1.0  0.84992  0.16091  0.83734  1.0000
  H   H5606     1.0  0.83223  0.15509  0.85140  1.0000
  H   H5607     1.0  0.96885  0.22166  0.86474  1.0000
  H   H5608     1.0  0.74952  0.18838  0.51152  1.0000
  H   H5609     1.0  0.76116  0.21104  0.69602  1.0000
  Fe  Fe478     1.0  0.85260  0.22113  0.90343  1.0000
  H   H5610     1.0  0.96958  0.21520  0.83084  1.0000
  H   H5611     1.0  0.76885  0.22859  0.75341  1.0000
  H   H5612     1.0  0.81285  0.04647  0.62106  1.0000
  H   H5613     1.0  0.75809  0.12538  0.64057  1.0000
  H   H5614     1.0  0.79765  0.16923  0.93555  1.0000
  C   C3276     1.0  0.76933  0.03851  0.75308  1.0000
  C   C3277     1.0  0.93852  0.22911  0.83010  1.0000
  H   H5615     1.0  0.79899  0.07525  0.72140  1.0000
  C   C3278     1.0  0.90721  0.18155  0.87373  1.0000
  H   H5616     1.0  0.85379  0.20306  0.66753  1.0000
  C   C3279     1.0  0.75526  0.09938  0.88739  1.0000
  N   N235      1.0  0.94521  0.22332  0.84565  1.0000
  H   H5617     1.0  0.76375  0.06049  0.91341  1.0000
  H   H5618     1.0  0.78793  0.06640  0.74977  1.0000
  H   H5619     1.0  0.77989  0.09501  0.73134  1.0000
  C   C3280     1.0  0.80042  0.06462  0.75230  1.0000
  C   C3281     1.0  0.75014  0.18099  0.53752  1.0000
  H   H5620     1.0  0.77369  0.02585  0.75934  1.0000
  H   H5621     1.0  0.75385  0.18677  0.91895  1.0000
  H   H5622     1.0  0.85949  0.19378  0.69701  1.0000
  H   H5623     1.0  0.84739  0.13784  0.65915  1.0000
  N   N236      1.0  0.80921  0.07789  0.74086  1.0000
  H   H5624     1.0  0.97118  0.10209  0.69308  1.0000
  H   H5625     1.0  0.78108  0.04599  0.57754  1.0000
  H   H5626     1.0  0.82131  0.08487  0.76635  1.0000
  H   H5627     1.0  0.78838  0.15082  0.62809  1.0000
  S   S950      1.0  0.93645  0.11267  0.69232  1.0000
  H   H5628     1.0  0.80186  0.03798  0.76033  1.0000
  H   H5629     1.0  0.75352  0.07219  0.61463  1.0000
  C   C3282     1.0  0.78742  0.17063  0.88631  1.0000
  S   S951      1.0  0.80530  0.22397  0.91107  1.0000
  H   H5630     1.0  0.97065  0.19283  0.80978  1.0000
  C   C3283     1.0  0.94361  0.13627  0.70411  1.0000
  S   S952      1.0  0.98460  0.14485  0.71239  1.0000
  C   C3284     1.0  0.77529  0.16145  0.96561  1.0000
  H   H5631     1.0  0.82182  0.04315  0.75408  1.0000
  H   H5632     1.0  0.77250  0.09500  0.75302  1.0000
  H   H5633     1.0  0.77894  0.16237  0.88936  1.0000
  C   C3285     1.0  0.76087  0.20929  0.56075  1.0000
  Fe  Fe479     1.0  0.80546  0.19822  0.60729  1.0000
  C   C3286     1.0  0.94958  0.12137  0.69858  1.0000
  H   H5634     1.0  0.94983  0.15506  0.71226  1.0000
  H   H5635     1.0  0.77085  0.21587  0.87218  1.0000
  C   C3287     1.0  0.81569  0.09210  0.70980  1.0000
  C   C3288     1.0  0.95448  0.14342  0.70821  1.0000
  C   C3289     1.0  0.78795  0.18303  0.87177  1.0000
  S   S953      1.0  0.78223  0.20309  0.66601  1.0000
  H   H5636     1.0  0.90189  0.18559  0.89848  1.0000
  H   H5637     1.0  0.80596  0.10471  0.73739  1.0000
  C   C3290     1.0  0.79795  0.16886  0.89691  1.0000
  S   S954      1.0  0.76387  0.14153  0.87400  1.0000
  C   C3291     1.0  0.75023  0.19242  0.60730  1.0000
  C   C3292     1.0  0.85082  0.16540  0.74361  1.0000
  C   C3293     1.0  0.80281  0.18083  0.95248  1.0000
  H   H5638     1.0  0.79769  0.15909  0.90801  1.0000
  H   H5639     1.0  0.98813  0.16622  0.78862  1.0000
  H   H5640     1.0  0.91494  0.16929  0.87670  1.0000
  H   H5641     1.0  0.79992  0.07032  0.58017  1.0000
  C   C3294     1.0  0.80058  0.21663  0.67866  1.0000
  S   S955      1.0  0.80036  0.18102  0.59454  1.0000
  H   H5642     1.0  0.79033  0.19099  0.93250  1.0000
  S   S956      1.0  0.83933  0.20447  0.92498  1.0000
  C   C3295     1.0  0.79931  0.09451  0.74435  1.0000
  C   C3296     1.0  0.97125  0.13545  0.70737  1.0000
  C   C3297     1.0  0.88953  0.20643  0.88242  1.0000
  H   H5643     1.0  0.98603  0.16991  0.68231  1.0000
  C   C3298     1.0  0.74486  0.07381  0.89109  1.0000
  H   H5644     1.0  0.89761  0.20138  0.65580  1.0000
  Fe  Fe480     1.0  0.94111  0.20943  0.79011  1.0000
  H   H5645     1.0  0.80428  0.17022  0.96316  1.0000
  H   H5646     1.0  0.75473  0.10859  0.89459  1.0000
  H   H5647     1.0  0.92744  0.20754  0.85719  1.0000
  H   H5648     1.0  0.87920  0.17326  0.72303  1.0000
  C   C3299     1.0  0.78135  0.09959  0.74157  1.0000
  H   H5649     1.0  0.89683  0.22210  0.72665  1.0000
  H   H5650     1.0  0.77255  0.19291  0.91738  1.0000
  C   C3300     1.0  0.96645  0.11358  0.69738  1.0000
  C   C3301     1.0  0.76106  0.18990  0.92620  1.0000
  H   H5651     1.0  0.75342  0.02019  0.74154  1.0000
  H   H5652     1.0  0.78576  0.13484  0.97134  1.0000
  H   H5653     1.0  0.85538  0.19777  0.77404  1.0000
  H   H5654     1.0  0.88223  0.17695  0.68451  1.0000
  H   H5655     1.0  0.77303  0.08646  0.61598  1.0000
  H   H5656     1.0  0.78123  0.99854  0.63766  1.0000
  H   H5657     1.0  0.75458  0.16467  0.58393  1.0000
  H   H5658     1.0  0.76032  0.21004  0.51147  1.0000
  H   H5659     1.0  0.79796  0.09471  0.75753  1.0000
  C   C3302     1.0  0.76184  0.06491  0.60548  1.0000
  H   H5660     1.0  0.80868  0.06833  0.61311  1.0000
  H   H5661     1.0  0.75520  0.04632  0.77562  1.0000
  C   C3303     1.0  0.97721  0.12046  0.70200  1.0000
  H   H5662     1.0  0.90122  0.21875  0.75475  1.0000
  H   H5663     1.0  0.83808  0.21680  0.73682  1.0000
  S   S957      1.0  0.77425  0.18616  0.85876  1.0000
  H   H5664     1.0  0.94463  0.22032  0.82168  1.0000
  H   H5665     1.0  0.76723  0.03809  0.60512  1.0000
  H   H5666     1.0  0.75572  0.09746  0.59315  1.0000
  H   H5667     1.0  0.78273  0.14210  0.95076  1.0000
  C   C3304     1.0  0.76529  0.19172  0.95944  1.0000
  C   C3305     1.0  0.79727  0.21853  0.56264  1.0000
  C   C3306     1.0  0.80005  0.99995  0.64920  1.0000
  Fe  Fe481     1.0  0.75604  0.16927  0.86897  1.0000
  H   H5668     1.0  0.76385  0.21241  0.54704  1.0000
  S   S958      1.0  0.82575  0.21258  0.59584  1.0000
  H   H5669     1.0  0.74551  0.02030  0.70955  1.0000
  H   H5670     1.0  0.77498  0.10036  0.57847  1.0000
  C   C3307     1.0  0.78662  0.14541  0.96048  1.0000
  S   S959      1.0  0.75270  0.12547  0.92121  1.0000
  H   H5671     1.0  0.87466  0.17828  0.95191  1.0000
  H   H5672     1.0  0.79112  0.08765  0.59991  1.0000
  H   H5673     1.0  0.96888  0.16278  0.77378  1.0000
  N   N237      1.0  0.75172  0.08336  0.89907  1.0000
  H   H5674     1.0  0.75076  0.20229  0.56467  1.0000
  C   C3308     1.0  0.78840  0.98643  0.69905  1.0000
  H   H5675     1.0  0.82349  0.06250  0.77001  1.0000
  H   H5676     1.0  0.77765  0.11336  0.73806  1.0000
  H   H5677     1.0  0.98162  0.17061  0.65478  1.0000
  C   C3309     1.0  0.76849  0.09904  0.59170  1.0000
  H   H5678     1.0  0.75734  0.99830  0.76584  1.0000
  S   S960      1.0  0.88034  0.21764  0.89810  1.0000
  C   C3310     1.0  0.98196  0.18923  0.76127  1.0000
  S   S961      1.0  0.81820  0.22261  0.63218  1.0000
  C   C3311     1.0  0.78559  0.21194  0.68065  1.0000
  H   H5679     1.0  0.84342  0.17607  0.73620  1.0000
  H   H5680     1.0  0.76719  0.11101  0.59512  1.0000
  C   C3312     1.0  0.98076  0.19931  0.80575  1.0000
  Fe  Fe482     1.0  0.79864  0.20753  0.64063  1.0000
  H   H5681     1.0  0.76087  0.04256  0.62562  1.0000
  H   H5682     1.0  0.87617  0.20914  0.63413  1.0000
  H   H5683     1.0  0.81078  0.21393  0.66845  1.0000
  C   C3313     1.0  0.76493  0.17472  0.94026  1.0000
  H   H5684     1.0  0.94420  0.20265  0.86705  1.0000
  H   H5685     1.0  0.74603  0.04690  0.61316  1.0000
  H   H5686     1.0  0.96299  0.18989  0.84258  1.0000
  H   H5687     1.0  0.90331  0.17943  0.67704  1.0000
  C   C3314     1.0  0.74632  0.99971  0.76073  1.0000
  C   C3315     1.0  0.75334  0.12615  0.95282  1.0000
  H   H5688     1.0  0.78336  0.98559  0.71250  1.0000
  H   H5689     1.0  0.75896  0.23050  0.90229  1.0000
  H   H5690     1.0  0.74804  0.10801  0.82091  1.0000
  H   H5691     1.0  0.76816  0.06066  0.87689  1.0000
  H   H5692     1.0  0.84927  0.21481  0.69946  1.0000
  H   H5693     1.0  0.97067  0.18928  0.66144  1.0000
  H   H5694     1.0  0.98917  0.13623  0.77795  1.0000
  H   H5695     1.0  0.77166  0.20084  0.56544  1.0000
  C   C3316     1.0  0.74467  0.00839  0.71870  1.0000
  H   H5696     1.0  0.92512  0.22881  0.83271  1.0000
  H   H5697     1.0  0.84988  0.21756  0.75089  1.0000
  H   H5698     1.0  0.79509  0.20860  0.55810  1.0000
  H   H5699     1.0  0.74196  0.17856  0.55001  1.0000
  H   H5700     1.0  0.74166  0.06239  0.90009  1.0000
  H   H5701     1.0  0.82782  0.19732  0.96288  1.0000
  H   H5702     1.0  0.98660  0.21454  0.84968  1.0000
  H   H5703     1.0  0.90507  0.21557  0.67126  1.0000
  C   C3317     1.0  0.78128  0.22814  0.57242  1.0000
  C   C3318     1.0  0.74691  0.19215  0.96828  1.0000
  H   H5704     1.0  0.74957  0.06101  0.87120  1.0000
  H   H5705     1.0  0.77157  0.19239  0.96891  1.0000
  C   C3319     1.0  0.78926  0.22805  0.70342  1.0000
  H   H5706     1.0  0.74969  0.99048  0.75287  1.0000
  C   C3320     1.0  0.98336  0.18195  0.65736  1.0000
  H   H5707     1.0  0.77886  0.21843  0.89417  1.0000
  H   H5708     1.0  0.75334  0.20100  0.93092  1.0000
  H   H5709     1.0  0.74183  0.20351  0.97346  1.0000
  H   H5710     1.0  0.84654  0.22359  0.67072  1.0000
  C   C3321     1.0  0.86790  0.22082  0.63727  1.0000
  H   H5711     1.0  0.74286  0.23172  0.56453  1.0000
  C   C3322     1.0  0.74201  0.01776  0.75093  1.0000
  H   H5712     1.0  0.74432  0.99927  0.71187  1.0000
  C   C3323     1.0  0.80239  0.22477  0.69001  1.0000
  H   H5713     1.0  0.87892  0.22524  0.86348  1.0000
  C   C3324     1.0  0.89037  0.22731  0.75106  1.0000
  H   H5714     1.0  0.81392  0.22842  0.68843  1.0000
  C   C3325     1.0  0.74292  0.11633  0.63019  1.0000
  C   C3326     1.0  0.87358  0.22656  0.64996  1.0000
  Fe  Fe483     1.0  0.81966  0.22763  0.92769  1.0000
  H   H5715     1.0  0.78042  0.23033  0.54004  1.0000
  C   C3327     1.0  0.89533  0.22706  0.67222  1.0000
  H   H5716     1.0  0.74761  0.22713  0.75831  1.0000
  C   C3328     1.0  0.74189  0.08726  0.64077  1.0000
  H   H5717     1.0  0.88629  0.22873  0.64387  1.0000
  H   H5718     1.0  0.99002  0.19797  0.75970  1.0000
  H   H5719     1.0  0.86854  0.23042  0.62555  1.0000
  H   H5720     1.0  0.94052  0.22957  0.86953  1.0000
  H   H5721     1.0  0.77766  0.23041  0.77775  1.0000
  S   S962      1.0  0.74063  0.08105  0.76567  1.0000
  H   H5722     1.0  0.91205  0.23039  0.86549  1.0000
  S   S963      1.0  0.80551  0.23095  0.95338  1.0000
  H   H5723     1.0  0.89735  0.23232  0.68180  1.0000
  H   H5724     1.0  0.79228  0.23158  0.85979  1.0000
  H   H5725     1.0  0.74073  0.20099  0.61393  1.0000
  C   C3329     1.0  0.74035  0.18723  0.52358  1.0000
  H   H5726     1.0  0.74060  0.21338  0.86660  1.0000
  H   H5727     1.0  0.85498  0.16637  0.97411  1.0000
  H   H5728     1.0  0.98938  0.18968  0.64585  1.0000
  H   H5729     1.0  0.78293  0.36923  0.24217  1.0000
  Fe  Fe484     1.0  0.83285  0.23877  0.02925  1.0000
  C   C3330     1.0  0.79340  0.23894  0.24970  1.0000
  H   H5730     1.0  0.96707  0.28294  0.17795  1.0000
  C   C3331     1.0  0.79460  0.27786  0.00094  1.0000
  S   S964      1.0  0.84280  0.24413  0.00143  1.0000
  H   H5731     1.0  0.81983  0.27877  0.09287  1.0000
  S   S965      1.0  0.83254  0.25591  0.04518  1.0000
  H   H5732     1.0  0.74252  0.36274  0.15248  1.0000
  C   C3332     1.0  0.96119  0.25128  0.20617  1.0000
  H   H5733     1.0  0.75663  0.26300  0.13809  1.0000
  H   H5734     1.0  0.79616  0.30086  0.43313  1.0000
  H   H5735     1.0  0.80552  0.30646  0.02862  1.0000
  H   H5736     1.0  0.77253  0.32944  0.01392  1.0000
  C   C3333     1.0  0.81012  0.28568  0.01644  1.0000
  C   C3334     1.0  0.77910  0.28334  0.16532  1.0000
  C   C3335     1.0  0.77235  0.31894  0.06615  1.0000
  H   H5737     1.0  0.75543  0.26306  0.08879  1.0000
  C   C3336     1.0  0.76266  0.28719  0.16340  1.0000
  C   C3337     1.0  0.80499  0.35038  0.26271  1.0000
  S   S966      1.0  0.78316  0.27219  0.05984  1.0000
  C   C3338     1.0  0.94306  0.27665  0.19300  1.0000
  C   C3339     1.0  0.82109  0.27770  0.44302  1.0000
  H   H5738     1.0  0.82561  0.27519  0.43034  1.0000
  Fe  Fe485     1.0  0.91350  0.26320  0.15120  1.0000
  S   S967      1.0  0.92671  0.27218  0.12512  1.0000
  S   S968      1.0  0.91029  0.27705  0.17090  1.0000
  Fe  Fe486     1.0  0.78495  0.32481  0.19787  1.0000
  S   S969      1.0  0.77814  0.30273  0.19446  1.0000
  S   S970      1.0  0.76833  0.35033  0.19520  1.0000
  Fe  Fe487     1.0  0.81846  0.30530  0.20447  1.0000
  S   S971      1.0  0.81485  0.28136  0.20186  1.0000
  S   S972      1.0  0.84057  0.30750  0.21189  1.0000
  Fe  Fe488     1.0  0.80447  0.29699  0.18008  1.0000
  S   S973      1.0  0.81084  0.28808  0.15641  1.0000
  Fe  Fe489     1.0  0.78906  0.28899  0.21646  1.0000
  S   S974      1.0  0.77756  0.26982  0.23616  1.0000
  S   S975      1.0  0.81034  0.32054  0.18129  1.0000
  S   S976      1.0  0.79368  0.31146  0.22130  1.0000
  H   H5739     1.0  0.81508  0.33277  0.22887  1.0000
  H   H5740     1.0  0.84261  0.33732  0.22512  1.0000
  C   C3340     1.0  0.87293  0.26693  0.08256  1.0000
  H   H5741     1.0  0.94962  0.30002  0.17848  1.0000
  H   H5742     1.0  0.81164  0.33891  0.27008  1.0000
  H   H5743     1.0  0.94359  0.25767  0.17250  1.0000
  C   C3341     1.0  0.79137  0.28977  0.15260  1.0000
  C   C3342     1.0  0.78754  0.29896  0.13747  1.0000
  H   H5744     1.0  0.80168  0.31096  0.25889  1.0000
  H   H5745     1.0  0.77519  0.27105  0.27942  1.0000
  C   C3343     1.0  0.82415  0.25455  0.10944  1.0000
  C   C3344     1.0  0.79160  0.32001  0.26503  1.0000
  H   H5746     1.0  0.79695  0.30401  0.12760  1.0000
  H   H5747     1.0  0.77862  0.27995  0.42271  1.0000
  S   S977      1.0  0.97150  0.23860  0.12402  1.0000
  C   C3345     1.0  0.78741  0.29242  0.43687  1.0000
  H   H5748     1.0  0.77275  0.25215  0.09782  1.0000
  C   C3346     1.0  0.88362  0.26008  0.09369  1.0000
  C   C3347     1.0  0.79381  0.25580  0.24437  1.0000
  C   C3348     1.0  0.80735  0.26136  0.24535  1.0000
  H   H5749     1.0  0.82130  0.27954  0.97546  1.0000
  S   S978      1.0  0.76627  0.29523  0.38590  1.0000
  H   H5750     1.0  0.80774  0.27441  0.24113  1.0000
  C   C3349     1.0  0.79949  0.24776  0.29463  1.0000
  H   H5751     1.0  0.75450  0.43652  0.28922  1.0000
  S   S979      1.0  0.74803  0.29546  0.35673  1.0000
  C   C3350     1.0  0.81342  0.24145  0.15734  1.0000
  C   C3351     1.0  0.89049  0.28528  0.18171  1.0000
  C   C3352     1.0  0.87583  0.28506  0.17757  1.0000
  C   C3353     1.0  0.86029  0.29198  0.18671  1.0000
  C   C3354     1.0  0.85954  0.29891  0.19998  1.0000
  C   C3355     1.0  0.87419  0.29904  0.20401  1.0000
  C   C3356     1.0  0.88959  0.29231  0.19488  1.0000
  H   H5752     1.0  0.87650  0.27970  0.16734  1.0000
  H   H5753     1.0  0.84894  0.29194  0.18352  1.0000
  H   H5754     1.0  0.87364  0.30445  0.21419  1.0000
  H   H5755     1.0  0.90084  0.29266  0.19804  1.0000
  C   C3357     1.0  0.78542  0.29093  0.06246  1.0000
  C   C3358     1.0  0.79979  0.29216  0.06639  1.0000
  C   C3359     1.0  0.80013  0.30667  0.07085  1.0000
  H   H5756     1.0  0.81878  0.29119  0.44225  1.0000
  Fe  Fe490     1.0  0.90936  0.26078  0.11808  1.0000
  C   C3360     1.0  0.75055  0.34608  0.24435  1.0000
  H   H5757     1.0  0.81028  0.28171  0.06674  1.0000
  H   H5758     1.0  0.81085  0.30743  0.07470  1.0000
  C   C3361     1.0  0.78353  0.30422  0.01027  1.0000
  C   C3362     1.0  0.78392  0.32286  0.00641  1.0000
  S   S980      1.0  0.89486  0.25409  0.14414  1.0000
  H   H5759     1.0  0.84698  0.25875  0.21987  1.0000
  H   H5760     1.0  0.77045  0.29538  0.46861  1.0000
  C   C3363     1.0  0.98605  0.26847  0.14460  1.0000
  H   H5761     1.0  0.77043  0.24780  0.12729  1.0000
  H   H5762     1.0  0.75246  0.28818  0.11808  1.0000
  C   C3364     1.0  0.86758  0.23968  0.08526  1.0000
  C   C3365     1.0  0.95363  0.28663  0.17806  1.0000
  S   S981      1.0  0.78415  0.25728  0.36616  1.0000
  H   H5763     1.0  0.78058  0.26107  0.44730  1.0000
  H   H5764     1.0  0.76683  0.24865  0.47384  1.0000
  C   C3366     1.0  0.75804  0.35508  0.21452  1.0000
  C   C3367     1.0  0.75633  0.34231  0.22863  1.0000
  C   C3368     1.0  0.78972  0.28472  0.42193  1.0000
  H   H5765     1.0  0.80357  0.27856  0.02803  1.0000
  H   H5766     1.0  0.78553  0.37224  0.21444  1.0000
  H   H5767     1.0  0.75980  0.32950  0.22748  1.0000
  H   H5768     1.0  0.74730  0.25348  0.04783  1.0000
  C   C3369     1.0  0.81271  0.24984  0.13918  1.0000
  C   C3370     1.0  0.78114  0.27018  0.01469  1.0000
  C   C3371     1.0  0.78424  0.24014  0.29756  1.0000
  C   C3372     1.0  0.75895  0.25510  0.10050  1.0000
  C   C3373     1.0  0.83220  0.34552  0.23204  1.0000
  H   H5769     1.0  0.75299  0.28300  0.17361  1.0000
  C   C3374     1.0  0.74247  0.35303  0.34604  1.0000
  C   C3375     1.0  0.78392  0.28945  0.46690  1.0000
  C   C3376     1.0  0.74690  0.37548  0.23182  1.0000
  Fe  Fe491     1.0  0.74211  0.29231  0.40376  1.0000
  C   C3377     1.0  0.78815  0.33705  0.25307  1.0000
  C   C3378     1.0  0.98341  0.24760  0.13172  1.0000
  C   C3379     1.0  0.81735  0.33684  0.23912  1.0000
  H   H5770     1.0  0.80124  0.24822  0.13668  1.0000
  H   H5771     1.0  0.81239  0.27986  0.11408  1.0000
  H   H5772     1.0  0.78140  0.34925  0.28143  1.0000
  H   H5773     1.0  0.85144  0.25300  0.11600  1.0000
  H   H5774     1.0  0.85681  0.26215  0.06971  1.0000
  H   H5775     1.0  0.80614  0.29797  0.46635  1.0000
  H   H5776     1.0  0.78311  0.23459  0.24858  1.0000
  H   H5777     1.0  0.78221  0.36968  0.26830  1.0000
  N   N238      1.0  0.84555  0.31503  0.12444  1.0000
  C   C3380     1.0  0.82841  0.32369  0.12135  1.0000
  C   C3381     1.0  0.84539  0.31540  0.14195  1.0000
  C   C3382     1.0  0.84883  0.29728  0.12259  1.0000
  C   C3383     1.0  0.85798  0.32410  0.11174  1.0000
  C   C3384     1.0  0.82499  0.32282  0.10489  1.0000
  C   C3385     1.0  0.84234  0.33279  0.14555  1.0000
  C   C3386     1.0  0.86124  0.28423  0.13211  1.0000
  C   C3387     1.0  0.87624  0.31834  0.11348  1.0000
  H   H5778     1.0  0.81865  0.31855  0.13154  1.0000
  H   H5779     1.0  0.82582  0.33716  0.12132  1.0000
  H   H5780     1.0  0.85716  0.30834  0.14573  1.0000
  H   H5781     1.0  0.83571  0.30898  0.15087  1.0000
  H   H5782     1.0  0.83712  0.29257  0.12692  1.0000
  H   H5783     1.0  0.85334  0.29650  0.10930  1.0000
  H   H5784     1.0  0.85831  0.32287  0.09910  1.0000
  H   H5785     1.0  0.85416  0.33779  0.11083  1.0000
  H   H5786     1.0  0.81191  0.32929  0.10437  1.0000
  H   H5787     1.0  0.83298  0.32929  0.09393  1.0000
  H   H5788     1.0  0.82625  0.30989  0.10386  1.0000
  H   H5789     1.0  0.82957  0.34005  0.14485  1.0000
  H   H5790     1.0  0.84357  0.33128  0.15845  1.0000
  H   H5791     1.0  0.85166  0.33992  0.13731  1.0000
  H   H5792     1.0  0.87310  0.28800  0.13015  1.0000
  H   H5793     1.0  0.86439  0.27257  0.12760  1.0000
  H   H5794     1.0  0.85566  0.28126  0.14559  1.0000
  H   H5795     1.0  0.88278  0.30769  0.10743  1.0000
  H   H5796     1.0  0.87774  0.31506  0.12642  1.0000
  H   H5797     1.0  0.88272  0.32878  0.10739  1.0000
  H   H5798     1.0  0.79990  0.25186  0.30564  1.0000
  C   C3388     1.0  0.80627  0.26935  0.45261  1.0000
  C   C3389     1.0  0.92356  0.25712  0.22171  1.0000
  N   N239      1.0  0.76738  0.25179  0.30023  1.0000
  H   H5799     1.0  0.84644  0.23361  0.15230  1.0000
  C   C3390     1.0  0.75268  0.37169  0.21605  1.0000
  H   H5800     1.0  0.79376  0.36150  0.28424  1.0000
  C   C3391     1.0  0.77202  0.30453  0.06172  1.0000
  H   H5801     1.0  0.97930  0.26727  0.19963  1.0000
  H   H5802     1.0  0.76808  0.31046  0.12406  1.0000
  C   C3392     1.0  0.93288  0.25095  0.20564  1.0000
  H   H5803     1.0  0.77353  0.25308  0.32260  1.0000
  H   H5804     1.0  0.74821  0.31182  0.31799  1.0000
  C   C3393     1.0  0.77110  0.30282  0.13556  1.0000
  H   H5805     1.0  0.74875  0.28739  0.28679  1.0000
  H   H5806     1.0  0.77995  0.29083  0.10293  1.0000
  H   H5807     1.0  0.74787  0.41986  0.30520  1.0000
  H   H5808     1.0  0.81275  0.31161  0.98875  1.0000
  H   H5809     1.0  0.76835  0.25650  0.27379  1.0000
  H   H5810     1.0  0.75098  0.27619  0.33046  1.0000
  H   H5811     1.0  0.86884  0.25521  0.21807  1.0000
  S   S982      1.0  0.78470  0.33623  0.08043  1.0000
  H   H5812     1.0  0.86294  0.24393  0.14101  1.0000
  H   H5813     1.0  0.78137  0.27202  0.11833  1.0000
  C   C3394     1.0  0.78959  0.35813  0.27469  1.0000
  N   N240      1.0  0.79931  0.29244  0.00387  1.0000
  H   H5814     1.0  0.93145  0.25370  0.23091  1.0000
  H   H5815     1.0  0.76172  0.32927  0.06600  1.0000
  H   H5816     1.0  0.80815  0.26351  0.46542  1.0000
  C   C3395     1.0  0.79577  0.36314  0.23659  1.0000
  H   H5817     1.0  0.78023  0.31480  0.26883  1.0000
  H   H5818     1.0  0.77495  0.30089  0.43826  1.0000
  H   H5819     1.0  0.75479  0.35555  0.32028  1.0000
  H   H5820     1.0  0.78121  0.25786  0.01273  1.0000
  H   H5821     1.0  0.80718  0.36469  0.21001  1.0000
  H   H5822     1.0  0.82932  0.35747  0.22320  1.0000
  N   N241      1.0  0.82792  0.24521  0.12613  1.0000
  H   H5823     1.0  0.74989  0.33613  0.25528  1.0000
  N   N242      1.0  0.80162  0.34682  0.24786  1.0000
  H   H5824     1.0  0.78375  0.32863  0.99319  1.0000
  C   C3396     1.0  0.75476  0.33781  0.16238  1.0000
  H   H5825     1.0  0.78211  0.27602  0.17696  1.0000
  C   C3397     1.0  0.79558  0.36213  0.21895  1.0000
  C   C3398     1.0  0.74948  0.26837  0.32281  1.0000
  H   H5826     1.0  0.79449  0.32093  0.27649  1.0000
  H   H5827     1.0  0.80381  0.37195  0.23507  1.0000
  H   H5828     1.0  0.78552  0.33461  0.24217  1.0000
  H   H5829     1.0  0.77618  0.34439  0.25890  1.0000
  H   H5830     1.0  0.86112  0.25680  0.20033  1.0000
  H   H5831     1.0  0.83062  0.25441  0.25320  1.0000
  H   H5832     1.0  0.96356  0.26803  0.13798  1.0000
  H   H5833     1.0  0.82190  0.32510  0.24764  1.0000
  H   H5834     1.0  0.83395  0.28488  0.98621  1.0000
  H   H5835     1.0  0.80018  0.30626  0.97863  1.0000
  Fe  Fe492     1.0  0.80639  0.25255  0.05637  1.0000
  H   H5836     1.0  0.74656  0.47415  0.25899  1.0000
  C   C3399     1.0  0.75856  0.29747  0.14875  1.0000
  C   C3400     1.0  0.82029  0.25008  0.25213  1.0000
  H   H5837     1.0  0.95712  0.25640  0.21756  1.0000
  H   H5838     1.0  0.79003  0.28136  0.98923  1.0000
  H   H5839     1.0  0.80021  0.25816  0.28363  1.0000
  H   H5840     1.0  0.81355  0.35915  0.25873  1.0000
  N   N243      1.0  0.78903  0.28020  0.45305  1.0000
  C   C3401     1.0  0.76558  0.26340  0.28379  1.0000
  H   H5841     1.0  0.75108  0.23716  0.02946  1.0000
  C   C3402     1.0  0.81605  0.29851  0.02163  1.0000
  H   H5842     1.0  0.83387  0.24972  0.09928  1.0000
  C   C3403     1.0  0.85357  0.23788  0.13971  1.0000
  C   C3404     1.0  0.95352  0.25240  0.17973  1.0000
  H   H5843     1.0  0.79322  0.35035  0.21810  1.0000
  H   H5844     1.0  0.83686  0.34748  0.24203  1.0000
  C   C3405     1.0  0.78133  0.24258  0.35704  1.0000
  C   C3406     1.0  0.75446  0.24125  0.30668  1.0000
  H   H5845     1.0  0.75426  0.40721  0.33098  1.0000
  C   C3407     1.0  0.80861  0.30091  0.98750  1.0000
  S   S983      1.0  0.89344  0.27306  0.09894  1.0000
  C   C3408     1.0  0.97861  0.25508  0.19797  1.0000
  H   H5846     1.0  0.77927  0.30012  0.02395  1.0000
  Fe  Fe493     1.0  0.76187  0.27648  0.37467  1.0000
  S   S984      1.0  0.75853  0.33691  0.35264  1.0000
  C   C3409     1.0  0.82266  0.27358  0.10535  1.0000
  H   H5847     1.0  0.81004  0.26335  0.13872  1.0000
  C   C3410     1.0  0.77713  0.27822  0.10663  1.0000
  H   H5848     1.0  0.82133  0.27650  0.01198  1.0000
  H   H5849     1.0  0.77319  0.30406  0.00483  1.0000
  N   N244      1.0  0.75176  0.26435  0.11439  1.0000
  Fe  Fe494     1.0  0.94326  0.24657  0.12837  1.0000
  H   H5850     1.0  0.81152  0.23374  0.00724  1.0000
  C   C3411     1.0  0.82425  0.28989  0.97878  1.0000
  C   C3412     1.0  0.97640  0.26194  0.13810  1.0000
  H   H5851     1.0  0.87098  0.28010  0.07705  1.0000
  H   H5852     1.0  0.76436  0.27678  0.45484  1.0000
  S   S985      1.0  0.74946  0.33174  0.47258  1.0000
  H   H5853     1.0  0.74716  0.31931  0.42091  1.0000
  H   H5854     1.0  0.74052  0.23964  0.10503  1.0000
  H   H5855     1.0  0.75518  0.24458  0.36796  1.0000
  H   H5856     1.0  0.76113  0.30380  0.05818  1.0000
  C   C3413     1.0  0.78610  0.31979  0.07136  1.0000
  H   H5857     1.0  0.83446  0.27696  0.10473  1.0000
  C   C3414     1.0  0.77429  0.25747  0.47372  1.0000
  H   H5858     1.0  0.78323  0.26822  0.02725  1.0000
  C   C3415     1.0  0.86493  0.25678  0.07834  1.0000
  H   H5859     1.0  0.95154  0.28564  0.16621  1.0000
  H   H5860     1.0  0.80702  0.23794  0.34427  1.0000
  C   C3416     1.0  0.75411  0.23839  0.10311  1.0000
  C   C3417     1.0  0.74663  0.32590  0.44367  1.0000
  H   H5861     1.0  0.93019  0.28107  0.19083  1.0000
  H   H5862     1.0  0.78454  0.27174  0.09661  1.0000
  S   S986      1.0  0.74356  0.32257  0.10063  1.0000
  H   H5863     1.0  0.77328  0.27175  0.30711  1.0000
  H   H5864     1.0  0.74996  0.36021  0.17041  1.0000
  C   C3418     1.0  0.88608  0.24304  0.10072  1.0000
  H   H5865     1.0  0.79469  0.32532  0.00931  1.0000
  H   H5866     1.0  0.74960  0.33086  0.15663  1.0000
  S   S987      1.0  0.74299  0.36665  0.26567  1.0000
  H   H5867     1.0  0.89421  0.23760  0.10935  1.0000
  C   C3419     1.0  0.74693  0.24148  0.14137  1.0000
  H   H5868     1.0  0.83716  0.24929  0.19991  1.0000
  C   C3420     1.0  0.76676  0.26127  0.31293  1.0000
  H   H5869     1.0  0.83169  0.27185  0.44926  1.0000
  H   H5870     1.0  0.94274  0.28104  0.20415  1.0000
  C   C3421     1.0  0.85921  0.25197  0.21385  1.0000
  H   H5871     1.0  0.82454  0.29189  0.03018  1.0000
  H   H5872     1.0  0.76849  0.27794  0.01425  1.0000
  H   H5873     1.0  0.83853  0.26225  0.13257  1.0000
  H   H5874     1.0  0.76664  0.34018  0.15385  1.0000
  H   H5875     1.0  0.98059  0.27965  0.14936  1.0000
  C   C3422     1.0  0.75506  0.24092  0.05151  1.0000
  C   C3423     1.0  0.76590  0.23840  0.36006  1.0000
  H   H5876     1.0  0.75989  0.23346  0.09168  1.0000
  C   C3424     1.0  0.81705  0.23558  0.99422  1.0000
  H   H5877     1.0  0.79218  0.31299  0.45376  1.0000
  C   C3425     1.0  0.74314  0.35455  0.16498  1.0000
  C   C3426     1.0  0.74642  0.36263  0.24597  1.0000
  C   C3427     1.0  0.83234  0.24040  0.98815  1.0000
  H   H5878     1.0  0.75279  0.44408  0.31457  1.0000
  S   S988      1.0  0.92732  0.23606  0.11853  1.0000
  Fe  Fe495     1.0  0.75810  0.34245  0.09426  1.0000
  H   H5879     1.0  0.76796  0.24282  0.04864  1.0000
  H   H5880     1.0  0.75390  0.38161  0.20512  1.0000
  H   H5881     1.0  0.96428  0.25740  0.17169  1.0000
  S   S989      1.0  0.75296  0.34524  0.12044  1.0000
  H   H5882     1.0  0.92361  0.25385  0.19779  1.0000
  H   H5883     1.0  0.82779  0.24216  0.22083  1.0000
  C   C3428     1.0  0.75821  0.28019  0.10888  1.0000
  H   H5884     1.0  0.82318  0.30621  0.01097  1.0000
  H   H5885     1.0  0.74694  0.43050  0.34221  1.0000
  H   H5886     1.0  0.81168  0.24236  0.20104  1.0000
  H   H5887     1.0  0.79092  0.29453  0.41037  1.0000
  C   C3429     1.0  0.74062  0.44451  0.31197  1.0000
  H   H5888     1.0  0.80769  0.25885  0.44667  1.0000
  H   H5889     1.0  0.81230  0.25265  0.10808  1.0000
  H   H5890     1.0  0.75798  0.33006  0.17414  1.0000
  H   H5891     1.0  0.80101  0.27466  0.42070  1.0000
  C   C3430     1.0  0.83463  0.23790  0.20920  1.0000
  N   N245      1.0  0.94806  0.25788  0.19598  1.0000
  C   C3431     1.0  0.75717  0.25441  0.13017  1.0000
  S   S990      1.0  0.80620  0.23734  0.03919  1.0000
  H   H5892     1.0  0.74369  0.38829  0.23303  1.0000
  H   H5893     1.0  0.91839  0.27071  0.21927  1.0000
  H   H5894     1.0  0.80570  0.26756  0.99927  1.0000
  C   C3432     1.0  0.84265  0.25040  0.12816  1.0000
  H   H5895     1.0  0.80052  0.24181  0.16483  1.0000
  H   H5896     1.0  0.74241  0.46998  0.32334  1.0000
  H   H5897     1.0  0.78620  0.23455  0.28675  1.0000
  C   C3433     1.0  0.79307  0.30319  0.46518  1.0000
  H   H5898     1.0  0.98278  0.25477  0.18469  1.0000
  C   C3434     1.0  0.74889  0.27593  0.28304  1.0000
  S   S991      1.0  0.93081  0.23830  0.15476  1.0000
  C   C3435     1.0  0.74413  0.43320  0.29969  1.0000
  C   C3436     1.0  0.79512  0.23458  0.34680  1.0000
  C   C3437     1.0  0.74405  0.31602  0.43431  1.0000
  H   H5899     1.0  0.81962  0.24815  0.16243  1.0000
  H   H5900     1.0  0.75168  0.33684  0.43743  1.0000
  H   H5901     1.0  0.75477  0.28765  0.09698  1.0000
  H   H5902     1.0  0.74344  0.45676  0.34373  1.0000
  Fe  Fe496     1.0  0.75042  0.31400  0.36944  1.0000
  H   H5903     1.0  0.87517  0.23965  0.18421  1.0000
  C   C3438     1.0  0.74395  0.36018  0.32912  1.0000
  H   H5904     1.0  0.91278  0.25105  0.22755  1.0000
  C   C3439     1.0  0.77683  0.26917  0.45643  1.0000
  H   H5905     1.0  0.85573  0.24369  0.17761  1.0000
  C   C3440     1.0  0.74105  0.40975  0.33768  1.0000
  H   H5906     1.0  0.81097  0.23803  0.29230  1.0000
  H   H5907     1.0  0.74718  0.27939  0.27007  1.0000
  H   H5908     1.0  0.74166  0.24880  0.30942  1.0000
  H   H5909     1.0  0.74380  0.25823  0.33161  1.0000
  H   H5910     1.0  0.75212  0.23764  0.28298  1.0000
  H   H5911     1.0  0.75168  0.23658  0.06507  1.0000
  C   C3441     1.0  0.74348  0.32115  0.46104  1.0000
  H   H5912     1.0  0.98803  0.24528  0.20388  1.0000
  H   H5913     1.0  0.75620  0.23289  0.31883  1.0000
  H   H5914     1.0  0.96273  0.23763  0.21119  1.0000
  C   C3442     1.0  0.81970  0.23326  0.25781  1.0000
  H   H5915     1.0  0.93614  0.23715  0.20936  1.0000
  C   C3443     1.0  0.95834  0.23348  0.18087  1.0000
  C   C3444     1.0  0.86631  0.23398  0.18151  1.0000
  H   H5916     1.0  0.74081  0.27624  0.31493  1.0000
  C   C3445     1.0  0.87813  0.23292  0.09650  1.0000
  C   C3446     1.0  0.80877  0.23315  0.98336  1.0000
  C   C3447     1.0  0.86051  0.23295  0.21910  1.0000
  H   H5917     1.0  0.93107  0.25199  0.81250  1.0000
  C   C3448     1.0  0.74672  0.34451  0.56028  1.0000
  H   H5918     1.0  0.82988  0.29758  0.96696  1.0000
  Fe  Fe497     1.0  0.76941  0.29517  0.52290  1.0000
  S   S992      1.0  0.79467  0.27929  0.52505  1.0000
  H   H5919     1.0  0.78559  0.28077  0.47889  1.0000
  H   H5920     1.0  0.80665  0.34078  0.56129  1.0000
  S   S993      1.0  0.76378  0.32291  0.51450  1.0000
  S   S994      1.0  0.78184  0.36567  0.65269  1.0000
  S   S995      1.0  0.78875  0.38914  0.60543  1.0000
  H   H5921     1.0  0.78239  0.47545  0.63007  1.0000
  C   C3449     1.0  0.75604  0.23602  0.75332  1.0000
  H   H5922     1.0  0.81026  0.43421  0.59488  1.0000
  H   H5923     1.0  0.74420  0.41443  0.55231  1.0000
  H   H5924     1.0  0.74629  0.27653  0.74145  1.0000
  H   H5925     1.0  0.79903  0.39183  0.63715  1.0000
  S   S996      1.0  0.75627  0.37091  0.61899  1.0000
  Fe  Fe498     1.0  0.74224  0.31482  0.84304  1.0000
  H   H5926     1.0  0.84160  0.28436  0.56211  1.0000
  S   S997      1.0  0.81446  0.25526  0.86728  1.0000
  H   H5927     1.0  0.82051  0.26054  0.65131  1.0000
  H   H5928     1.0  0.84608  0.24674  0.79636  1.0000
  Fe  Fe499     1.0  0.80973  0.25473  0.70891  1.0000
  S   S998      1.0  0.83266  0.25181  0.68884  1.0000
  H   H5929     1.0  0.85126  0.24615  0.96629  1.0000
  Fe  Fe500     1.0  0.81718  0.28454  0.71612  1.0000
  S   S999      1.0  0.84064  0.28423  0.69639  1.0000
  S   S1000     1.0  0.80736  0.30501  0.73014  1.0000
  Fe  Fe501     1.0  0.82574  0.27962  0.68097  1.0000
  S   S1001     1.0  0.82426  0.29229  0.65458  1.0000
  Fe  Fe502     1.0  0.84510  0.25662  0.70642  1.0000
  H   H5930     1.0  0.91415  0.24859  0.84887  1.0000
  S   S1002     1.0  0.80189  0.28218  0.69994  1.0000
  S   S1003     1.0  0.82257  0.25718  0.72722  1.0000
  H   H5931     1.0  0.81896  0.29482  0.82544  1.0000
  N   N246      1.0  0.76682  0.23615  0.56390  1.0000
  S   S1004     1.0  0.80115  0.25989  0.59960  1.0000
  H   H5932     1.0  0.79251  0.29513  0.60359  1.0000
  S   S1005     1.0  0.77675  0.27813  0.80500  1.0000
  H   H5933     1.0  0.91413  0.24895  0.86951  1.0000
  C   C3450     1.0  0.78694  0.24038  0.84950  1.0000
  H   H5934     1.0  0.82747  0.33029  0.55659  1.0000
  H   H5935     1.0  0.77407  0.31100  0.60506  1.0000
  C   C3451     1.0  0.83133  0.23962  0.96027  1.0000
  H   H5936     1.0  0.77064  0.31066  0.78372  1.0000
  H   H5937     1.0  0.81942  0.31135  0.60055  1.0000
  C   C3452     1.0  0.79339  0.31804  0.58390  1.0000
  C   C3453     1.0  0.81593  0.23502  0.96638  1.0000
  H   H5938     1.0  0.76194  0.29671  0.74468  1.0000
  H   H5939     1.0  0.95332  0.24498  0.81026  1.0000
  S   S1006     1.0  0.79050  0.23913  0.71730  1.0000
  S   S1007     1.0  0.75893  0.32175  0.81811  1.0000
  S   S1008     1.0  0.75401  0.40746  0.59277  1.0000
  C   C3454     1.0  0.84688  0.28731  0.77702  1.0000
  S   S1009     1.0  0.74779  0.29438  0.54458  1.0000
  H   H5940     1.0  0.94280  0.24658  0.85271  1.0000
  C   C3455     1.0  0.78754  0.30850  0.76030  1.0000
  C   C3456     1.0  0.80018  0.29800  0.75139  1.0000
  C   C3457     1.0  0.80637  0.28178  0.75935  1.0000
  C   C3458     1.0  0.79925  0.27574  0.77593  1.0000
  C   C3459     1.0  0.81456  0.32819  0.56057  1.0000
  H   H5941     1.0  0.81650  0.27383  0.75268  1.0000
  H   H5942     1.0  0.80353  0.26297  0.78183  1.0000
  H   H5943     1.0  0.77113  0.28182  0.62897  1.0000
  H   H5944     1.0  0.76567  0.26011  0.84521  1.0000
  H   H5945     1.0  0.85192  0.23716  0.82228  1.0000
  H   H5946     1.0  0.76550  0.26464  0.73293  1.0000
  H   H5947     1.0  0.77876  0.26976  0.69036  1.0000
  H   H5948     1.0  0.84085  0.27328  0.82711  1.0000
  Fe  Fe503     1.0  0.75586  0.29812  0.81404  1.0000
  C   C3460     1.0  0.81987  0.32070  0.58861  1.0000
  C   C3461     1.0  0.78661  0.27508  0.88322  1.0000
  H   H5949     1.0  0.79011  0.26832  0.89481  1.0000
  H   H5950     1.0  0.74567  0.26200  0.59203  1.0000
  N   N247      1.0  0.77798  0.26731  0.65190  1.0000
  H   H5951     1.0  0.75480  0.24185  0.74038  1.0000
  C   C3462     1.0  0.78681  0.44652  0.60777  1.0000
  H   H5952     1.0  0.76378  0.23466  0.64642  1.0000
  H   H5953     1.0  0.80974  0.24454  0.65485  1.0000
  H   H5954     1.0  0.84317  0.30510  0.55967  1.0000
  N   N248      1.0  0.81188  0.31638  0.57724  1.0000
  Fe  Fe504     1.0  0.77111  0.38222  0.59456  1.0000
  H   H5955     1.0  0.77331  0.43395  0.65889  1.0000
  H   H5956     1.0  0.74998  0.24289  0.53750  1.0000
  H   H5957     1.0  0.78699  0.33130  0.58320  1.0000
  C   C3463     1.0  0.76947  0.25039  0.85591  1.0000
  C   C3464     1.0  0.86212  0.24909  0.74130  1.0000
  C   C3465     1.0  0.86469  0.24724  0.75719  1.0000
  H   H5958     1.0  0.75744  0.30818  0.63671  1.0000
  H   H5959     1.0  0.77930  0.24733  0.78573  1.0000
  H   H5960     1.0  0.85130  0.25771  0.73758  1.0000
  H   H5961     1.0  0.85576  0.25432  0.76560  1.0000
  C   C3466     1.0  0.81262  0.33814  0.59251  1.0000
  H   H5962     1.0  0.78783  0.31359  0.57611  1.0000
  C   C3467     1.0  0.78630  0.28609  0.78470  1.0000
  H   H5963     1.0  0.80062  0.26997  0.63325  1.0000
  H   H5964     1.0  0.79539  0.24913  0.84342  1.0000
  C   C3468     1.0  0.77200  0.42254  0.65609  1.0000
  C   C3469     1.0  0.79345  0.34528  0.65285  1.0000
  C   C3470     1.0  0.79708  0.33817  0.63907  1.0000
  C   C3471     1.0  0.80664  0.32188  0.63958  1.0000
  C   C3472     1.0  0.81248  0.31271  0.65385  1.0000
  C   C3473     1.0  0.80876  0.31985  0.66758  1.0000
  C   C3474     1.0  0.79929  0.33609  0.66706  1.0000
  H   H5965     1.0  0.79256  0.34526  0.62809  1.0000
  H   H5966     1.0  0.80950  0.31634  0.62899  1.0000
  H   H5967     1.0  0.81335  0.31295  0.67858  1.0000
  H   H5968     1.0  0.79652  0.34153  0.67775  1.0000
  C   C3475     1.0  0.79709  0.27450  0.54554  1.0000
  C   C3476     1.0  0.80907  0.26065  0.55083  1.0000
  C   C3477     1.0  0.81028  0.25598  0.56750  1.0000
  C   C3478     1.0  0.79957  0.26523  0.57885  1.0000
  C   C3479     1.0  0.78778  0.27923  0.57351  1.0000
  C   C3480     1.0  0.78664  0.28394  0.55684  1.0000
  S   S1010     1.0  0.75621  0.29073  0.50595  1.0000
  H   H5969     1.0  0.81958  0.24531  0.57151  1.0000
  H   H5970     1.0  0.77947  0.28640  0.58226  1.0000
  H   H5971     1.0  0.77768  0.29491  0.55275  1.0000
  H   H5972     1.0  0.74702  0.27399  0.87238  1.0000
  C   C3481     1.0  0.77211  0.28782  0.88309  1.0000
  H   H5973     1.0  0.75756  0.26534  0.67327  1.0000
  C   C3482     1.0  0.76554  0.29917  0.64477  1.0000
  H   H5974     1.0  0.80463  0.25764  0.66963  1.0000
  H   H5975     1.0  0.86540  0.25169  0.81665  1.0000
  H   H5976     1.0  0.78284  0.32112  0.75420  1.0000
  C   C3483     1.0  0.75313  0.35688  0.57953  1.0000
  C   C3484     1.0  0.79655  0.27125  0.86826  1.0000
  S   S1011     1.0  0.88138  0.23386  0.78241  1.0000
  C   C3485     1.0  0.81082  0.32315  0.54628  1.0000
  C   C3486     1.0  0.83857  0.26322  0.82269  1.0000
  S   S1012     1.0  0.74889  0.31158  0.86747  1.0000
  H   H5977     1.0  0.77651  0.25205  0.67671  1.0000
  C   C3487     1.0  0.78061  0.30256  0.77698  1.0000
  S   S1013     1.0  0.83409  0.24471  0.90753  1.0000
  C   C3488     1.0  0.75165  0.24958  0.58911  1.0000
  H   H5978     1.0  0.76559  0.46144  0.62115  1.0000
  C   C3489     1.0  0.81954  0.29861  0.57585  1.0000
  H   H5979     1.0  0.81927  0.33978  0.60117  1.0000
  C   C3490     1.0  0.81366  0.45102  0.60776  1.0000
  H   H5980     1.0  0.82148  0.23515  0.80352  1.0000
  H   H5981     1.0  0.79802  0.32103  0.54916  1.0000
  H   H5982     1.0  0.78390  0.35625  0.54477  1.0000
  C   C3491     1.0  0.77836  0.25170  0.64668  1.0000
  S   S1014     1.0  0.86983  0.24074  0.71091  1.0000
  C   C3492     1.0  0.74016  0.25138  0.87122  1.0000
  C   C3493     1.0  0.75969  0.25002  0.53520  1.0000
  S   S1015     1.0  0.78122  0.36945  0.57289  1.0000
  H   H5983     1.0  0.78659  0.26344  0.75641  1.0000
  H   H5984     1.0  0.75952  0.42025  0.66303  1.0000
  H   H5985     1.0  0.82804  0.39509  0.65446  1.0000
  H   H5986     1.0  0.78125  0.39615  0.66143  1.0000
  H   H5987     1.0  0.76517  0.34300  0.53764  1.0000
  H   H5988     1.0  0.79153  0.31342  0.61088  1.0000
  H   H5989     1.0  0.81990  0.31195  0.54287  1.0000
  H   H5990     1.0  0.80816  0.25257  0.81123  1.0000
  H   H5991     1.0  0.94077  0.25525  0.82666  1.0000
  H   H5992     1.0  0.77401  0.29869  0.84165  1.0000
  C   C3494     1.0  0.76800  0.35951  0.56842  1.0000
  H   H5993     1.0  0.79926  0.33993  0.59867  1.0000
  H   H5994     1.0  0.80357  0.47950  0.57039  1.0000
  H   H5995     1.0  0.75502  0.24508  0.66302  1.0000
  H   H5996     1.0  0.83825  0.29948  0.77794  1.0000
  C   C3495     1.0  0.80417  0.44286  0.60294  1.0000
  C   C3496     1.0  0.74817  0.40091  0.55298  1.0000
  H   H5997     1.0  0.81187  0.33341  0.53510  1.0000
  H   H5998     1.0  0.83696  0.24108  0.94717  1.0000
  C   C3497     1.0  0.79195  0.28001  0.85337  1.0000
  C   C3498     1.0  0.77903  0.45826  0.61768  1.0000
  C   C3499     1.0  0.78786  0.30876  0.60191  1.0000
  C   C3500     1.0  0.83850  0.29459  0.56882  1.0000
  C   C3501     1.0  0.93749  0.23524  0.85713  1.0000
  C   C3502     1.0  0.74117  0.26379  0.88076  1.0000
  H   H5999     1.0  0.81331  0.29432  0.56855  1.0000
  H   H6000     1.0  0.77219  0.42482  0.64273  1.0000
  C   C3503     1.0  0.76749  0.29643  0.86804  1.0000
  H   H6001     1.0  0.77452  0.24006  0.88670  1.0000
  C   C3504     1.0  0.80810  0.25731  0.65631  1.0000
  H   H6002     1.0  0.76571  0.25176  0.52181  1.0000
  H   H6003     1.0  0.84209  0.28085  0.77040  1.0000
  C   C3505     1.0  0.76149  0.24684  0.64979  1.0000
  C   C3506     1.0  0.75953  0.27225  0.74245  1.0000
  C   C3507     1.0  0.76694  0.28152  0.64252  1.0000
  H   H6004     1.0  0.78407  0.25258  0.63326  1.0000
  C   C3508     1.0  0.94121  0.24628  0.81937  1.0000
  N   N249      1.0  0.80291  0.40721  0.65145  1.0000
  C   C3509     1.0  0.80397  0.40311  0.63517  1.0000
  C   C3510     1.0  0.78542  0.40732  0.66160  1.0000
  C   C3511     1.0  0.81495  0.39453  0.66092  1.0000
  C   C3512     1.0  0.80722  0.42393  0.64799  1.0000
  C   C3513     1.0  0.81870  0.29789  0.81210  1.0000
  C   C3514     1.0  0.81319  0.37635  0.66450  1.0000
  C   C3515     1.0  0.80629  0.43054  0.66330  1.0000
  H   H6005     1.0  0.79588  0.41313  0.62780  1.0000
  H   H6006     1.0  0.78472  0.40627  0.67495  1.0000
  C   C3516     1.0  0.82143  0.40030  0.62373  1.0000
  H   H6007     1.0  0.79943  0.27696  0.84188  1.0000
  H   H6008     1.0  0.81354  0.39736  0.67318  1.0000
  H   H6009     1.0  0.82015  0.42370  0.64060  1.0000
  H   H6010     1.0  0.79954  0.43352  0.63994  1.0000
  H   H6011     1.0  0.83020  0.38958  0.62946  1.0000
  C   C3517     1.0  0.85363  0.24856  0.82473  1.0000
  C   C3518     1.0  0.74252  0.34942  0.57546  1.0000
  H   H6012     1.0  0.74968  0.36079  0.59116  1.0000
  H   H6013     1.0  0.80083  0.37463  0.67230  1.0000
  H   H6014     1.0  0.82262  0.36818  0.67152  1.0000
  H   H6015     1.0  0.81542  0.37182  0.65301  1.0000
  H   H6016     1.0  0.81858  0.42686  0.66675  1.0000
  H   H6017     1.0  0.79691  0.42624  0.67427  1.0000
  H   H6018     1.0  0.80255  0.44435  0.66037  1.0000
  S   S1016     1.0  0.81829  0.47369  0.62222  1.0000
  H   H6019     1.0  0.85504  0.24549  0.83776  1.0000
  H   H6020     1.0  0.78209  0.28533  0.67191  1.0000
  H   H6021     1.0  0.96652  0.23480  0.83517  1.0000
  C   C3519     1.0  0.79558  0.26999  0.64668  1.0000
  H   H6022     1.0  0.85892  0.28998  0.76911  1.0000
  H   H6023     1.0  0.82707  0.44832  0.60370  1.0000
  H   H6024     1.0  0.79635  0.28231  0.64773  1.0000
  C   C3520     1.0  0.77307  0.24118  0.54543  1.0000
  H   H6025     1.0  0.83337  0.32009  0.58320  1.0000
  H   H6026     1.0  0.82743  0.25945  0.83169  1.0000
  H   H6027     1.0  0.78627  0.24071  0.65321  1.0000
  H   H6028     1.0  0.82037  0.39735  0.61231  1.0000
  H   H6029     1.0  0.84538  0.29062  0.57897  1.0000
  C   C3521     1.0  0.78853  0.46646  0.62247  1.0000
  C   C3522     1.0  0.77246  0.35415  0.55347  1.0000
  H   H6030     1.0  0.82384  0.23882  0.82206  1.0000
  S   S1017     1.0  0.77482  0.43972  0.59830  1.0000
  C   C3523     1.0  0.82106  0.24509  0.80972  1.0000
  H   H6031     1.0  0.76146  0.28488  0.68408  1.0000
  H   H6032     1.0  0.76554  0.26118  0.56582  1.0000
  C   C3524     1.0  0.76747  0.28763  0.73660  1.0000
  H   H6033     1.0  0.75939  0.30064  0.65755  1.0000
  H   H6034     1.0  0.82674  0.41157  0.61966  1.0000
  C   C3525     1.0  0.76189  0.34660  0.54943  1.0000
  C   C3526     1.0  0.77360  0.27702  0.67936  1.0000
  H   H6035     1.0  0.81728  0.25341  0.54209  1.0000
  H   H6036     1.0  0.81599  0.28665  0.79363  1.0000
  H   H6037     1.0  0.78180  0.24959  0.54269  1.0000
  H   H6038     1.0  0.86096  0.26683  0.79172  1.0000
  C   C3527     1.0  0.77116  0.26483  0.67035  1.0000
  H   H6039     1.0  0.80870  0.27695  0.81425  1.0000
  C   C3528     1.0  0.83943  0.24244  0.97112  1.0000
  C   C3529     1.0  0.80589  0.46310  0.61726  1.0000
  C   C3530     1.0  0.84971  0.27683  0.79418  1.0000
  H   H6040     1.0  0.76439  0.29085  0.89459  1.0000
  H   H6041     1.0  0.77115  0.25745  0.86410  1.0000
  H   H6042     1.0  0.76703  0.26449  0.48345  1.0000
  H   H6043     1.0  0.75326  0.25576  0.64186  1.0000
  H   H6044     1.0  0.75035  0.39440  0.56549  1.0000
  H   H6045     1.0  0.81753  0.29004  0.58820  1.0000
  H   H6046     1.0  0.81442  0.34813  0.58123  1.0000
  C   C3531     1.0  0.77921  0.25388  0.75899  1.0000
  H   H6047     1.0  0.76541  0.29421  0.72402  1.0000
  H   H6048     1.0  0.78111  0.28412  0.73550  1.0000
  C   C3532     1.0  0.77744  0.29235  0.85326  1.0000
  H   H6049     1.0  0.83041  0.26039  0.78656  1.0000
  H   H6050     1.0  0.77754  0.30317  0.64091  1.0000
  C   C3533     1.0  0.75319  0.23366  0.85118  1.0000
  H   H6051     1.0  0.75079  0.24386  0.84024  1.0000
  N   N250      1.0  0.76112  0.26192  0.75947  1.0000
  H   H6052     1.0  0.85347  0.28478  0.80019  1.0000
  H   H6053     1.0  0.80673  0.30684  0.81078  1.0000
  Fe  Fe505     1.0  0.77248  0.37973  0.62975  1.0000
  H   H6054     1.0  0.82884  0.30436  0.80484  1.0000
  Fe  Fe506     1.0  0.77027  0.41350  0.60591  1.0000
  N   N251      1.0  0.83533  0.26950  0.80544  1.0000
  C   C3534     1.0  0.81925  0.28236  0.80599  1.0000
  C   C3535     1.0  0.83386  0.25552  0.79879  1.0000
  C   C3536     1.0  0.91838  0.24098  0.86025  1.0000
  Fe  Fe507     1.0  0.82145  0.23895  0.89070  1.0000
  H   H6055     1.0  0.74771  0.25790  0.89100  1.0000
  H   H6056     1.0  0.89701  0.23649  0.66047  1.0000
  H   H6057     1.0  0.86555  0.23904  0.65123  1.0000
  H   H6058     1.0  0.78765  0.47965  0.58841  1.0000
  C   C3537     1.0  0.87357  0.23988  0.73030  1.0000
  H   H6059     1.0  0.75480  0.26458  0.78498  1.0000
  H   H6060     1.0  0.74626  0.25770  0.56498  1.0000
  H   H6061     1.0  0.86870  0.23577  0.67816  1.0000
  H   H6062     1.0  0.76390  0.28050  0.77053  1.0000
  C   C3538     1.0  0.75505  0.27248  0.77227  1.0000
  S   S1018     1.0  0.75547  0.40461  0.63116  1.0000
  H   H6063     1.0  0.78561  0.23767  0.57578  1.0000
  H   H6064     1.0  0.78466  0.24741  0.74854  1.0000
  C   C3539     1.0  0.87876  0.23629  0.76218  1.0000
  N   N252      1.0  0.75626  0.24037  0.86436  1.0000
  H   H6065     1.0  0.76046  0.39870  0.54430  1.0000
  H   H6066     1.0  0.76201  0.24430  0.59569  1.0000
  H   H6067     1.0  0.75394  0.27975  0.64614  1.0000
  H   H6068     1.0  0.78623  0.25006  0.47691  1.0000
  H   H6069     1.0  0.74214  0.24186  0.59417  1.0000
  C   C3540     1.0  0.78320  0.24143  0.77490  1.0000
  H   H6070     1.0  0.75374  0.26258  0.53751  1.0000
  C   C3541     1.0  0.75081  0.24894  0.76426  1.0000
  H   H6071     1.0  0.78071  0.46877  0.56853  1.0000
  Fe  Fe508     1.0  0.74831  0.31852  0.49939  1.0000
  C   C3542     1.0  0.75762  0.25178  0.57011  1.0000
  H   H6072     1.0  0.78713  0.23378  0.84003  1.0000
  H   H6073     1.0  0.74146  0.38007  0.54987  1.0000
  H   H6074     1.0  0.79689  0.23678  0.77298  1.0000
  Fe  Fe509     1.0  0.74104  0.32192  0.53514  1.0000
  Fe  Fe510     1.0  0.74060  0.39675  0.61816  1.0000
  H   H6075     1.0  0.75069  0.24202  0.77727  1.0000
  S   S1019     1.0  0.74061  0.29060  0.83924  1.0000
  H   H6076     1.0  0.78697  0.30957  0.47566  1.0000
  C   C3543     1.0  0.77944  0.48246  0.56604  1.0000
  H   H6077     1.0  0.94356  0.70398  0.21810  1.0000
  Fe  Fe511     1.0  0.75198  0.64001  0.36514  1.0000
  H   H6078     1.0  0.82002  0.56260  0.47091  1.0000
  C   C3544     1.0  0.82105  0.68242  0.97986  1.0000
  H   H6079     1.0  0.88921  0.62586  0.08166  1.0000
  H   H6080     1.0  0.98857  0.68804  0.09967  1.0000
  C   C3545     1.0  0.97613  0.70387  0.14154  1.0000
  S   S1020     1.0  0.78225  0.53102  0.25706  1.0000
  H   H6081     1.0  0.81174  0.61198  0.99607  1.0000
  H   H6082     1.0  0.88615  0.71282  0.98152  1.0000
  H   H6083     1.0  0.80218  0.64033  0.99138  1.0000
  H   H6084     1.0  0.75900  0.57635  0.18206  1.0000
  Fe  Fe512     1.0  0.78885  0.63138  0.36272  1.0000
  S   S1021     1.0  0.81278  0.63968  0.34932  1.0000
  S   S1022     1.0  0.78814  0.60666  0.38061  1.0000
  Fe  Fe513     1.0  0.83681  0.67742  0.05115  1.0000
  H   H6085     1.0  0.81299  0.52723  0.23337  1.0000
  S   S1023     1.0  0.86021  0.67354  0.06051  1.0000
  S   S1024     1.0  0.79797  0.67863  0.03491  1.0000
  Fe  Fe514     1.0  0.81205  0.65759  0.05119  1.0000
  S   S1025     1.0  0.80483  0.63297  0.06281  1.0000
  S   S1026     1.0  0.83711  0.66037  0.03526  1.0000
  Fe  Fe515     1.0  0.92621  0.71697  0.11292  1.0000
  C   C3546     1.0  0.77869  0.56930  0.28407  1.0000
  Fe  Fe516     1.0  0.90076  0.69666  0.13475  1.0000
  S   S1027     1.0  0.87925  0.71811  0.13193  1.0000
  S   S1028     1.0  0.89548  0.67287  0.15218  1.0000
  Fe  Fe517     1.0  0.89204  0.72258  0.10504  1.0000
  H   H6086     1.0  0.83009  0.59590  0.01200  1.0000
  S   S1029     1.0  0.95320  0.71918  0.10281  1.0000
  H   H6087     1.0  0.90439  0.69303  0.00927  1.0000
  S   S1030     1.0  0.91294  0.70008  0.10766  1.0000
  S   S1031     1.0  0.91612  0.71106  0.14026  1.0000
  C   C3547     1.0  0.87871  0.62708  0.10750  1.0000
  S   S1032     1.0  0.81628  0.71606  0.23589  1.0000
  H   H6088     1.0  0.80687  0.69496  0.28383  1.0000
  H   H6089     1.0  0.79483  0.60282  0.00852  1.0000
  H   H6090     1.0  0.74853  0.54612  0.15888  1.0000
  H   H6091     1.0  0.80003  0.55095  0.27429  1.0000
  H   H6092     1.0  0.84653  0.72216  0.01400  1.0000
  H   H6093     1.0  0.85876  0.61148  0.15604  1.0000
  C   C3548     1.0  0.79958  0.58623  0.26735  1.0000
  Fe  Fe518     1.0  0.82307  0.68286  0.02022  1.0000
  H   H6094     1.0  0.77943  0.66431  0.40249  1.0000
  H   H6095     1.0  0.76272  0.70137  0.10153  1.0000
  Fe  Fe519     1.0  0.81064  0.60977  0.20489  1.0000
  S   S1033     1.0  0.79461  0.61886  0.22736  1.0000
  S   S1034     1.0  0.81969  0.58306  0.20301  1.0000
  Fe  Fe520     1.0  0.81371  0.64434  0.18476  1.0000
  S   S1035     1.0  0.79737  0.65671  0.20518  1.0000
  S   S1036     1.0  0.82404  0.65997  0.16013  1.0000
  Fe  Fe521     1.0  0.81171  0.63621  0.22181  1.0000
  S   S1037     1.0  0.82051  0.63989  0.24265  1.0000
  Fe  Fe522     1.0  0.78154  0.63851  0.20923  1.0000
  C   C3549     1.0  0.75592  0.66566  0.42048  1.0000
  S   S1038     1.0  0.82933  0.62508  0.20107  1.0000
  S   S1039     1.0  0.79618  0.62809  0.18699  1.0000
  H   H6096     1.0  0.86957  0.73042  0.20992  1.0000
  H   H6097     1.0  0.79708  0.54970  0.29646  1.0000
  H   H6098     1.0  0.86614  0.66230  0.09963  1.0000
  H   H6099     1.0  0.88873  0.70350  0.16815  1.0000
  S   S1040     1.0  0.84015  0.70424  0.27366  1.0000
  C   C3550     1.0  0.86680  0.69372  0.00384  1.0000
  H   H6100     1.0  0.81526  0.59506  0.03166  1.0000
  C   C3551     1.0  0.78729  0.66234  0.31040  1.0000
  H   H6101     1.0  0.79011  0.64909  0.09389  1.0000
  C   C3552     1.0  0.74364  0.69123  0.43172  1.0000
  H   H6102     1.0  0.77572  0.63401  0.03370  1.0000
  H   H6103     1.0  0.86860  0.69438  0.99036  1.0000
  C   C3553     1.0  0.75230  0.59510  0.33598  1.0000
  H   H6104     1.0  0.96887  0.68570  0.20715  1.0000
  H   H6105     1.0  0.75367  0.59415  0.26968  1.0000
  C   C3554     1.0  0.81926  0.66104  0.24099  1.0000
  C   C3555     1.0  0.83034  0.66588  0.24708  1.0000
  C   C3556     1.0  0.82920  0.68280  0.24598  1.0000
  C   C3557     1.0  0.81740  0.69487  0.23824  1.0000
  C   C3558     1.0  0.80629  0.69002  0.23225  1.0000
  C   C3559     1.0  0.80699  0.67313  0.23398  1.0000
  H   H6106     1.0  0.83979  0.65655  0.25264  1.0000
  H   H6107     1.0  0.83763  0.68647  0.25087  1.0000
  H   H6108     1.0  0.79691  0.69931  0.22654  1.0000
  H   H6109     1.0  0.79772  0.66951  0.23028  1.0000
  H   H6110     1.0  0.78671  0.69660  0.29800  1.0000
  C   C3560     1.0  0.81522  0.59118  0.44316  1.0000
  H   H6111     1.0  0.76887  0.65688  0.28444  1.0000
  S   S1041     1.0  0.77761  0.71016  0.06330  1.0000
  C   C3561     1.0  0.75243  0.66216  0.18513  1.0000
  H   H6112     1.0  0.75699  0.69782  0.44632  1.0000
  H   H6113     1.0  0.79921  0.69226  0.11606  1.0000
  H   H6114     1.0  0.76354  0.71085  0.31797  1.0000
  H   H6115     1.0  0.76234  0.66734  0.18587  1.0000
  H   H6116     1.0  0.75078  0.67648  0.16058  1.0000
  S   S1042     1.0  0.81293  0.67255  0.06837  1.0000
  C   C3562     1.0  0.87500  0.67056  0.15510  1.0000
  C   C3563     1.0  0.86497  0.67995  0.14393  1.0000
  C   C3564     1.0  0.84910  0.67702  0.14585  1.0000
  C   C3565     1.0  0.84314  0.66477  0.15901  1.0000
  C   C3566     1.0  0.85304  0.65570  0.17036  1.0000
  C   C3567     1.0  0.86894  0.65849  0.16836  1.0000
  H   H6117     1.0  0.86964  0.68898  0.13337  1.0000
  H   H6118     1.0  0.84156  0.68412  0.13698  1.0000
  H   H6119     1.0  0.84869  0.64622  0.18049  1.0000
  H   H6120     1.0  0.87664  0.65110  0.17700  1.0000
  C   C3568     1.0  0.78321  0.63506  0.07001  1.0000
  C   C3569     1.0  0.77222  0.64817  0.06217  1.0000
  C   C3570     1.0  0.75500  0.64964  0.06790  1.0000
  C   C3571     1.0  0.74869  0.63831  0.08182  1.0000
  C   C3572     1.0  0.75966  0.62513  0.08963  1.0000
  C   C3573     1.0  0.77690  0.62339  0.08359  1.0000
  H   H6121     1.0  0.77692  0.65698  0.05147  1.0000
  C   C3574     1.0  0.74573  0.65074  0.19867  1.0000
  H   H6122     1.0  0.75484  0.61608  0.10012  1.0000
  H   H6123     1.0  0.78533  0.61310  0.08959  1.0000
  C   C3575     1.0  0.86385  0.68898  0.06830  1.0000
  C   C3576     1.0  0.85248  0.70414  0.06900  1.0000
  C   C3577     1.0  0.85611  0.71636  0.07476  1.0000
  C   C3578     1.0  0.87088  0.71334  0.08027  1.0000
  C   C3579     1.0  0.88211  0.69808  0.07976  1.0000
  C   C3580     1.0  0.87872  0.68608  0.07355  1.0000
  H   H6124     1.0  0.84100  0.70656  0.06493  1.0000
  C   C3581     1.0  0.78417  0.60830  0.04484  1.0000
  S   S1043     1.0  0.83167  0.68754  0.99218  1.0000
  H   H6125     1.0  0.77557  0.57593  0.19091  1.0000
  H   H6126     1.0  0.76487  0.65410  0.31119  1.0000
  H   H6127     1.0  0.81817  0.63977  0.31392  1.0000
  H   H6128     1.0  0.79880  0.68025  0.99877  1.0000
  C   C3582     1.0  0.74921  0.57387  0.21529  1.0000
  H   H6129     1.0  0.75168  0.61890  0.45788  1.0000
  H   H6130     1.0  0.77404  0.67242  0.09996  1.0000
  N   N253      1.0  0.75157  0.58942  0.20221  1.0000
  H   H6131     1.0  0.85197  0.64331  0.09336  1.0000
  H   H6132     1.0  0.88908  0.72447  0.99383  1.0000
  H   H6133     1.0  0.80235  0.64109  0.02743  1.0000
  C   C3583     1.0  0.81107  0.66107  0.34058  1.0000
  C   C3584     1.0  0.82463  0.66668  0.32908  1.0000
  C   C3585     1.0  0.82309  0.68351  0.32092  1.0000
  C   C3586     1.0  0.80808  0.69484  0.32453  1.0000
  C   C3587     1.0  0.79478  0.68937  0.33658  1.0000
  C   C3588     1.0  0.79619  0.67250  0.34444  1.0000
  H   H6134     1.0  0.83625  0.65792  0.32621  1.0000
  H   H6135     1.0  0.83352  0.68769  0.31185  1.0000
  H   H6136     1.0  0.78326  0.69812  0.33967  1.0000
  H   H6137     1.0  0.78572  0.66835  0.35337  1.0000
  C   C3589     1.0  0.79215  0.54583  0.24198  1.0000
  C   C3590     1.0  0.78518  0.56287  0.24004  1.0000
  C   C3591     1.0  0.79376  0.57443  0.22837  1.0000
  C   C3592     1.0  0.80902  0.56894  0.21818  1.0000
  C   C3593     1.0  0.81584  0.55190  0.21992  1.0000
  C   C3594     1.0  0.80753  0.54039  0.23193  1.0000
  H   H6138     1.0  0.77329  0.56716  0.24755  1.0000
  H   H6139     1.0  0.78854  0.58755  0.22719  1.0000
  H   H6140     1.0  0.82766  0.54759  0.21207  1.0000
  H   H6141     1.0  0.86304  0.69569  0.17853  1.0000
  H   H6142     1.0  0.88775  0.67456  0.07270  1.0000
  H   H6143     1.0  0.88755  0.61671  0.11366  1.0000
  H   H6144     1.0  0.80913  0.65809  0.10610  1.0000
  C   C3595     1.0  0.86545  0.71964  0.19109  1.0000
  H   H6145     1.0  0.78661  0.65026  0.00625  1.0000
  H   H6146     1.0  0.77718  0.64570  0.98276  1.0000
  H   H6147     1.0  0.76782  0.56852  0.29471  1.0000
  S   S1044     1.0  0.77084  0.58024  0.35996  1.0000
  S   S1045     1.0  0.82454  0.70031  0.03505  1.0000
  H   H6148     1.0  0.78375  0.65997  0.26501  1.0000
  C   C3596     1.0  0.78573  0.63428  0.45360  1.0000
  C   C3597     1.0  0.76973  0.62354  0.43499  1.0000
  C   C3598     1.0  0.78444  0.62920  0.42738  1.0000
  C   C3599     1.0  0.79235  0.63462  0.43665  1.0000
  H   H6149     1.0  0.78966  0.62952  0.41434  1.0000
  H   H6150     1.0  0.80372  0.63901  0.43067  1.0000
  H   H6151     1.0  0.87175  0.66692  0.00697  1.0000
  H   H6152     1.0  0.82222  0.66412  0.27968  1.0000
  C   C3600     1.0  0.76044  0.58027  0.34483  1.0000
  H   H6153     1.0  0.75369  0.68843  0.12005  1.0000
  S   S1046     1.0  0.74783  0.53260  0.29772  1.0000
  C   C3601     1.0  0.76301  0.60199  0.26608  1.0000
  H   H6154     1.0  0.84476  0.67987  0.19904  1.0000
  C   C3602     1.0  0.78122  0.65163  0.27743  1.0000
  H   H6155     1.0  0.79366  0.60943  0.05071  1.0000
  H   H6156     1.0  0.76246  0.67663  0.30630  1.0000
  S   S1047     1.0  0.77315  0.62751  0.34772  1.0000
  H   H6157     1.0  0.78059  0.63965  0.27526  1.0000
  H   H6158     1.0  0.85100  0.64005  0.14094  1.0000
  H   H6159     1.0  0.87615  0.60646  0.13980  1.0000
  C   C3603     1.0  0.77045  0.65543  0.13118  1.0000
  C   C3604     1.0  0.75556  0.68634  0.44370  1.0000
  C   C3605     1.0  0.76814  0.67396  0.40577  1.0000
  C   C3606     1.0  0.79136  0.67924  0.28145  1.0000
  N   N254      1.0  0.81709  0.58770  0.47363  1.0000
  H   H6160     1.0  0.85070  0.62534  0.13008  1.0000
  C   C3607     1.0  0.90379  0.69934  0.99633  1.0000
  C   C3608     1.0  0.79707  0.67496  0.97620  1.0000
  H   H6161     1.0  0.83907  0.66276  0.09677  1.0000
  C   C3609     1.0  0.81739  0.57745  0.26962  1.0000
  H   H6162     1.0  0.75811  0.60622  0.16769  1.0000
  H   H6163     1.0  0.84251  0.60796  0.46756  1.0000
  H   H6164     1.0  0.75323  0.65575  0.41617  1.0000
  C   C3610     1.0  0.79547  0.64857  0.28642  1.0000
  C   C3611     1.0  0.78992  0.67058  0.13348  1.0000
  H   H6165     1.0  0.76516  0.65156  0.12271  1.0000
  H   H6166     1.0  0.84128  0.69859  0.20581  1.0000
  H   H6167     1.0  0.78712  0.59581  0.04199  1.0000
  C   C3612     1.0  0.89060  0.65915  0.11258  1.0000
  C   C3613     1.0  0.79359  0.69492  0.28542  1.0000
  H   H6168     1.0  0.87696  0.64873  0.13604  1.0000
  C   C3614     1.0  0.84606  0.65077  0.10298  1.0000
  C   C3615     1.0  0.88891  0.63362  0.09023  1.0000
  Fe  Fe523     1.0  0.75584  0.53949  0.26999  1.0000
  Fe  Fe524     1.0  0.82750  0.72152  0.25384  1.0000
  C   C3616     1.0  0.82411  0.64382  0.30076  1.0000
  H   H6169     1.0  0.85224  0.66275  0.11883  1.0000
  H   H6170     1.0  0.90044  0.66063  0.11788  1.0000
  S   S1048     1.0  0.75892  0.61734  0.42372  1.0000
  H   H6171     1.0  0.81525  0.67373  0.12008  1.0000
  C   C3617     1.0  0.79941  0.65150  0.11453  1.0000
  H   H6172     1.0  0.78124  0.62383  0.99082  1.0000
  H   H6173     1.0  0.75855  0.61268  0.19992  1.0000
  C   C3618     1.0  0.86825  0.61679  0.14571  1.0000
  S   S1049     1.0  0.75379  0.64416  0.21646  1.0000
  H   H6174     1.0  0.80556  0.68586  0.13531  1.0000
  H   H6175     1.0  0.85224  0.72032  0.19757  1.0000
  C   C3619     1.0  0.76549  0.69220  0.11293  1.0000
  H   H6176     1.0  0.77768  0.59262  0.16244  1.0000
  H   H6177     1.0  0.76162  0.59918  0.29202  1.0000
  H   H6178     1.0  0.95728  0.69683  0.13419  1.0000
  N   N255      1.0  0.74005  0.67698  0.42715  1.0000
  H   H6179     1.0  0.77899  0.67808  0.14066  1.0000
  H   H6180     1.0  0.78419  0.63013  0.14098  1.0000
  H   H6181     1.0  0.83693  0.64456  0.30052  1.0000
  S   S1050     1.0  0.79649  0.64062  0.46484  1.0000
  H   H6182     1.0  0.76277  0.63519  0.15091  1.0000
  H   H6183     1.0  0.85371  0.67933  0.21551  1.0000
  H   H6184     1.0  0.89365  0.69575  0.08369  1.0000
  C   C3620     1.0  0.77418  0.64029  0.14533  1.0000
  H   H6185     1.0  0.74074  0.70523  0.06918  1.0000
  H   H6186     1.0  0.86977  0.62067  0.10583  1.0000
  H   H6187     1.0  0.78966  0.67198  0.31528  1.0000
  H   H6188     1.0  0.82539  0.63409  0.29397  1.0000
  C   C3621     1.0  0.80505  0.67928  0.98620  1.0000
  H   H6189     1.0  0.74129  0.71882  0.32330  1.0000
  C   C3622     1.0  0.87834  0.71894  0.02891  1.0000
  H   H6190     1.0  0.81580  0.58275  0.01790  1.0000
  H   H6191     1.0  0.97676  0.69354  0.15211  1.0000
  N   N256      1.0  0.78553  0.58429  0.28245  1.0000
  C   C3623     1.0  0.79575  0.64116  0.10433  1.0000
  H   H6192     1.0  0.79521  0.66034  0.14303  1.0000
  C   C3624     1.0  0.85921  0.63089  0.13357  1.0000
  N   N257      1.0  0.79692  0.62434  0.01579  1.0000
  H   H6193     1.0  0.91351  0.72828  0.23415  1.0000
  C   C3625     1.0  0.80882  0.62990  0.02212  1.0000
  C   C3626     1.0  0.93884  0.71248  0.17118  1.0000
  C   C3627     1.0  0.80468  0.60874  0.00909  1.0000
  H   H6194     1.0  0.76575  0.62836  0.47422  1.0000
  N   N258      1.0  0.87170  0.70824  0.00664  1.0000
  C   C3628     1.0  0.82440  0.63430  0.00920  1.0000
  H   H6195     1.0  0.86494  0.72437  0.17774  1.0000
  H   H6196     1.0  0.81331  0.62052  0.03256  1.0000
  H   H6197     1.0  0.88208  0.69344  0.02805  1.0000
  N   N259      1.0  0.78473  0.66372  0.12175  1.0000
  H   H6198     1.0  0.80157  0.59546  0.44424  1.0000
  H   H6199     1.0  0.84742  0.72819  0.07503  1.0000
  H   H6200     1.0  0.95208  0.67655  0.20840  1.0000
  C   C3629     1.0  0.77101  0.62861  0.46120  1.0000
  H   H6201     1.0  0.79826  0.67899  0.26849  1.0000
  H   H6202     1.0  0.89018  0.72182  0.02081  1.0000
  H   H6203     1.0  0.78463  0.67274  0.98113  1.0000
  H   H6204     1.0  0.98979  0.69458  0.07778  1.0000
  H   H6205     1.0  0.79162  0.65034  0.31867  1.0000
  H   H6206     1.0  0.90189  0.63296  0.09076  1.0000
  C   C3630     1.0  0.85222  0.72738  0.98740  1.0000
  H   H6207     1.0  0.82182  0.58352  0.27693  1.0000
  H   H6208     1.0  0.83688  0.64461  0.11281  1.0000
  H   H6209     1.0  0.89718  0.71245  0.17915  1.0000
  H   H6210     1.0  0.76952  0.69881  0.12004  1.0000
  H   H6211     1.0  0.78043  0.57964  0.30924  1.0000
  C   C3631     1.0  0.85902  0.65443  0.11007  1.0000
  H   H6212     1.0  0.80691  0.64481  0.27709  1.0000
  C   C3632     1.0  0.78167  0.62216  0.02940  1.0000
  H   H6213     1.0  0.81871  0.56406  0.27537  1.0000
  H   H6214     1.0  0.84666  0.71750  0.98643  1.0000
  C   C3633     1.0  0.87316  0.70513  0.02438  1.0000
  H   H6215     1.0  0.77231  0.60917  0.05433  1.0000
  C   C3634     1.0  0.95789  0.68739  0.20190  1.0000
  C   C3635     1.0  0.77911  0.67736  0.10777  1.0000
  H   H6216     1.0  0.78977  0.68246  0.09916  1.0000
  C   C3636     1.0  0.80321  0.68119  0.12550  1.0000
  H   H6217     1.0  0.77807  0.68147  0.28111  1.0000
  C   C3637     1.0  0.98603  0.72811  0.12392  1.0000
  H   H6218     1.0  0.96376  0.71335  0.17038  1.0000
  H   H6219     1.0  0.89316  0.63400  0.12688  1.0000
  H   H6220     1.0  0.74042  0.57668  0.22680  1.0000
  H   H6221     1.0  0.81645  0.67014  0.29885  1.0000
  C   C3638     1.0  0.96477  0.71849  0.11722  1.0000
  C   C3639     1.0  0.76897  0.59819  0.17269  1.0000
  H   H6222     1.0  0.80138  0.57246  0.30023  1.0000
  Fe  Fe525     1.0  0.80051  0.69396  0.05108  1.0000
  Fe  Fe526     1.0  0.77029  0.60418  0.36685  1.0000
  H   H6223     1.0  0.82100  0.59709  0.43041  1.0000
  C   C3640     1.0  0.81705  0.59516  0.01842  1.0000
  S   S1051     1.0  0.74787  0.61644  0.38342  1.0000
  H   H6224     1.0  0.77391  0.57032  0.27304  1.0000
  C   C3641     1.0  0.77155  0.59943  0.28049  1.0000
  H   H6225     1.0  0.76281  0.65899  0.43044  1.0000
  C   C3642     1.0  0.79474  0.59862  0.30015  1.0000
  C   C3643     1.0  0.95112  0.72007  0.17554  1.0000
  H   H6226     1.0  0.77606  0.61101  0.27842  1.0000
  H   H6227     1.0  0.82599  0.57848  0.25722  1.0000
  H   H6228     1.0  0.78864  0.70605  0.27648  1.0000
  H   H6229     1.0  0.80257  0.60453  0.28863  1.0000
  H   H6230     1.0  0.78318  0.60782  0.30374  1.0000
  H   H6231     1.0  0.80157  0.59527  0.31028  1.0000
  N   N260      1.0  0.87564  0.70207  0.19383  1.0000
  C   C3644     1.0  0.89149  0.70183  0.18052  1.0000
  H   H6232     1.0  0.97613  0.70985  0.19191  1.0000
  C   C3645     1.0  0.86657  0.69069  0.19081  1.0000
  C   C3646     1.0  0.88008  0.69620  0.21058  1.0000
  C   C3647     1.0  0.90553  0.68610  0.18290  1.0000
  H   H6233     1.0  0.80546  0.64263  0.12441  1.0000
  C   C3648     1.0  0.85071  0.68719  0.20368  1.0000
  C   C3649     1.0  0.86605  0.69940  0.22587  1.0000
  Fe  Fe527     1.0  0.82373  0.72191  0.28971  1.0000
  C   C3650     1.0  0.76833  0.66468  0.31350  1.0000
  Fe  Fe528     1.0  0.85741  0.72216  0.26590  1.0000
  C   C3651     1.0  0.75922  0.60005  0.20814  1.0000
  H   H6234     1.0  0.75233  0.59102  0.23548  1.0000
  H   H6235     1.0  0.87471  0.67826  0.19002  1.0000
  H   H6236     1.0  0.88540  0.68256  0.21289  1.0000
  H   H6237     1.0  0.89015  0.70206  0.21077  1.0000
  H   H6238     1.0  0.91557  0.68653  0.17152  1.0000
  H   H6239     1.0  0.91125  0.68554  0.19320  1.0000
  H   H6240     1.0  0.90136  0.67440  0.18499  1.0000
  C   C3652     1.0  0.96508  0.70571  0.13141  1.0000
  H   H6241     1.0  0.78372  0.54241  0.28880  1.0000
  H   H6242     1.0  0.87572  0.62139  0.15148  1.0000
  H   H6243     1.0  0.74872  0.70003  0.42047  1.0000
  C   C3653     1.0  0.76309  0.62323  0.45193  1.0000
  H   H6244     1.0  0.83049  0.62490  0.00155  1.0000
  H   H6245     1.0  0.86427  0.68737  0.23442  1.0000
  H   H6246     1.0  0.85391  0.70643  0.22304  1.0000
  H   H6247     1.0  0.86970  0.70638  0.23296  1.0000
  C   C3654     1.0  0.75317  0.71669  0.32702  1.0000
  S   S1052     1.0  0.88531  0.71694  0.25713  1.0000
  N   N261      1.0  0.79688  0.66285  0.29276  1.0000
  N   N262      1.0  0.87017  0.63941  0.11841  1.0000
  C   C3655     1.0  0.79055  0.58285  0.29837  1.0000
  H   H6248     1.0  0.88137  0.67115  0.11188  1.0000
  C   C3656     1.0  0.77280  0.73009  0.05093  1.0000
  H   H6249     1.0  0.79748  0.58181  0.25723  1.0000
  H   H6250     1.0  0.92686  0.71220  0.18014  1.0000
  C   C3657     1.0  0.97522  0.72973  0.11356  1.0000
  H   H6251     1.0  0.75613  0.61511  0.26322  1.0000
  S   S1053     1.0  0.80533  0.71576  0.31383  1.0000
  C   C3658     1.0  0.79084  0.55229  0.28606  1.0000
  H   H6252     1.0  0.77721  0.64383  0.15546  1.0000
  H   H6253     1.0  0.76007  0.66438  0.13699  1.0000
  C   C3659     1.0  0.76392  0.58403  0.18731  1.0000
  C   C3660     1.0  0.88274  0.64469  0.12414  1.0000
  H   H6254     1.0  0.88337  0.64636  0.08431  1.0000
  H   H6255     1.0  0.76294  0.66491  0.32679  1.0000
  C   C3661     1.0  0.81497  0.66109  0.29257  1.0000
  H   H6256     1.0  0.80762  0.63342  0.09883  1.0000
  H   H6257     1.0  0.89648  0.65705  0.09998  1.0000
  H   H6258     1.0  0.78764  0.63249  0.11204  1.0000
  H   H6259     1.0  0.80004  0.59958  0.26207  1.0000
  C   C3662     1.0  0.76014  0.56507  0.34172  1.0000
  N   N263      1.0  0.94957  0.71939  0.19361  1.0000
  C   C3663     1.0  0.74598  0.66722  0.17082  1.0000
  S   S1054     1.0  0.76777  0.64595  0.37870  1.0000
  H   H6260     1.0  0.75455  0.50579  0.22230  1.0000
  Fe  Fe529     1.0  0.76584  0.62104  0.39565  1.0000
  C   C3664     1.0  0.74261  0.56127  0.21040  1.0000
  H   H6261     1.0  0.79455  0.63734  0.29664  1.0000
  H   H6262     1.0  0.75111  0.55288  0.32805  1.0000
  H   H6263     1.0  0.77212  0.61918  0.02485  1.0000
  H   H6264     1.0  0.77274  0.59469  0.20733  1.0000
  H   H6265     1.0  0.76116  0.56722  0.21912  1.0000
  H   H6266     1.0  0.88919  0.67386  0.00793  1.0000
  H   H6267     1.0  0.75246  0.70745  0.33900  1.0000
  H   H6268     1.0  0.87139  0.67317  0.02514  1.0000
  S   S1055     1.0  0.74206  0.56593  0.26776  1.0000
  H   H6269     1.0  0.94481  0.69983  0.16889  1.0000
  H   H6270     1.0  0.77561  0.60581  0.17605  1.0000
  C   C3665     1.0  0.82109  0.59685  0.45575  1.0000
  C   C3666     1.0  0.87551  0.67606  0.01145  1.0000
  H   H6271     1.0  0.76648  0.55355  0.34848  1.0000
  H   H6272     1.0  0.74452  0.49182  0.20798  1.0000
  H   H6273     1.0  0.86109  0.70326  0.03293  1.0000
  H   H6274     1.0  0.76289  0.67916  0.39453  1.0000
  H   H6275     1.0  0.74656  0.65970  0.06170  1.0000
  H   H6276     1.0  0.76948  0.72890  0.33168  1.0000
  H   H6277     1.0  0.93301  0.70197  0.20416  1.0000
  H   H6278     1.0  0.74220  0.49438  0.27640  1.0000
  C   C3667     1.0  0.94516  0.70355  0.20488  1.0000
  S   S1056     1.0  0.87549  0.72925  0.08655  1.0000
  H   H6279     1.0  0.76821  0.67983  0.43836  1.0000
  C   C3668     1.0  0.77809  0.63602  0.99433  1.0000
  H   H6280     1.0  0.76112  0.51384  0.20063  1.0000
  H   H6281     1.0  0.91415  0.70606  0.99191  1.0000
  H   H6282     1.0  0.83361  0.63508  0.01571  1.0000
  C   C3669     1.0  0.88731  0.71191  0.99432  1.0000
  H   H6283     1.0  0.91365  0.72449  0.20659  1.0000
  C   C3670     1.0  0.75002  0.51330  0.21101  1.0000
  C   C3671     1.0  0.98672  0.71498  0.13780  1.0000
  H   H6284     1.0  0.75236  0.55448  0.20164  1.0000
  H   H6285     1.0  0.96574  0.71900  0.20932  1.0000
  H   H6286     1.0  0.74448  0.52608  0.21278  1.0000
  H   H6287     1.0  0.82136  0.64669  0.00098  1.0000
  C   C3672     1.0  0.85784  0.72337  0.00393  1.0000
  H   H6288     1.0  0.81579  0.61042  0.45453  1.0000
  H   H6289     1.0  0.93587  0.72001  0.15919  1.0000
  C   C3673     1.0  0.75203  0.60273  0.22596  1.0000
  H   H6290     1.0  0.77241  0.68365  0.40879  1.0000
  H   H6291     1.0  0.79617  0.72784  0.03320  1.0000
  H   H6292     1.0  0.81889  0.57754  0.44425  1.0000
  H   H6293     1.0  0.76559  0.63782  0.00267  1.0000
  H   H6294     1.0  0.79438  0.58328  0.47062  1.0000
  H   H6295     1.0  0.90639  0.68987  0.98882  1.0000
  H   H6296     1.0  0.85331  0.69421  0.00904  1.0000
  H   H6297     1.0  0.77198  0.59935  0.25460  1.0000
  H   H6298     1.0  0.76000  0.60937  0.22880  1.0000
  C   C3674     1.0  0.74295  0.57948  0.32166  1.0000
  C   C3675     1.0  0.74355  0.59469  0.32450  1.0000
  H   H6299     1.0  0.75064  0.67861  0.45581  1.0000
  C   C3676     1.0  0.79145  0.63832  0.00196  1.0000
  H   H6300     1.0  0.83899  0.56928  0.46635  1.0000
  H   H6301     1.0  0.75264  0.60686  0.33812  1.0000
  H   H6302     1.0  0.88041  0.71462  0.04174  1.0000
  C   C3677     1.0  0.75148  0.56466  0.33014  1.0000
  H   H6303     1.0  0.96212  0.68698  0.18860  1.0000
  C   C3678     1.0  0.96614  0.72029  0.19597  1.0000
  H   H6304     1.0  0.74997  0.67794  0.08514  1.0000
  H   H6305     1.0  0.83475  0.59577  0.45112  1.0000
  H   H6306     1.0  0.86244  0.72972  0.97648  1.0000
  H   H6307     1.0  0.86841  0.73041  0.02885  1.0000
  C   C3679     1.0  0.87147  0.73253  0.19630  1.0000
  H   H6308     1.0  0.76070  0.70022  0.97501  1.0000
  H   H6309     1.0  0.82136  0.56472  0.50297  1.0000
  H   H6310     1.0  0.84638  0.62731  0.75187  1.0000
  Fe  Fe530     1.0  0.78296  0.51465  0.65704  1.0000
  S   S1057     1.0  0.81042  0.50409  0.65311  1.0000
  H   H6311     1.0  0.79060  0.59378  0.80839  1.0000
  Fe  Fe531     1.0  0.78491  0.53189  0.62066  1.0000
  S   S1058     1.0  0.81239  0.52232  0.61418  1.0000
  S   S1059     1.0  0.77021  0.54823  0.60180  1.0000
  Fe  Fe532     1.0  0.80687  0.49811  0.63051  1.0000
  H   H6312     1.0  0.82524  0.50370  0.56738  1.0000
  Fe  Fe533     1.0  0.81264  0.52948  0.63736  1.0000
  S   S1060     1.0  0.82781  0.54782  0.63624  1.0000
  S   S1061     1.0  0.77926  0.50729  0.63551  1.0000
  S   S1062     1.0  0.78530  0.54041  0.64291  1.0000
  Fe  Fe534     1.0  0.79035  0.63685  0.49293  1.0000
  S   S1063     1.0  0.77576  0.61843  0.51032  1.0000
  Fe  Fe535     1.0  0.79641  0.64829  0.52172  1.0000
  S   S1064     1.0  0.78256  0.63043  0.54109  1.0000
  S   S1065     1.0  0.80405  0.66884  0.52796  1.0000
  Fe  Fe536     1.0  0.79566  0.61220  0.52478  1.0000
  S   S1066     1.0  0.80861  0.58584  0.53391  1.0000
  Fe  Fe537     1.0  0.76409  0.63848  0.52481  1.0000
  H   H6313     1.0  0.84934  0.65766  0.66219  1.0000
  S   S1067     1.0  0.81122  0.62941  0.50654  1.0000
  S   S1068     1.0  0.77708  0.65744  0.50627  1.0000
  Fe  Fe538     1.0  0.93435  0.65640  0.77686  1.0000
  S   S1069     1.0  0.92228  0.68338  0.77024  1.0000
  S   S1070     1.0  0.95729  0.64718  0.78807  1.0000
  Fe  Fe539     1.0  0.90847  0.64543  0.76547  1.0000
  S   S1071     1.0  0.89495  0.67167  0.75785  1.0000
  S   S1072     1.0  0.89623  0.62530  0.76502  1.0000
  Fe  Fe540     1.0  0.92043  0.67703  0.74728  1.0000
  C   C3680     1.0  0.79214  0.53651  0.69330  1.0000
  Fe  Fe541     1.0  0.89808  0.67500  0.78174  1.0000
  S   S1073     1.0  0.87609  0.68912  0.79765  1.0000
  S   S1074     1.0  0.93393  0.65041  0.75310  1.0000
  S   S1075     1.0  0.91020  0.64840  0.79012  1.0000
  Fe  Fe542     1.0  0.82510  0.66806  0.88641  1.0000
  S   S1076     1.0  0.80914  0.65087  0.90440  1.0000
  S   S1077     1.0  0.85088  0.65699  0.87329  1.0000
  Fe  Fe543     1.0  0.79857  0.69892  0.89081  1.0000
  S   S1078     1.0  0.78068  0.68413  0.90836  1.0000
  H   H6314     1.0  0.79416  0.70928  0.92262  1.0000
  Fe  Fe544     1.0  0.80207  0.66994  0.92028  1.0000
  S   S1079     1.0  0.79494  0.66656  0.94844  1.0000
  Fe  Fe545     1.0  0.78928  0.66683  0.89088  1.0000
  S   S1080     1.0  0.76862  0.66047  0.88367  1.0000
  S   S1081     1.0  0.81975  0.68565  0.90340  1.0000
  S   S1082     1.0  0.80553  0.68297  0.87216  1.0000
  Fe  Fe546     1.0  0.84407  0.57752  0.70579  1.0000
  S   S1083     1.0  0.81871  0.59095  0.71672  1.0000
  S   S1084     1.0  0.84549  0.55211  0.70177  1.0000
  Fe  Fe547     1.0  0.86031  0.60605  0.70370  1.0000
  S   S1085     1.0  0.83595  0.62203  0.71307  1.0000
  S   S1086     1.0  0.88224  0.61796  0.69874  1.0000
  Fe  Fe548     1.0  0.83166  0.59880  0.73169  1.0000
  S   S1087     1.0  0.82246  0.60155  0.75799  1.0000
  Fe  Fe549     1.0  0.82552  0.61273  0.69708  1.0000
  S   S1088     1.0  0.80684  0.62657  0.68159  1.0000
  S   S1089     1.0  0.85647  0.58295  0.72312  1.0000
  S   S1090     1.0  0.85040  0.59912  0.68535  1.0000
  H   H6315     1.0  0.82481  0.57760  0.81699  1.0000
  S   S1091     1.0  0.80969  0.69887  0.60639  1.0000
  C   C3681     1.0  0.77186  0.61218  0.72111  1.0000
  Fe  Fe550     1.0  0.82183  0.70396  0.62390  1.0000
  S   S1092     1.0  0.81406  0.70077  0.65151  1.0000
  H   H6316     1.0  0.84112  0.68408  0.95827  1.0000
  H   H6317     1.0  0.91990  0.69464  0.84451  1.0000
  H   H6318     1.0  0.78095  0.70309  0.95268  1.0000
  H   H6319     1.0  0.76496  0.51499  0.57014  1.0000
  C   C3682     1.0  0.77965  0.71636  0.94614  1.0000
  C   C3683     1.0  0.79074  0.48609  0.57524  1.0000
  S   S1093     1.0  0.83768  0.66217  0.58763  1.0000
  C   C3684     1.0  0.84326  0.63563  0.76062  1.0000
  H   H6320     1.0  0.76954  0.71197  0.55935  1.0000
  C   C3685     1.0  0.80518  0.61808  0.75930  1.0000
  C   C3686     1.0  0.79826  0.62318  0.77430  1.0000
  C   C3687     1.0  0.78312  0.63477  0.77614  1.0000
  C   C3688     1.0  0.77486  0.64112  0.76305  1.0000
  C   C3689     1.0  0.78266  0.63739  0.74753  1.0000
  C   C3690     1.0  0.79771  0.62563  0.74573  1.0000
  H   H6321     1.0  0.80413  0.61761  0.78473  1.0000
  H   H6322     1.0  0.77729  0.63797  0.78806  1.0000
  H   H6323     1.0  0.77638  0.64244  0.73733  1.0000
  H   H6324     1.0  0.80305  0.62182  0.73407  1.0000
  C   C3691     1.0  0.80805  0.64745  0.67382  1.0000
  C   C3692     1.0  0.81322  0.65593  0.68262  1.0000
  C   C3693     1.0  0.81458  0.67253  0.67596  1.0000
  C   C3694     1.0  0.81123  0.68047  0.66032  1.0000
  C   C3695     1.0  0.80605  0.67198  0.65156  1.0000
  C   C3696     1.0  0.80422  0.65557  0.65842  1.0000
  H   H6325     1.0  0.81589  0.64980  0.69465  1.0000
  H   H6326     1.0  0.81852  0.67911  0.68278  1.0000
  H   H6327     1.0  0.80330  0.67811  0.63955  1.0000
  H   H6328     1.0  0.80017  0.64906  0.65161  1.0000
  C   C3697     1.0  0.80506  0.67344  0.95990  1.0000
  H   H6329     1.0  0.93850  0.72766  0.71775  1.0000
  H   H6330     1.0  0.86351  0.69655  0.63665  1.0000
  H   H6331     1.0  0.76425  0.69915  0.93768  1.0000
  H   H6332     1.0  0.76164  0.59013  0.73258  1.0000
  C   C3698     1.0  0.82088  0.67700  0.95340  1.0000
  C   C3699     1.0  0.81626  0.58714  0.80983  1.0000
  H   H6333     1.0  0.89350  0.60056  0.63252  1.0000
  H   H6334     1.0  0.78685  0.72242  0.63429  1.0000
  S   S1094     1.0  0.84677  0.68956  0.61369  1.0000
  C   C3700     1.0  0.77118  0.64669  0.87072  1.0000
  H   H6335     1.0  0.77991  0.60601  0.71099  1.0000
  H   H6336     1.0  0.95059  0.72742  0.69212  1.0000
  C   C3701     1.0  0.75943  0.63725  0.85300  1.0000
  C   C3702     1.0  0.78672  0.62320  0.85811  1.0000
  C   C3703     1.0  0.78549  0.63418  0.86821  1.0000
  H   H6337     1.0  0.75716  0.66241  0.56519  1.0000
  S   S1095     1.0  0.82607  0.72874  0.60856  1.0000
  H   H6338     1.0  0.79770  0.61342  0.85637  1.0000
  H   H6339     1.0  0.79534  0.63273  0.87443  1.0000
  C   C3704     1.0  0.80283  0.55836  0.78008  1.0000
  C   C3705     1.0  0.85084  0.66235  0.70673  1.0000
  H   H6340     1.0  0.76384  0.55322  0.68538  1.0000
  H   H6341     1.0  0.75900  0.54624  0.70710  1.0000
  C   C3706     1.0  0.85948  0.70677  0.64345  1.0000
  C   C3707     1.0  0.89356  0.62278  0.74625  1.0000
  C   C3708     1.0  0.88269  0.61283  0.74704  1.0000
  C   C3709     1.0  0.87935  0.61121  0.73254  1.0000
  C   C3710     1.0  0.88725  0.61910  0.71699  1.0000
  C   C3711     1.0  0.89846  0.62879  0.71612  1.0000
  C   C3712     1.0  0.90140  0.63086  0.73073  1.0000
  H   H6342     1.0  0.87660  0.60651  0.75897  1.0000
  H   H6343     1.0  0.87061  0.60385  0.73346  1.0000
  H   H6344     1.0  0.90461  0.63499  0.70416  1.0000
  H   H6345     1.0  0.90985  0.63854  0.72997  1.0000
  C   C3713     1.0  0.86871  0.67970  0.81846  1.0000
  C   C3714     1.0  0.87645  0.66373  0.82562  1.0000
  C   C3715     1.0  0.87081  0.65687  0.84244  1.0000
  C   C3716     1.0  0.85724  0.66581  0.85216  1.0000
  C   C3717     1.0  0.84928  0.68165  0.84494  1.0000
  C   C3718     1.0  0.85504  0.68859  0.82815  1.0000
  H   H6346     1.0  0.88693  0.65672  0.81833  1.0000
  H   H6347     1.0  0.87695  0.64456  0.84796  1.0000
  H   H6348     1.0  0.83894  0.68874  0.85239  1.0000
  H   H6349     1.0  0.84901  0.70098  0.82272  1.0000
  H   H6350     1.0  0.85034  0.64104  0.72682  1.0000
  C   C3719     1.0  0.76092  0.68693  0.55104  1.0000
  H   H6351     1.0  0.79636  0.49873  0.59781  1.0000
  C   C3720     1.0  0.85194  0.68719  0.74629  1.0000
  H   H6352     1.0  0.77030  0.70972  0.87723  1.0000
  C   C3721     1.0  0.78397  0.55364  0.71458  1.0000
  H   H6353     1.0  0.77107  0.58946  0.77290  1.0000
  H   H6354     1.0  0.82118  0.63990  0.54891  1.0000
  H   H6355     1.0  0.80793  0.56080  0.71031  1.0000
  H   H6356     1.0  0.79725  0.58364  0.78304  1.0000
  C   C3722     1.0  0.81282  0.66642  0.54511  1.0000
  C   C3723     1.0  0.81247  0.68066  0.55038  1.0000
  C   C3724     1.0  0.81982  0.67941  0.56355  1.0000
  C   C3725     1.0  0.82786  0.66390  0.57140  1.0000
  C   C3726     1.0  0.82821  0.64962  0.56616  1.0000
  C   C3727     1.0  0.82057  0.65085  0.55315  1.0000
  H   H6357     1.0  0.80667  0.69278  0.54415  1.0000
  H   H6358     1.0  0.81950  0.69052  0.56741  1.0000
  Fe  Fe551     1.0  0.75423  0.61646  0.82455  1.0000
  C   C3728     1.0  0.75053  0.52346  0.68755  1.0000
  S   S1096     1.0  0.78982  0.72673  0.88671  1.0000
  C   C3729     1.0  0.83268  0.54880  0.65453  1.0000
  C   C3730     1.0  0.83482  0.53474  0.66732  1.0000
  C   C3731     1.0  0.83905  0.53584  0.68162  1.0000
  C   C3732     1.0  0.84077  0.55106  0.68340  1.0000
  C   C3733     1.0  0.83842  0.56517  0.67066  1.0000
  C   C3734     1.0  0.83461  0.56397  0.65619  1.0000
  H   H6359     1.0  0.83355  0.52295  0.66606  1.0000
  H   H6360     1.0  0.84094  0.52487  0.69138  1.0000
  H   H6361     1.0  0.83966  0.57695  0.67191  1.0000
  H   H6362     1.0  0.83302  0.57487  0.64633  1.0000
  C   C3735     1.0  0.78104  0.55900  0.58319  1.0000
  C   C3736     1.0  0.77210  0.57161  0.57265  1.0000
  C   C3737     1.0  0.78048  0.58017  0.55761  1.0000
  C   C3738     1.0  0.79781  0.57578  0.55286  1.0000
  C   C3739     1.0  0.80674  0.56320  0.56337  1.0000
  C   C3740     1.0  0.79840  0.55502  0.57860  1.0000
  H   H6363     1.0  0.75866  0.57485  0.57615  1.0000
  H   H6364     1.0  0.77349  0.58995  0.54958  1.0000
  H   H6365     1.0  0.82017  0.55987  0.55979  1.0000
  H   H6366     1.0  0.80547  0.54546  0.58655  1.0000
  C   C3741     1.0  0.88004  0.60458  0.63239  1.0000
  S   S1097     1.0  0.76796  0.50791  0.68282  1.0000
  C   C3742     1.0  0.79929  0.58245  0.81348  1.0000
  C   C3743     1.0  0.96836  0.66036  0.79119  1.0000
  H   H6367     1.0  0.88320  0.62591  0.63916  1.0000
  H   H6368     1.0  0.87447  0.59398  0.64037  1.0000
  H   H6369     1.0  0.89724  0.70127  0.67430  1.0000
  H   H6370     1.0  0.95560  0.68313  0.77769  1.0000
  N   N264      1.0  0.78298  0.55307  0.69753  1.0000
  H   H6371     1.0  0.74959  0.71633  0.50397  1.0000
  C   C3744     1.0  0.75687  0.60382  0.72946  1.0000
  H   H6372     1.0  0.77764  0.56606  0.71734  1.0000
  H   H6373     1.0  0.79467  0.50974  0.70134  1.0000
  H   H6374     1.0  0.82210  0.58976  0.79644  1.0000
  H   H6375     1.0  0.76262  0.61667  0.75475  1.0000
  H   H6376     1.0  0.82713  0.67598  0.94082  1.0000
  H   H6377     1.0  0.76557  0.72349  0.52320  1.0000
  H   H6378     1.0  0.89585  0.70687  0.73671  1.0000
  H   H6379     1.0  0.81428  0.59880  0.81410  1.0000
  H   H6380     1.0  0.88696  0.66779  0.86872  1.0000
  H   H6381     1.0  0.76786  0.62549  0.71533  1.0000
  H   H6382     1.0  0.85322  0.71776  0.63528  1.0000
  Fe  Fe552     1.0  0.83512  0.68673  0.59445  1.0000
  H   H6383     1.0  0.75700  0.69102  0.56301  1.0000
  S   S1098     1.0  0.75947  0.61060  0.79954  1.0000
  C   C3745     1.0  0.85435  0.65291  0.72392  1.0000
  H   H6384     1.0  0.75004  0.68714  0.52288  1.0000
  H   H6385     1.0  0.76927  0.50463  0.60645  1.0000
  C   C3746     1.0  0.79856  0.58877  0.47865  1.0000
  C   C3747     1.0  0.75022  0.72332  0.95866  1.0000
  H   H6386     1.0  0.74600  0.60947  0.76963  1.0000
  C   C3748     1.0  0.85799  0.65248  0.65167  1.0000
  Fe  Fe553     1.0  0.81643  0.72236  0.58976  1.0000
  H   H6387     1.0  0.83288  0.60670  0.63670  1.0000
  C   C3749     1.0  0.86338  0.71356  0.67535  1.0000
  N   N265      1.0  0.87174  0.72169  0.65828  1.0000
  C   C3750     1.0  0.74539  0.53676  0.67510  1.0000
  H   H6388     1.0  0.85639  0.65525  0.61306  1.0000
  C   C3751     1.0  0.81935  0.49791  0.58006  1.0000
  C   C3752     1.0  0.79168  0.57992  0.49643  1.0000
  C   C3753     1.0  0.75383  0.57269  0.69913  1.0000
  H   H6389     1.0  0.75817  0.58300  0.68931  1.0000
  C   C3754     1.0  0.98046  0.65336  0.80077  1.0000
  C   C3755     1.0  0.79451  0.71678  0.93110  1.0000
  H   H6390     1.0  0.79503  0.58030  0.82719  1.0000
  H   H6391     1.0  0.77346  0.57663  0.80346  1.0000
  C   C3756     1.0  0.98489  0.68075  0.79895  1.0000
  Fe  Fe554     1.0  0.85069  0.71421  0.59732  1.0000
  H   H6392     1.0  0.79539  0.72960  0.92413  1.0000
  N   N266      1.0  0.74558  0.60993  0.74442  1.0000
  H   H6393     1.0  0.75981  0.57979  0.76509  1.0000
  N   N267      1.0  0.76256  0.72336  0.94230  1.0000
  S   S1099     1.0  0.84150  0.71003  0.57680  1.0000
  H   H6394     1.0  0.85046  0.70287  0.65498  1.0000
  H   H6395     1.0  0.86807  0.64906  0.72234  1.0000
  H   H6396     1.0  0.78170  0.72297  0.95468  1.0000
  H   H6397     1.0  0.76610  0.48781  0.57041  1.0000
  C   C3757     1.0  0.82176  0.59682  0.48379  1.0000
  H   H6398     1.0  0.88897  0.62949  0.60553  1.0000
  H   H6399     1.0  0.90680  0.70257  0.65246  1.0000
  N   N268      1.0  0.82921  0.64848  0.81947  1.0000
  C   C3758     1.0  0.84061  0.64290  0.80423  1.0000
  C   C3759     1.0  0.81404  0.64113  0.82359  1.0000
  C   C3760     1.0  0.83843  0.64180  0.83341  1.0000
  C   C3761     1.0  0.82498  0.66723  0.81560  1.0000
  C   C3762     1.0  0.85793  0.64740  0.79891  1.0000
  C   C3763     1.0  0.80359  0.64646  0.81025  1.0000
  C   C3764     1.0  0.82797  0.63937  0.85130  1.0000
  C   C3765     1.0  0.81237  0.67579  0.82900  1.0000
  H   H6400     1.0  0.84279  0.62913  0.80596  1.0000
  H   H6401     1.0  0.83483  0.64833  0.79331  1.0000
  H   H6402     1.0  0.80532  0.64416  0.83504  1.0000
  H   H6403     1.0  0.81768  0.62728  0.82634  1.0000
  H   H6404     1.0  0.84665  0.62935  0.83244  1.0000
  H   H6405     1.0  0.84685  0.64997  0.83252  1.0000
  H   H6406     1.0  0.83635  0.67217  0.81330  1.0000
  H   H6407     1.0  0.82077  0.67242  0.80372  1.0000
  H   H6408     1.0  0.86523  0.64212  0.78796  1.0000
  H   H6409     1.0  0.85713  0.66101  0.79508  1.0000
  H   H6410     1.0  0.86528  0.64199  0.80864  1.0000
  H   H6411     1.0  0.79925  0.66015  0.80694  1.0000
  H   H6412     1.0  0.81028  0.64151  0.79901  1.0000
  H   H6413     1.0  0.79225  0.64116  0.81532  1.0000
  H   H6414     1.0  0.82193  0.62867  0.85420  1.0000
  H   H6415     1.0  0.81852  0.65056  0.85396  1.0000
  H   H6416     1.0  0.83633  0.63630  0.86005  1.0000
  H   H6417     1.0  0.81878  0.67724  0.83795  1.0000
  H   H6418     1.0  0.80203  0.66947  0.83578  1.0000
  H   H6419     1.0  0.80622  0.68835  0.82300  1.0000
  N   N269      1.0  0.80516  0.59904  0.59527  1.0000
  C   C3766     1.0  0.78925  0.59680  0.59264  1.0000
  C   C3767     1.0  0.81310  0.60956  0.57943  1.0000
  C   C3768     1.0  0.80066  0.60798  0.60935  1.0000
  C   C3769     1.0  0.81599  0.58201  0.59961  1.0000
  C   C3770     1.0  0.77827  0.58753  0.60789  1.0000
  C   C3771     1.0  0.81780  0.60223  0.56387  1.0000
  C   C3772     1.0  0.81285  0.61822  0.60963  1.0000
  C   C3773     1.0  0.83372  0.58120  0.60112  1.0000
  H   H6420     1.0  0.78137  0.60908  0.58809  1.0000
  H   H6421     1.0  0.79189  0.58967  0.58286  1.0000
  H   H6422     1.0  0.82460  0.61235  0.58045  1.0000
  H   H6423     1.0  0.80464  0.62197  0.57667  1.0000
  H   H6424     1.0  0.78850  0.61703  0.60926  1.0000
  H   H6425     1.0  0.79892  0.59904  0.62155  1.0000
  H   H6426     1.0  0.81017  0.57501  0.61182  1.0000
  H   H6427     1.0  0.81681  0.57401  0.59103  1.0000
  H   H6428     1.0  0.77439  0.59370  0.61852  1.0000
  H   H6429     1.0  0.76673  0.58734  0.60446  1.0000
  H   H6430     1.0  0.78443  0.57433  0.61178  1.0000
  H   H6431     1.0  0.82535  0.60993  0.55355  1.0000
  H   H6432     1.0  0.82537  0.58938  0.56571  1.0000
  H   H6433     1.0  0.80657  0.60270  0.55963  1.0000
  H   H6434     1.0  0.80902  0.62239  0.62154  1.0000
  H   H6435     1.0  0.81237  0.62969  0.59966  1.0000
  H   H6436     1.0  0.82582  0.61107  0.60858  1.0000
  H   H6437     1.0  0.83374  0.58236  0.61366  1.0000
  H   H6438     1.0  0.84003  0.59039  0.59156  1.0000
  H   H6439     1.0  0.84163  0.56893  0.59915  1.0000
  H   H6440     1.0  0.77242  0.52637  0.57977  1.0000
  H   H6441     1.0  0.90111  0.72820  0.60630  1.0000
  H   H6442     1.0  0.80578  0.53535  0.69065  1.0000
  N   N270      1.0  0.75627  0.70114  0.53699  1.0000
  C   C3774     1.0  0.78818  0.52096  0.70652  1.0000
  C   C3775     1.0  0.77138  0.56574  0.82943  1.0000
  N   N271      1.0  0.79011  0.50418  0.57382  1.0000
  C   C3776     1.0  0.79658  0.51182  0.55595  1.0000
  H   H6443     1.0  0.76804  0.71456  0.91978  1.0000
  C   C3777     1.0  0.80055  0.50534  0.58484  1.0000
  H   H6444     1.0  0.78757  0.53856  0.55648  1.0000
  C   C3778     1.0  0.79921  0.52969  0.55247  1.0000
  H   H6445     1.0  0.78520  0.72847  0.61319  1.0000
  H   H6446     1.0  0.92321  0.70713  0.81135  1.0000
  H   H6447     1.0  0.96981  0.70110  0.78486  1.0000
  H   H6448     1.0  0.80853  0.50396  0.55069  1.0000
  H   H6449     1.0  0.77467  0.68250  0.54908  1.0000
  H   H6450     1.0  0.86179  0.66324  0.64214  1.0000
  H   H6451     1.0  0.79570  0.56622  0.49810  1.0000
  H   H6452     1.0  0.79896  0.51846  0.58561  1.0000
  C   C3779     1.0  0.75486  0.60735  0.75782  1.0000
  H   H6453     1.0  0.77744  0.58810  0.75173  1.0000
  H   H6454     1.0  0.83332  0.55852  0.80123  1.0000
  H   H6455     1.0  0.80345  0.53414  0.53891  1.0000
  C   C3780     1.0  0.88828  0.72509  0.65784  1.0000
  H   H6456     1.0  0.80901  0.53029  0.55829  1.0000
  H   H6457     1.0  0.77721  0.54472  0.72429  1.0000
  C   C3781     1.0  0.82880  0.68154  0.96334  1.0000
  C   C3782     1.0  0.84750  0.62592  0.62767  1.0000
  C   C3783     1.0  0.76902  0.73204  0.88494  1.0000
  H   H6458     1.0  0.74693  0.69748  0.96374  1.0000
  H   H6459     1.0  0.76067  0.49355  0.59691  1.0000
  H   H6460     1.0  0.75891  0.66496  0.54361  1.0000
  H   H6461     1.0  0.82932  0.54702  0.49400  1.0000
  C   C3784     1.0  0.74587  0.72566  0.87860  1.0000
  N   N272      1.0  0.91952  0.67459  0.83390  1.0000
  C   C3785     1.0  0.90788  0.66537  0.84767  1.0000
  C   C3786     1.0  0.93136  0.66200  0.82449  1.0000
  C   C3787     1.0  0.90923  0.68724  0.82252  1.0000
  C   C3788     1.0  0.92820  0.68288  0.84143  1.0000
  C   C3789     1.0  0.94168  0.64713  0.83478  1.0000
  C   C3790     1.0  0.91853  0.69823  0.80749  1.0000
  C   C3791     1.0  0.94512  0.68693  0.83111  1.0000
  H   H6462     1.0  0.90255  0.65775  0.84272  1.0000
  H   H6463     1.0  0.91469  0.65634  0.85689  1.0000
  H   H6464     1.0  0.94028  0.66772  0.81406  1.0000
  H   H6465     1.0  0.92452  0.65678  0.81849  1.0000
  H   H6466     1.0  0.90241  0.68093  0.81766  1.0000
  H   H6467     1.0  0.81895  0.59128  0.49720  1.0000
  H   H6468     1.0  0.93083  0.67476  0.85340  1.0000
  H   H6469     1.0  0.93397  0.63817  0.84272  1.0000
  H   H6470     1.0  0.95167  0.64025  0.82622  1.0000
  H   H6471     1.0  0.94773  0.65106  0.84246  1.0000
  H   H6472     1.0  0.82192  0.48422  0.58156  1.0000
  H   H6473     1.0  0.88231  0.69759  0.65169  1.0000
  C   C3792     1.0  0.74167  0.52251  0.70397  1.0000
  H   H6474     1.0  0.94646  0.69854  0.83354  1.0000
  H   H6475     1.0  0.94684  0.68901  0.81758  1.0000
  H   H6476     1.0  0.95566  0.67719  0.83517  1.0000
  H   H6477     1.0  0.80411  0.54105  0.81542  1.0000
  H   H6478     1.0  0.90963  0.70581  0.79959  1.0000
  H   H6479     1.0  0.83472  0.63768  0.57194  1.0000
  H   H6480     1.0  0.74566  0.51221  0.71361  1.0000
  H   H6481     1.0  0.83428  0.54183  0.81876  1.0000
  H   H6482     1.0  0.77635  0.57257  0.66563  1.0000
  H   H6483     1.0  0.85812  0.69792  0.74082  1.0000
  H   H6484     1.0  0.74111  0.57292  0.69808  1.0000
  H   H6485     1.0  0.78957  0.53536  0.68170  1.0000
  C   C3793     1.0  0.79083  0.56654  0.68509  1.0000
  C   C3794     1.0  0.80876  0.55190  0.81570  1.0000
  C   C3795     1.0  0.89321  0.67610  0.85781  1.0000
  H   H6486     1.0  0.74096  0.71739  0.87463  1.0000
  H   H6487     1.0  0.77827  0.55633  0.83829  1.0000
  H   H6488     1.0  0.88355  0.68305  0.85061  1.0000
  H   H6489     1.0  0.80693  0.55175  0.82908  1.0000
  H   H6490     1.0  0.82567  0.50017  0.58866  1.0000
  C   C3796     1.0  0.77993  0.73186  0.62542  1.0000
  S   S1100     1.0  0.75362  0.65022  0.76719  1.0000
  H   H6491     1.0  0.85690  0.68038  0.75750  1.0000
  H   H6492     1.0  0.82716  0.62159  0.64934  1.0000
  H   H6493     1.0  0.83842  0.69237  0.74979  1.0000
  C   C3797     1.0  0.87268  0.62026  0.63985  1.0000
  H   H6494     1.0  0.77175  0.68498  0.52084  1.0000
  C   C3798     1.0  0.97300  0.68774  0.78910  1.0000
  H   H6495     1.0  0.86789  0.61560  0.65331  1.0000
  S   S1101     1.0  0.77577  0.61145  0.83710  1.0000
  H   H6496     1.0  0.80744  0.65751  0.74981  1.0000
  C   C3799     1.0  0.76734  0.71315  0.53402  1.0000
  H   H6497     1.0  0.78964  0.55913  0.78022  1.0000
  H   H6498     1.0  0.86878  0.69994  0.67786  1.0000
  H   H6499     1.0  0.78786  0.51238  0.54822  1.0000
  C   C3800     1.0  0.74929  0.70602  0.97005  1.0000
  H   H6500     1.0  0.76211  0.69931  0.49526  1.0000
  C   C3801     1.0  0.74229  0.71507  0.92961  1.0000
  H   H6501     1.0  0.86473  0.64674  0.75239  1.0000
  H   H6502     1.0  0.82420  0.64531  0.73790  1.0000
  H   H6503     1.0  0.85559  0.65358  0.69820  1.0000
  C   C3802     1.0  0.85620  0.67634  0.73338  1.0000
  N   N273      1.0  0.84714  0.66230  0.73767  1.0000
  H   H6504     1.0  0.85373  0.68513  0.72168  1.0000
  C   C3803     1.0  0.77375  0.62484  0.85032  1.0000
  C   C3804     1.0  0.91445  0.70817  0.71393  1.0000
  H   H6505     1.0  0.86886  0.64415  0.65644  1.0000
  H   H6506     1.0  0.76840  0.57814  0.83254  1.0000
  C   C3805     1.0  0.89907  0.71354  0.72403  1.0000
  H   H6507     1.0  0.75243  0.72804  0.55251  1.0000
  H   H6508     1.0  0.86996  0.67146  0.73108  1.0000
  H   H6509     1.0  0.89959  0.69617  0.82924  1.0000
  C   C3806     1.0  0.80169  0.55043  0.71749  1.0000
  C   C3807     1.0  0.84874  0.64318  0.64530  1.0000
  H   H6510     1.0  0.80092  0.54972  0.73076  1.0000
  C   C3808     1.0  0.76637  0.59011  0.76189  1.0000
  H   H6511     1.0  0.84587  0.60556  0.65018  1.0000
  H   H6512     1.0  0.79594  0.55772  0.66209  1.0000
  C   C3809     1.0  0.90179  0.70961  0.66249  1.0000
  C   C3810     1.0  0.80441  0.57135  0.78860  1.0000
  C   C3811     1.0  0.85102  0.65110  0.75368  1.0000
  C   C3812     1.0  0.87500  0.71003  0.64680  1.0000
  H   H6513     1.0  0.77475  0.52091  0.70994  1.0000
  H   H6514     1.0  0.83840  0.65260  0.64037  1.0000
  H   H6515     1.0  0.79277  0.51948  0.71780  1.0000
  C   C3813     1.0  0.78941  0.56899  0.66706  1.0000
  H   H6516     1.0  0.76695  0.73037  0.62897  1.0000
  C   C3814     1.0  0.83794  0.61429  0.64190  1.0000
  Fe  Fe555     1.0  0.74349  0.63560  0.79228  1.0000
  H   H6517     1.0  0.84670  0.65800  0.76380  1.0000
  C   C3815     1.0  0.76497  0.55552  0.69710  1.0000
  C   C3816     1.0  0.83004  0.56018  0.49222  1.0000
  H   H6518     1.0  0.75203  0.53739  0.66236  1.0000
  H   H6519     1.0  0.79566  0.57916  0.65918  1.0000
  H   H6520     1.0  0.74984  0.60588  0.71970  1.0000
  H   H6521     1.0  0.78067  0.70676  0.53072  1.0000
  C   C3817     1.0  0.75965  0.69411  0.52183  1.0000
  H   H6522     1.0  0.80940  0.56104  0.76685  1.0000
  C   C3818     1.0  0.82874  0.66954  0.73947  1.0000
  H   H6523     1.0  0.87050  0.63201  0.59756  1.0000
  H   H6524     1.0  0.93047  0.71266  0.68972  1.0000
  H   H6525     1.0  0.75924  0.56242  0.83117  1.0000
  H   H6526     1.0  0.87456  0.65149  0.62090  1.0000
  H   H6527     1.0  0.82959  0.63905  0.76505  1.0000
  H   H6528     1.0  0.92873  0.69096  0.79956  1.0000
  N   N274      1.0  0.79877  0.56782  0.80722  1.0000
  C   C3819     1.0  0.81775  0.65822  0.73863  1.0000
  H   H6529     1.0  0.80971  0.53859  0.71454  1.0000
  H   H6530     1.0  0.82651  0.68105  0.72970  1.0000
  C   C3820     1.0  0.77255  0.51348  0.57928  1.0000
  H   H6531     1.0  0.82349  0.67364  0.75142  1.0000
  N   N275      1.0  0.85917  0.63323  0.63253  1.0000
  C   C3821     1.0  0.91864  0.71691  0.69758  1.0000
  C   C3822     1.0  0.75814  0.64806  0.86319  1.0000
  H   H6532     1.0  0.81751  0.57261  0.78442  1.0000
  S   S1102     1.0  0.92927  0.69152  0.72176  1.0000
  H   H6533     1.0  0.74919  0.63843  0.84744  1.0000
  H   H6534     1.0  0.89731  0.68478  0.86253  1.0000
  H   H6535     1.0  0.84835  0.62801  0.77156  1.0000
  H   H6536     1.0  0.81404  0.60969  0.48273  1.0000
  H   H6537     1.0  0.83739  0.66706  0.70701  1.0000
  H   H6538     1.0  0.77982  0.55479  0.80825  1.0000
  C   C3823     1.0  0.75365  0.67145  0.55404  1.0000
  S   S1103     1.0  0.87523  0.71962  0.59724  1.0000
  C   C3824     1.0  0.87732  0.63801  0.60265  1.0000
  H   H6539     1.0  0.83805  0.63607  0.62200  1.0000
  H   H6540     1.0  0.80438  0.56386  0.68468  1.0000
  C   C3825     1.0  0.82773  0.54781  0.80843  1.0000
  C   C3826     1.0  0.86650  0.64523  0.61764  1.0000
  C   C3827     1.0  0.96484  0.67759  0.78513  1.0000
  H   H6541     1.0  0.80853  0.54553  0.78576  1.0000
  H   H6542     1.0  0.81175  0.66366  0.72784  1.0000
  H   H6543     1.0  0.74031  0.70288  0.92926  1.0000
  H   H6544     1.0  0.85753  0.67264  0.70119  1.0000
  C   C3828     1.0  0.76292  0.50582  0.59647  1.0000
  H   H6545     1.0  0.83084  0.53841  0.80073  1.0000
  H   H6546     1.0  0.87913  0.60619  0.61947  1.0000
  H   H6547     1.0  0.84273  0.63503  0.65656  1.0000
  C   C3829     1.0  0.78083  0.56627  0.81126  1.0000
  H   H6548     1.0  0.77788  0.58285  0.49873  1.0000
  H   H6549     1.0  0.74089  0.72360  0.91752  1.0000
  H   H6550     1.0  0.85393  0.61888  0.61786  1.0000
  C   C3830     1.0  0.76537  0.72122  0.54862  1.0000
  C   C3831     1.0  0.75994  0.71261  0.93239  1.0000
  H   H6551     1.0  0.77970  0.61114  0.72980  1.0000
  H   H6552     1.0  0.88109  0.64845  0.59250  1.0000
  H   H6553     1.0  0.78579  0.57873  0.68880  1.0000
  H   H6554     1.0  0.74692  0.65752  0.86530  1.0000
  H   H6555     1.0  0.87641  0.73242  0.72578  1.0000
  H   H6556     1.0  0.75056  0.51422  0.59934  1.0000
  H   H6557     1.0  0.98318  0.64006  0.80559  1.0000
  C   C3832     1.0  0.76081  0.70633  0.50482  1.0000
  C   C3833     1.0  0.76250  0.72131  0.88008  1.0000
  H   H6558     1.0  0.75257  0.57500  0.71152  1.0000
  H   H6559     1.0  0.79487  0.58417  0.50597  1.0000
  H   H6560     1.0  0.77347  0.73040  0.54467  1.0000
  H   H6561     1.0  0.91242  0.71367  0.66406  1.0000
  H   H6562     1.0  0.78319  0.48677  0.55244  1.0000
  H   H6563     1.0  0.88274  0.71469  0.63452  1.0000
  H   H6564     1.0  0.84298  0.55973  0.49274  1.0000
  C   C3834     1.0  0.84009  0.59837  0.47910  1.0000
  H   H6565     1.0  0.87510  0.71129  0.69590  1.0000
  H   H6566     1.0  0.84274  0.60259  0.48904  1.0000
  H   H6567     1.0  0.74836  0.63555  0.73671  1.0000
  H   H6568     1.0  0.80622  0.71112  0.93559  1.0000
  C   C3835     1.0  0.88814  0.72801  0.71786  1.0000
  H   H6569     1.0  0.84992  0.71485  0.67605  1.0000
  H   H6570     1.0  0.74282  0.49271  0.67675  1.0000
  H   H6571     1.0  0.79184  0.60203  0.47704  1.0000
  H   H6572     1.0  0.74410  0.66018  0.50148  1.0000
  H   H6573     1.0  0.77208  0.71162  0.50134  1.0000
  H   H6574     1.0  0.85330  0.71888  0.69999  1.0000
  H   H6575     1.0  0.84889  0.58642  0.47770  1.0000
  H   H6576     1.0  0.92157  0.72485  0.74467  1.0000
  C   C3836     1.0  0.86479  0.71964  0.69016  1.0000
  C   C3837     1.0  0.90785  0.73147  0.69154  1.0000
  C   C3838     1.0  0.82655  0.56985  0.47499  1.0000
  H   H6577     1.0  0.75306  0.73094  0.96575  1.0000
  H   H6578     1.0  0.89346  0.73195  0.64523  1.0000
  C   C3839     1.0  0.98859  0.66349  0.80473  1.0000
  H   H6579     1.0  0.84245  0.80540  0.24000  1.0000
  H   H6580     1.0  0.78780  0.76822  0.06504  1.0000
  Fe  Fe556     1.0  0.92697  0.79204  0.21821  1.0000
  S   S1104     1.0  0.91610  0.80178  0.19557  1.0000
  S   S1105     1.0  0.91029  0.78378  0.24276  1.0000
  Fe  Fe557     1.0  0.96115  0.79866  0.19962  1.0000
  S   S1106     1.0  0.95271  0.80930  0.17573  1.0000
  S   S1107     1.0  0.75001  0.83060  0.25373  1.0000
  Fe  Fe558     1.0  0.92946  0.82238  0.19062  1.0000
  S   S1108     1.0  0.91775  0.84860  0.17939  1.0000
  Fe  Fe559     1.0  0.94019  0.78788  0.18279  1.0000
  H   H6581     1.0  0.87346  0.82587  0.17842  1.0000
  S   S1109     1.0  0.93891  0.81369  0.21417  1.0000
  S   S1110     1.0  0.94995  0.77624  0.20588  1.0000
  Fe  Fe560     1.0  0.80945  0.91222  0.17543  1.0000
  S   S1111     1.0  0.79674  0.93459  0.18619  1.0000
  S   S1112     1.0  0.80487  0.91471  0.15023  1.0000
  Fe  Fe561     1.0  0.82698  0.89576  0.20377  1.0000
  S   S1113     1.0  0.81560  0.91697  0.21684  1.0000
  S   S1114     1.0  0.84401  0.87401  0.21662  1.0000
  Fe  Fe562     1.0  0.79213  0.91644  0.21039  1.0000
  S   S1115     1.0  0.94519  0.77286  0.16355  1.0000
  Fe  Fe563     1.0  0.82119  0.93321  0.19162  1.0000
  S   S1116     1.0  0.83208  0.95608  0.18373  1.0000
  S   S1117     1.0  0.80284  0.89394  0.19928  1.0000
  S   S1118     1.0  0.83452  0.91214  0.17891  1.0000
  C   C3840     1.0  0.77303  0.89792  0.13504  1.0000
  H   H6582     1.0  0.85850  0.91154  0.24167  1.0000
  C   C3841     1.0  0.84618  0.80960  0.22632  1.0000
  H   H6583     1.0  0.77875  0.86633  0.16834  1.0000
  H   H6584     1.0  0.86143  0.83519  0.19534  1.0000
  C   C3842     1.0  0.75310  0.75631  0.04549  1.0000
  H   H6585     1.0  0.84474  0.90079  0.23878  1.0000
  H   H6586     1.0  0.88379  0.78230  0.22515  1.0000
  H   H6587     1.0  0.88423  0.94827  0.19418  1.0000
  H   H6588     1.0  0.83953  0.80312  0.22149  1.0000
  C   C3843     1.0  0.85231  0.91035  0.23247  1.0000
  C   C3844     1.0  0.78017  0.75183  0.02710  1.0000
  H   H6589     1.0  0.78159  0.79830  0.22531  1.0000
  H   H6590     1.0  0.78909  0.75625  0.01622  1.0000
  C   C3845     1.0  0.86940  0.80753  0.20155  1.0000
  C   C3846     1.0  0.79214  0.90227  0.14900  1.0000
  H   H6591     1.0  0.74110  0.76409  0.04898  1.0000
  H   H6592     1.0  0.74889  0.82875  0.18088  1.0000
  C   C3847     1.0  0.78000  0.87784  0.15939  1.0000
  C   C3848     1.0  0.79031  0.88749  0.16068  1.0000
  C   C3849     1.0  0.83816  0.82824  0.22184  1.0000
  H   H6593     1.0  0.87229  0.79882  0.25247  1.0000
  H   H6594     1.0  0.79700  0.88338  0.17056  1.0000
  H   H6595     1.0  0.82831  0.93729  0.13317  1.0000
  H   H6596     1.0  0.91994  0.74602  0.13669  1.0000
  H   H6597     1.0  0.87118  0.89172  0.22170  1.0000
  H   H6598     1.0  0.93996  0.74595  0.19113  1.0000
  C   C3850     1.0  0.76040  0.89162  0.23222  1.0000
  C   C3851     1.0  0.76026  0.76423  0.33391  1.0000
  H   H6599     1.0  0.76956  0.95928  0.21331  1.0000
  H   H6600     1.0  0.75786  0.73332  0.29692  1.0000
  C   C3852     1.0  0.76497  0.75922  0.31700  1.0000
  H   H6601     1.0  0.82160  0.95084  0.21968  1.0000
  C   C3853     1.0  0.87194  0.82506  0.19186  1.0000
  H   H6602     1.0  0.76645  0.90200  0.12511  1.0000
  H   H6603     1.0  0.88653  0.76954  0.17514  1.0000
  H   H6604     1.0  0.84586  0.83654  0.22220  1.0000
  C   C3854     1.0  0.86998  0.78606  0.22709  1.0000
  C   C3855     1.0  0.91208  0.77181  0.16986  1.0000
  S   S1119     1.0  0.74735  0.79829  0.23143  1.0000
  H   H6605     1.0  0.78962  0.97250  0.15742  1.0000
  H   H6606     1.0  0.90992  0.77887  0.17918  1.0000
  C   C3856     1.0  0.90693  0.73781  0.24102  1.0000
  C   C3857     1.0  0.79296  0.80472  0.19360  1.0000
  H   H6607     1.0  0.87062  0.77498  0.20639  1.0000
  H   H6608     1.0  0.88355  0.82734  0.19328  1.0000
  C   C3858     1.0  0.89740  0.85597  0.18980  1.0000
  C   C3859     1.0  0.89229  0.85044  0.20690  1.0000
  C   C3860     1.0  0.87602  0.85660  0.21505  1.0000
  C   C3861     1.0  0.86463  0.86777  0.20609  1.0000
  C   C3862     1.0  0.86979  0.87351  0.18903  1.0000
  C   C3863     1.0  0.88622  0.86775  0.18093  1.0000
  H   H6609     1.0  0.90093  0.84152  0.21386  1.0000
  H   H6610     1.0  0.87215  0.85237  0.22831  1.0000
  H   H6611     1.0  0.86109  0.88209  0.18200  1.0000
  H   H6612     1.0  0.89016  0.87209  0.16770  1.0000
  H   H6613     1.0  0.89678  0.91634  0.18556  1.0000
  H   H6614     1.0  0.79542  0.95216  0.14114  1.0000
  H   H6615     1.0  0.74769  0.97972  0.05983  1.0000
  C   C3864     1.0  0.75258  0.89134  0.19249  1.0000
  H   H6616     1.0  0.75556  0.93935  0.16620  1.0000
  H   H6617     1.0  0.78369  0.81500  0.03641  1.0000
  H   H6618     1.0  0.74716  0.77107  0.33674  1.0000
  C   C3865     1.0  0.74464  0.93917  0.17690  1.0000
  C   C3866     1.0  0.81977  0.98040  0.12092  1.0000
  C   C3867     1.0  0.74692  0.84518  0.20546  1.0000
  H   H6619     1.0  0.87793  0.81826  0.24840  1.0000
  H   H6620     1.0  0.74790  0.92058  0.15614  1.0000
  H   H6621     1.0  0.80615  0.94078  0.11669  1.0000
  H   H6622     1.0  0.85742  0.90341  0.20904  1.0000
  C   C3868     1.0  0.79201  0.78815  0.22895  1.0000
  C   C3869     1.0  0.78421  0.73576  0.03673  1.0000
  H   H6623     1.0  0.76334  0.77114  0.30766  1.0000
  H   H6624     1.0  0.81637  0.94976  0.15604  1.0000
  H   H6625     1.0  0.77143  0.79164  0.07824  1.0000
  H   H6626     1.0  0.85102  0.77658  0.22150  1.0000
  C   C3870     1.0  0.78012  0.96267  0.21582  1.0000
  H   H6627     1.0  0.77066  0.76574  0.28265  1.0000
  N   N276      1.0  0.75529  0.74772  0.31521  1.0000
  C   C3871     1.0  0.76455  0.76209  0.03139  1.0000
  H   H6628     1.0  0.74932  0.85658  0.19619  1.0000
  C   C3872     1.0  0.86981  0.81184  0.24544  1.0000
  C   C3873     1.0  0.76291  0.75699  0.28333  1.0000
  H   H6629     1.0  0.86892  0.76132  0.22627  1.0000
  H   H6630     1.0  0.80127  0.79437  0.23029  1.0000
  H   H6631     1.0  0.86000  0.80456  0.19671  1.0000
  H   H6632     1.0  0.75435  0.86771  0.23605  1.0000
  H   H6633     1.0  0.95014  0.73311  0.16826  1.0000
  H   H6634     1.0  0.88697  0.90868  0.24429  1.0000
  H   H6635     1.0  0.89038  0.89335  0.23252  1.0000
  H   H6636     1.0  0.78067  0.98172  0.19387  1.0000
  H   H6637     1.0  0.96968  0.80161  0.11957  1.0000
  Fe  Fe564     1.0  0.89541  0.73292  0.13523  1.0000
  H   H6638     1.0  0.77955  0.83624  0.04958  1.0000
  C   C3874     1.0  0.87405  0.81317  0.22655  1.0000
  C   C3875     1.0  0.87624  0.94502  0.18792  1.0000
  H   H6639     1.0  0.78515  0.82172  0.06798  1.0000
  H   H6640     1.0  0.78652  0.78216  0.30569  1.0000
  S   S1120     1.0  0.76697  0.92288  0.22688  1.0000
  C   C3876     1.0  0.82842  0.96908  0.19761  1.0000
  H   H6641     1.0  0.78524  0.91859  0.12684  1.0000
  H   H6642     1.0  0.78779  0.79715  0.06155  1.0000
  C   C3877     1.0  0.77071  0.81352  0.03846  1.0000
  H   H6643     1.0  0.88139  0.79902  0.19743  1.0000
  H   H6644     1.0  0.90617  0.90432  0.22992  1.0000
  H   H6645     1.0  0.77943  0.78808  0.25453  1.0000
  C   C3878     1.0  0.80434  0.78130  0.28259  1.0000
  C   C3879     1.0  0.91767  0.75313  0.14600  1.0000
  C   C3880     1.0  0.77810  0.77759  0.05916  1.0000
  H   H6646     1.0  0.92312  0.75497  0.22768  1.0000
  C   C3881     1.0  0.91240  0.75277  0.23745  1.0000
  N   N277      1.0  0.87684  0.91576  0.20760  1.0000
  N   N278      1.0  0.86470  0.80449  0.22027  1.0000
  H   H6647     1.0  0.88770  0.80852  0.22271  1.0000
  H   H6648     1.0  0.89576  0.88197  0.20864  1.0000
  C   C3882     1.0  0.84844  0.95018  0.12601  1.0000
  H   H6649     1.0  0.95956  0.82154  0.12419  1.0000
  C   C3883     1.0  0.90413  0.76478  0.24686  1.0000
  H   H6650     1.0  0.81630  0.79436  0.20122  1.0000
  H   H6651     1.0  0.80577  0.96113  0.10301  1.0000
  S   S1121     1.0  0.76070  0.81093  0.29844  1.0000
  H   H6652     1.0  0.87197  0.82653  0.22099  1.0000
  H   H6653     1.0  0.86507  0.78282  0.24072  1.0000
  C   C3884     1.0  0.74650  0.96569  0.13333  1.0000
  H   H6654     1.0  0.87397  0.74518  0.27270  1.0000
  C   C3885     1.0  0.76339  0.74274  0.29883  1.0000
  H   H6655     1.0  0.76098  0.93722  0.19347  1.0000
  C   C3886     1.0  0.80006  0.95420  0.11515  1.0000
  H   H6656     1.0  0.97675  0.81760  0.14424  1.0000
  H   H6657     1.0  0.74818  0.73547  0.34100  1.0000
  C   C3887     1.0  0.74949  0.88065  0.23659  1.0000
  H   H6658     1.0  0.97243  0.73889  0.17299  1.0000
  S   S1122     1.0  0.88553  0.74943  0.15365  1.0000
  C   C3888     1.0  0.82329  0.96346  0.21470  1.0000
  C   C3889     1.0  0.74694  0.80395  0.05857  1.0000
  S   S1123     1.0  0.84211  0.73833  0.28382  1.0000
  H   H6659     1.0  0.77385  0.77413  0.24632  1.0000
  C   C3890     1.0  0.82026  0.97428  0.22540  1.0000
  S   S1124     1.0  0.84605  0.73756  0.24465  1.0000
  S   S1125     1.0  0.75791  0.87119  0.14558  1.0000
  H   H6660     1.0  0.98572  0.73439  0.18711  1.0000
  C   C3891     1.0  0.98597  0.78044  0.14669  1.0000
  C   C3892     1.0  0.96657  0.80898  0.12915  1.0000
  H   H6661     1.0  0.74957  0.83273  0.06139  1.0000
  H   H6662     1.0  0.77179  0.80353  0.03203  1.0000
  H   H6663     1.0  0.76276  0.75341  0.34418  1.0000
  H   H6664     1.0  0.74854  0.73617  0.06644  1.0000
  H   H6665     1.0  0.75983  0.84065  0.03349  1.0000
  H   H6666     1.0  0.85757  0.94002  0.12060  1.0000
  N   N279      1.0  0.81698  0.96347  0.13072  1.0000
  H   H6667     1.0  0.91084  0.74643  0.20320  1.0000
  C   C3893     1.0  0.80043  0.96103  0.12984  1.0000
  H   H6668     1.0  0.83492  0.83161  0.20953  1.0000
  C   C3894     1.0  0.78453  0.77902  0.24635  1.0000
  C   C3895     1.0  0.80189  0.97449  0.15739  1.0000
  H   H6669     1.0  0.88358  0.94142  0.17615  1.0000
  Fe  Fe565     1.0  0.82987  0.75252  0.26278  1.0000
  H   H6670     1.0  0.81635  0.74828  0.20463  1.0000
  C   C3896     1.0  0.90172  0.75702  0.15576  1.0000
  S   S1126     1.0  0.81007  0.73792  0.27016  1.0000
  H   H6671     1.0  0.76808  0.77287  0.33343  1.0000
  C   C3897     1.0  0.92810  0.76764  0.16027  1.0000
  C   C3898     1.0  0.74909  0.94482  0.19040  1.0000
  C   C3899     1.0  0.89036  0.76185  0.25967  1.0000
  C   C3900     1.0  0.89888  0.76649  0.16760  1.0000
  S   S1127     1.0  0.74845  0.89974  0.10197  1.0000
  H   H6672     1.0  0.79111  0.76740  0.20048  1.0000
  H   H6673     1.0  0.81158  0.75678  0.23282  1.0000
  H   H6674     1.0  0.95792  0.80333  0.14015  1.0000
  H   H6675     1.0  0.94318  0.75522  0.14075  1.0000
  C   C3901     1.0  0.75285  0.94966  0.13022  1.0000
  C   C3902     1.0  0.81473  0.76523  0.22068  1.0000
  H   H6676     1.0  0.78258  0.77881  0.04559  1.0000
  C   C3903     1.0  0.75732  0.74045  0.05539  1.0000
  H   H6677     1.0  0.82367  0.77153  0.22249  1.0000
  C   C3904     1.0  0.77531  0.79415  0.06448  1.0000
  C   C3905     1.0  0.81655  0.96262  0.14859  1.0000
  C   C3906     1.0  0.88568  0.92001  0.21832  1.0000
  H   H6678     1.0  0.79391  0.76915  0.25205  1.0000
  H   H6679     1.0  0.81137  0.76907  0.28713  1.0000
  H   H6680     1.0  0.85955  0.92891  0.19160  1.0000
  C   C3907     1.0  0.86665  0.93166  0.19925  1.0000
  C   C3908     1.0  0.90162  0.89183  0.19967  1.0000
  C   C3909     1.0  0.91874  0.73529  0.19853  1.0000
  H   H6681     1.0  0.88405  0.77095  0.26719  1.0000
  C   C3910     1.0  0.82448  0.75421  0.20813  1.0000
  C   C3911     1.0  0.93688  0.73408  0.19901  1.0000
  H   H6682     1.0  0.80433  0.81244  0.24804  1.0000
  H   H6683     1.0  0.77906  0.96011  0.22930  1.0000
  C   C3912     1.0  0.78586  0.81270  0.27082  1.0000
  C   C3913     1.0  0.80040  0.80575  0.26057  1.0000
  C   C3914     1.0  0.78047  0.80390  0.28688  1.0000
  C   C3915     1.0  0.88898  0.90773  0.19413  1.0000
  H   H6684     1.0  0.77670  0.73648  0.29859  1.0000
  H   H6685     1.0  0.82661  0.83110  0.23133  1.0000
  C   C3916     1.0  0.98199  0.81074  0.13401  1.0000
  C   C3917     1.0  0.80923  0.78977  0.26627  1.0000
  C   C3918     1.0  0.79020  0.78860  0.29304  1.0000
  H   H6686     1.0  0.77366  0.88705  0.22853  1.0000
  H   H6687     1.0  0.90864  0.88654  0.18865  1.0000
  C   C3919     1.0  0.78366  0.90733  0.13607  1.0000
  C   C3920     1.0  0.77121  0.88313  0.14666  1.0000
  H   H6688     1.0  0.87729  0.92991  0.22474  1.0000
  S   S1128     1.0  0.75988  0.78231  0.01941  1.0000
  H   H6689     1.0  0.76675  0.77240  0.06331  1.0000
  H   H6690     1.0  0.74566  0.78628  0.08299  1.0000
  H   H6691     1.0  0.91098  0.89455  0.20465  1.0000
  H   H6692     1.0  0.86406  0.74512  0.19208  1.0000
  H   H6693     1.0  0.75575  0.81858  0.07886  1.0000
  H   H6694     1.0  0.74857  0.79451  0.05124  1.0000
  Fe  Fe566     1.0  0.74319  0.82009  0.28112  1.0000
  H   H6695     1.0  0.88213  0.90469  0.18642  1.0000
  H   H6696     1.0  0.84346  0.92215  0.22897  1.0000
  H   H6697     1.0  0.85190  0.96205  0.11866  1.0000
  C   C3921     1.0  0.88455  0.74725  0.26277  1.0000
  C   C3922     1.0  0.86468  0.77431  0.21970  1.0000
  Fe  Fe567     1.0  0.74141  0.88370  0.12725  1.0000
  H   H6698     1.0  0.78691  0.95515  0.11498  1.0000
  C   C3923     1.0  0.86483  0.90467  0.21727  1.0000
  H   H6699     1.0  0.96546  0.74709  0.19161  1.0000
  H   H6700     1.0  0.85716  0.93802  0.20855  1.0000
  S   S1129     1.0  0.82534  0.77986  0.25248  1.0000
  C   C3924     1.0  0.77485  0.83068  0.06275  1.0000
  H   H6701     1.0  0.89637  0.92555  0.21046  1.0000
  H   H6702     1.0  0.77878  0.82487  0.26630  1.0000
  H   H6703     1.0  0.78821  0.75050  0.23678  1.0000
  C   C3925     1.0  0.83083  0.94948  0.12535  1.0000
  C   C3926     1.0  0.89253  0.90567  0.23188  1.0000
  H   H6704     1.0  0.91731  0.73728  0.18569  1.0000
  H   H6705     1.0  0.85677  0.81809  0.24990  1.0000
  N   N280      1.0  0.76323  0.80859  0.05668  1.0000
  C   C3927     1.0  0.75997  0.82271  0.06523  1.0000
  C   C3928     1.0  0.97260  0.73616  0.18630  1.0000
  C   C3929     1.0  0.75666  0.73260  0.32926  1.0000
  C   C3930     1.0  0.93083  0.75843  0.14825  1.0000
  C   C3931     1.0  0.78142  0.98068  0.20687  1.0000
  N   N281      1.0  0.79974  0.77790  0.21593  1.0000
  H   H6706     1.0  0.76199  0.97790  0.24732  1.0000
  H   H6707     1.0  0.82797  0.96558  0.14979  1.0000
  H   H6708     1.0  0.74989  0.93086  0.11950  1.0000
  H   H6709     1.0  0.76574  0.91031  0.17718  1.0000
  H   H6710     1.0  0.78978  0.81436  0.20101  1.0000
  H   H6711     1.0  0.74906  0.77907  0.20824  1.0000
  H   H6712     1.0  0.83155  0.94859  0.11256  1.0000
  H   H6713     1.0  0.83370  0.74400  0.21385  1.0000
  C   C3932     1.0  0.76105  0.82948  0.02876  1.0000
  H   H6714     1.0  0.77067  0.84101  0.06946  1.0000
  S   S1130     1.0  0.75678  0.97314  0.14403  1.0000
  H   H6715     1.0  0.76822  0.75161  0.27213  1.0000
  H   H6716     1.0  0.77509  0.77922  0.21316  1.0000
  H   H6717     1.0  0.79161  0.95410  0.21090  1.0000
  C   C3933     1.0  0.74477  0.94315  0.12205  1.0000
  C   C3934     1.0  0.78717  0.77017  0.21309  1.0000
  H   H6718     1.0  0.97786  0.82078  0.21388  1.0000
  H   H6719     1.0  0.76994  0.75469  0.22910  1.0000
  H   H6720     1.0  0.75095  0.95777  0.18550  1.0000
  H   H6721     1.0  0.76793  0.83180  0.01564  1.0000
  H   H6722     1.0  0.76452  0.88341  0.19537  1.0000
  C   C3935     1.0  0.89278  0.73517  0.25347  1.0000
  H   H6723     1.0  0.74859  0.82818  0.02860  1.0000
  H   H6724     1.0  0.86709  0.95664  0.18437  1.0000
  H   H6725     1.0  0.81630  0.96993  0.23863  1.0000
  H   H6726     1.0  0.83162  0.76125  0.19686  1.0000
  C   C3936     1.0  0.78361  0.75378  0.22526  1.0000
  H   H6727     1.0  0.74852  0.84672  0.21730  1.0000
  H   H6728     1.0  0.76406  0.94222  0.13415  1.0000
  H   H6729     1.0  0.81129  0.78275  0.18969  1.0000
  H   H6730     1.0  0.84983  0.94801  0.13894  1.0000
  C   C3937     1.0  0.75409  0.90843  0.23282  1.0000
  H   H6731     1.0  0.75650  0.83420  0.20223  1.0000
  C   C3938     1.0  0.80597  0.78949  0.19998  1.0000
  H   H6732     1.0  0.78146  0.80132  0.19331  1.0000
  H   H6733     1.0  0.79836  0.81063  0.18071  1.0000
  H   H6734     1.0  0.75102  0.97880  0.22749  1.0000
  C   C3939     1.0  0.75433  0.90960  0.18721  1.0000
  H   H6735     1.0  0.78870  0.74316  0.21896  1.0000
  H   H6736     1.0  0.75004  0.76386  0.28261  1.0000
  H   H6737     1.0  0.98015  0.77791  0.13786  1.0000
  S   S1131     1.0  0.90619  0.73992  0.10801  1.0000
  H   H6738     1.0  0.77859  0.75362  0.31464  1.0000
  H   H6739     1.0  0.97552  0.78353  0.15717  1.0000
  H   H6740     1.0  0.74103  0.81701  0.16458  1.0000
  H   H6741     1.0  0.78420  0.97493  0.24495  1.0000
  H   H6742     1.0  0.75714  0.91200  0.19809  1.0000
  H   H6743     1.0  0.75020  0.88687  0.18264  1.0000
  H   H6744     1.0  0.79422  0.98181  0.20610  1.0000
  H   H6745     1.0  0.74304  0.88914  0.20404  1.0000
  H   H6746     1.0  0.80259  0.97207  0.17055  1.0000
  H   H6747     1.0  0.79099  0.97293  0.12965  1.0000
  H   H6748     1.0  0.93708  0.73432  0.21183  1.0000
  H   H6749     1.0  0.82992  0.97292  0.09664  1.0000
  H   H6750     1.0  0.97501  0.73967  0.10261  1.0000
  H   H6751     1.0  0.88465  0.73301  0.19062  1.0000
  H   H6752     1.0  0.84231  0.73891  0.98685  1.0000
  H   H6753     1.0  0.98811  0.81962  0.12359  1.0000
  S   S1132     1.0  0.98896  0.79264  0.19739  1.0000
  H   H6754     1.0  0.86135  0.73477  0.00447  1.0000
  H   H6755     1.0  0.98964  0.74530  0.23920  1.0000
  C   C3940     1.0  0.89058  0.73863  0.60672  1.0000
  C   C3941     1.0  0.84233  0.85556  0.60679  1.0000
  N   N282      1.0  0.76719  0.76244  0.62886  1.0000
  H   H6756     1.0  0.74905  0.74706  0.64250  1.0000
  C   C3942     1.0  0.75830  0.76982  0.61478  1.0000
  C   C3943     1.0  0.78250  0.74940  0.62426  1.0000
  H   H6757     1.0  0.94399  0.80257  0.65945  1.0000
  H   H6758     1.0  0.92846  0.75369  0.68935  1.0000
  H   H6759     1.0  0.84958  0.75051  0.67215  1.0000
  H   H6760     1.0  0.79342  0.92485  0.71144  1.0000
  C   C3944     1.0  0.86261  0.75152  0.60293  1.0000
  H   H6761     1.0  0.76384  0.78162  0.87079  1.0000
  H   H6762     1.0  0.79152  0.74767  0.63209  1.0000
  H   H6763     1.0  0.75121  0.83773  0.68285  1.0000
  H   H6764     1.0  0.86621  0.73258  0.68729  1.0000
  Fe  Fe568     1.0  0.75804  0.82390  0.58314  1.0000
  S   S1133     1.0  0.78498  0.81468  0.57245  1.0000
  H   H6765     1.0  0.74672  0.76431  0.92241  1.0000
  Fe  Fe569     1.0  0.80191  0.92638  0.65061  1.0000
  S   S1134     1.0  0.79068  0.91075  0.67463  1.0000
  S   S1135     1.0  0.81695  0.94333  0.65339  1.0000
  Fe  Fe570     1.0  0.78837  0.91077  0.63026  1.0000
  S   S1136     1.0  0.77556  0.89506  0.65284  1.0000
  S   S1137     1.0  0.78896  0.90495  0.60598  1.0000
  Fe  Fe571     1.0  0.76832  0.91754  0.66364  1.0000
  C   C3945     1.0  0.86958  0.85395  0.61136  1.0000
  Fe  Fe572     1.0  0.79922  0.88966  0.66145  1.0000
  S   S1138     1.0  0.80780  0.86239  0.67214  1.0000
  S   S1139     1.0  0.77889  0.93426  0.64019  1.0000
  S   S1140     1.0  0.81262  0.90437  0.63833  1.0000
  Fe  Fe573     1.0  0.89230  0.77190  0.67178  1.0000
  S   S1141     1.0  0.90903  0.76240  0.64971  1.0000
  H   H6766     1.0  0.78215  0.76701  0.81952  1.0000
  Fe  Fe574     1.0  0.89372  0.80788  0.65558  1.0000
  S   S1142     1.0  0.91066  0.80130  0.63215  1.0000
  S   S1143     1.0  0.88566  0.83486  0.65710  1.0000
  Fe  Fe575     1.0  0.89389  0.78406  0.63486  1.0000
  H   H6767     1.0  0.74180  0.86838  0.66998  1.0000
  Fe  Fe576     1.0  0.92425  0.78047  0.64932  1.0000
  S   S1144     1.0  0.95240  0.77241  0.64653  1.0000
  S   S1145     1.0  0.87612  0.79224  0.65709  1.0000
  S   S1146     1.0  0.90838  0.78830  0.67255  1.0000
  H   H6768     1.0  0.83461  0.82135  0.64650  1.0000
  C   C3946     1.0  0.76248  0.74780  0.65983  1.0000
  H   H6769     1.0  0.86518  0.82476  0.63250  1.0000
  C   C3947     1.0  0.86384  0.76593  0.60699  1.0000
  H   H6770     1.0  0.92084  0.76955  0.72746  1.0000
  C   C3948     1.0  0.95291  0.75315  0.71587  1.0000
  N   N283      1.0  0.77981  0.95947  0.69923  1.0000
  H   H6771     1.0  0.87328  0.83948  0.58813  1.0000
  H   H6772     1.0  0.75458  0.90985  0.62403  1.0000
  H   H6773     1.0  0.75240  0.94282  0.73429  1.0000
  C   C3949     1.0  0.82948  0.85503  0.66897  1.0000
  C   C3950     1.0  0.84033  0.86586  0.66127  1.0000
  C   C3951     1.0  0.85761  0.85962  0.65821  1.0000
  C   C3952     1.0  0.86410  0.84251  0.66268  1.0000
  C   C3953     1.0  0.85325  0.83172  0.67073  1.0000
  C   C3954     1.0  0.83597  0.83798  0.67386  1.0000
  H   H6774     1.0  0.83545  0.87906  0.65769  1.0000
  H   H6775     1.0  0.86595  0.86803  0.65211  1.0000
  H   H6776     1.0  0.85815  0.81857  0.67456  1.0000
  H   H6777     1.0  0.82764  0.82958  0.67999  1.0000
  H   H6778     1.0  0.78222  0.74852  0.83546  1.0000
  H   H6779     1.0  0.78832  0.79444  0.62246  1.0000
  C   C3955     1.0  0.75636  0.90152  0.61594  1.0000
  C   C3956     1.0  0.77193  0.89732  0.60560  1.0000
  C   C3957     1.0  0.77403  0.88668  0.59499  1.0000
  C   C3958     1.0  0.76073  0.87997  0.59499  1.0000
  H   H6780     1.0  0.77746  0.77403  0.84581  1.0000
  H   H6781     1.0  0.74418  0.85390  0.63985  1.0000
  H   H6782     1.0  0.78601  0.88347  0.58690  1.0000
  H   H6783     1.0  0.76249  0.87166  0.58689  1.0000
  H   H6784     1.0  0.74358  0.80953  0.84823  1.0000
  H   H6785     1.0  0.91433  0.74655  0.74351  1.0000
  H   H6786     1.0  0.76684  0.78799  0.50090  1.0000
  C   C3959     1.0  0.96516  0.76399  0.70425  1.0000
  H   H6787     1.0  0.77460  0.93905  0.69221  1.0000
  H   H6788     1.0  0.78367  0.95321  0.67557  1.0000
  C   C3960     1.0  0.77249  0.77637  0.63237  1.0000
  C   C3961     1.0  0.75403  0.79853  0.84927  1.0000
  H   H6789     1.0  0.84806  0.73565  0.65224  1.0000
  H   H6790     1.0  0.97732  0.75601  0.69977  1.0000
  C   C3962     1.0  0.79400  0.75940  0.57427  1.0000
  C   C3963     1.0  0.80627  0.76579  0.57679  1.0000
  C   C3964     1.0  0.80380  0.78295  0.57555  1.0000
  C   C3965     1.0  0.78891  0.79357  0.57223  1.0000
  C   C3966     1.0  0.77683  0.78714  0.56947  1.0000
  C   C3967     1.0  0.77943  0.77012  0.57028  1.0000
  H   H6791     1.0  0.81767  0.75754  0.57962  1.0000
  H   H6792     1.0  0.81324  0.78791  0.57758  1.0000
  H   H6793     1.0  0.76545  0.79530  0.56673  1.0000
  H   H6794     1.0  0.76997  0.76518  0.56828  1.0000
  H   H6795     1.0  0.98866  0.82538  0.60225  1.0000
  C   C3968     1.0  0.76552  0.78826  0.51410  1.0000
  C   C3969     1.0  0.77453  0.95249  0.68765  1.0000
  H   H6796     1.0  0.77162  0.82461  0.68385  1.0000
  H   H6797     1.0  0.77436  0.93492  0.73337  1.0000
  S   S1147     1.0  0.87971  0.75601  0.69469  1.0000
  C   C3970     1.0  0.98207  0.79468  0.66904  1.0000
  H   H6798     1.0  0.79468  0.77788  0.61170  1.0000
  H   H6799     1.0  0.75829  0.89500  0.73087  1.0000
  H   H6800     1.0  0.76229  0.90128  0.70023  1.0000
  H   H6801     1.0  0.76381  0.75524  0.89250  1.0000
  C   C3971     1.0  0.75513  0.75607  0.64430  1.0000
  H   H6802     1.0  0.96609  0.73953  0.68840  1.0000
  S   S1148     1.0  0.79615  0.73804  0.57675  1.0000
  H   H6803     1.0  0.76443  0.93325  0.71806  1.0000
  C   C3972     1.0  0.88757  0.84444  0.61229  1.0000
  H   H6804     1.0  0.77040  0.79873  0.53715  1.0000
  C   C3973     1.0  0.96349  0.78114  0.65540  1.0000
  H   H6805     1.0  0.80652  0.95583  0.69003  1.0000
  H   H6806     1.0  0.76140  0.78569  0.63694  1.0000
  H   H6807     1.0  0.88710  0.73338  0.66615  1.0000
  H   H6808     1.0  0.96084  0.77242  0.69333  1.0000
  H   H6809     1.0  0.93587  0.73663  0.74450  1.0000
  H   H6810     1.0  0.82947  0.96667  0.66237  1.0000
  C   C3974     1.0  0.85374  0.83346  0.62916  1.0000
  H   H6811     1.0  0.88804  0.83392  0.62311  1.0000
  C   C3975     1.0  0.81034  0.96518  0.65131  1.0000
  H   H6812     1.0  0.76925  0.74098  0.91942  1.0000
  H   H6813     1.0  0.76872  0.80465  0.65247  1.0000
  C   C3976     1.0  0.74127  0.92199  0.69955  1.0000
  C   C3977     1.0  0.75880  0.74695  0.88869  1.0000
  C   C3978     1.0  0.74497  0.75248  0.93141  1.0000
  C   C3979     1.0  0.95649  0.79608  0.66071  1.0000
  H   H6814     1.0  0.75520  0.78502  0.81492  1.0000
  C   C3980     1.0  0.95382  0.73971  0.68640  1.0000
  H   H6815     1.0  0.94332  0.76571  0.68411  1.0000
  C   C3981     1.0  0.87605  0.73785  0.60263  1.0000
  C   C3982     1.0  0.85476  0.82553  0.59311  1.0000
  H   H6816     1.0  0.86903  0.75602  0.65939  1.0000
  H   H6817     1.0  0.84672  0.81821  0.60307  1.0000
  H   H6818     1.0  0.76141  0.83051  0.50429  1.0000
  C   C3983     1.0  0.75802  0.80561  0.53447  1.0000
  C   C3984     1.0  0.76792  0.95862  0.71590  1.0000
  H   H6819     1.0  0.80207  0.98165  0.69669  1.0000
  C   C3985     1.0  0.96572  0.80277  0.66753  1.0000
  C   C3986     1.0  0.85745  0.75255  0.65948  1.0000
  N   N284      1.0  0.75750  0.80557  0.51711  1.0000
  H   H6820     1.0  0.74154  0.78960  0.87513  1.0000
  H   H6821     1.0  0.89452  0.85301  0.61369  1.0000
  C   C3987     1.0  0.78364  0.78613  0.61776  1.0000
  H   H6822     1.0  0.77369  0.73783  0.65752  1.0000
  H   H6823     1.0  0.74272  0.75155  0.61877  1.0000
  C   C3988     1.0  0.81884  0.97359  0.65709  1.0000
  H   H6824     1.0  0.74913  0.79848  0.54368  1.0000
  N   N285      1.0  0.75293  0.78590  0.84053  1.0000
  H   H6825     1.0  0.75295  0.83367  0.52898  1.0000
  C   C3989     1.0  0.75548  0.79372  0.82224  1.0000
  C   C3990     1.0  0.76657  0.77064  0.84386  1.0000
  C   C3991     1.0  0.89160  0.75281  0.61133  1.0000
  H   H6826     1.0  0.76562  0.80334  0.84336  1.0000
  H   H6827     1.0  0.85357  0.77661  0.60677  1.0000
  H   H6828     1.0  0.76809  0.79665  0.81756  1.0000
  C   C3992     1.0  0.77413  0.76033  0.83033  1.0000
  H   H6829     1.0  0.75305  0.74196  0.66975  1.0000
  H   H6830     1.0  0.75533  0.80267  0.87266  1.0000
  C   C3993     1.0  0.86598  0.83258  0.59950  1.0000
  H   H6831     1.0  0.77835  0.78428  0.51637  1.0000
  H   H6832     1.0  0.95522  0.74140  0.67284  1.0000
  H   H6833     1.0  0.78928  0.75369  0.61135  1.0000
  C   C3994     1.0  0.92430  0.76969  0.71400  1.0000
  C   C3995     1.0  0.75721  0.96094  0.68392  1.0000
  C   C3996     1.0  0.74281  0.80985  0.81707  1.0000
  C   C3997     1.0  0.89272  0.73718  0.70174  1.0000
  C   C3998     1.0  0.92906  0.78665  0.70571  1.0000
  C   C3999     1.0  0.92986  0.73946  0.72022  1.0000
  C   C4000     1.0  0.74514  0.88427  0.60528  1.0000
  C   C4001     1.0  0.76489  0.94136  0.72582  1.0000
  H   H6834     1.0  0.80381  0.92902  0.68984  1.0000
  C   C4002     1.0  0.87828  0.76659  0.61132  1.0000
  H   H6835     1.0  0.75465  0.77336  0.53826  1.0000
  C   C4003     1.0  0.76219  0.74097  0.93240  1.0000
  H   H6836     1.0  0.76709  0.81628  0.49144  1.0000
  H   H6837     1.0  0.76436  0.76210  0.52228  1.0000
  H   H6838     1.0  0.76663  0.77551  0.60355  1.0000
  H   H6839     1.0  0.98892  0.80251  0.63263  1.0000
  C   C4004     1.0  0.79669  0.97427  0.64439  1.0000
  H   H6840     1.0  0.77236  0.96354  0.72420  1.0000
  C   C4005     1.0  0.94015  0.75412  0.69239  1.0000
  H   H6841     1.0  0.85146  0.75117  0.59957  1.0000
  H   H6842     1.0  0.93279  0.78879  0.69205  1.0000
  C   C4006     1.0  0.75368  0.79247  0.86799  1.0000
  H   H6843     1.0  0.74486  0.76539  0.59906  1.0000
  S   S1149     1.0  0.74159  0.84683  0.57134  1.0000
  H   H6844     1.0  0.75488  0.95467  0.67533  1.0000
  S   S1150     1.0  0.75173  0.83079  0.60777  1.0000
  H   H6845     1.0  0.77956  0.77154  0.64239  1.0000
  C   C4007     1.0  0.78547  0.81493  0.50492  1.0000
  H   H6846     1.0  0.80009  0.95305  0.71197  1.0000
  H   H6847     1.0  0.76196  0.74887  0.60303  1.0000
  N   N286      1.0  0.85761  0.84363  0.61178  1.0000
  H   H6848     1.0  0.79008  0.96797  0.63983  1.0000
  C   C4008     1.0  0.84084  0.82264  0.63317  1.0000
  N   N287      1.0  0.76646  0.84709  0.64967  1.0000
  C   C4009     1.0  0.77406  0.85909  0.63494  1.0000
  C   C4010     1.0  0.75168  0.75794  0.60889  1.0000
  C   C4011     1.0  0.77246  0.83000  0.64568  1.0000
  C   C4012     1.0  0.77230  0.84751  0.66454  1.0000
  C   C4013     1.0  0.79323  0.85545  0.62997  1.0000
  H   H6849     1.0  0.96774  0.77188  0.71117  1.0000
  H   H6850     1.0  0.75824  0.81589  0.66839  1.0000
  H   H6851     1.0  0.79086  0.82502  0.49561  1.0000
  H   H6852     1.0  0.76950  0.85965  0.62383  1.0000
  H   H6853     1.0  0.77027  0.87193  0.63702  1.0000
  H   H6854     1.0  0.79321  0.80305  0.50179  1.0000
  C   C4014     1.0  0.98897  0.77956  0.66402  1.0000
  H   H6855     1.0  0.77360  0.83085  0.63224  1.0000
  H   H6856     1.0  0.78520  0.82430  0.64797  1.0000
  H   H6857     1.0  0.78595  0.84251  0.66299  1.0000
  H   H6858     1.0  0.77090  0.86049  0.66568  1.0000
  H   H6859     1.0  0.79874  0.85715  0.63949  1.0000
  H   H6860     1.0  0.79864  0.84294  0.62720  1.0000
  H   H6861     1.0  0.79698  0.86461  0.61845  1.0000
  C   C4015     1.0  0.86059  0.73765  0.65143  1.0000
  H   H6862     1.0  0.93882  0.78846  0.71082  1.0000
  C   C4016     1.0  0.97973  0.77288  0.65717  1.0000
  C   C4017     1.0  0.74781  0.85268  0.65171  1.0000
  H   H6863     1.0  0.74450  0.77545  0.52160  1.0000
  H   H6864     1.0  0.76539  0.75706  0.66482  1.0000
  H   H6865     1.0  0.86574  0.74196  0.63802  1.0000
  H   H6866     1.0  0.98513  0.76117  0.65334  1.0000
  C   C4018     1.0  0.75232  0.90896  0.70741  1.0000
  H   H6867     1.0  0.84715  0.83547  0.58522  1.0000
  H   H6868     1.0  0.83066  0.82813  0.62648  1.0000
  C   C4019     1.0  0.76168  0.81705  0.65483  1.0000
  H   H6869     1.0  0.94976  0.75637  0.72823  1.0000
  H   H6870     1.0  0.74455  0.87992  0.64876  1.0000
  C   C4020     1.0  0.98463  0.81346  0.60778  1.0000
  C   C4021     1.0  0.83296  0.86806  0.61799  1.0000
  H   H6871     1.0  0.86510  0.86047  0.62185  1.0000
  H   H6872     1.0  0.84975  0.84144  0.63833  1.0000
  H   H6873     1.0  0.84062  0.87664  0.61792  1.0000
  H   H6874     1.0  0.82195  0.87604  0.61316  1.0000
  H   H6875     1.0  0.82830  0.86175  0.63091  1.0000
  H   H6876     1.0  0.84700  0.81001  0.63085  1.0000
  H   H6877     1.0  0.84571  0.86292  0.59393  1.0000
  H   H6878     1.0  0.81457  0.92687  0.70549  1.0000
  H   H6879     1.0  0.86284  0.81685  0.58516  1.0000
  H   H6880     1.0  0.83304  0.84903  0.60624  1.0000
  H   H6881     1.0  0.87050  0.86392  0.59985  1.0000
  H   H6882     1.0  0.91797  0.79666  0.70850  1.0000
  H   H6883     1.0  0.76222  0.76196  0.85555  1.0000
  H   H6884     1.0  0.87514  0.82176  0.60475  1.0000
  H   H6885     1.0  0.91262  0.76998  0.71042  1.0000
  H   H6886     1.0  0.74571  0.81386  0.80335  1.0000
  H   H6887     1.0  0.96019  0.81437  0.67155  1.0000
  H   H6888     1.0  0.76472  0.75696  0.82602  1.0000
  H   H6889     1.0  0.89434  0.83987  0.60085  1.0000
  C   C4022     1.0  0.74205  0.75108  0.88763  1.0000
  H   H6890     1.0  0.74276  0.82402  0.54892  1.0000
  C   C4023     1.0  0.74296  0.89521  0.61558  1.0000
  N   N288      1.0  0.93721  0.75436  0.71047  1.0000
  H   H6891     1.0  0.77656  0.79437  0.60845  1.0000
  C   C4024     1.0  0.76717  0.81732  0.50406  1.0000
  S   S1151     1.0  0.87952  0.78502  0.61595  1.0000
  C   C4025     1.0  0.79735  0.95074  0.70097  1.0000
  C   C4026     1.0  0.80225  0.93180  0.70211  1.0000
  H   H6892     1.0  0.85039  0.76362  0.65209  1.0000
  C   C4027     1.0  0.75654  0.77421  0.52480  1.0000
  H   H6893     1.0  0.74115  0.84341  0.66080  1.0000
  H   H6894     1.0  0.76863  0.74747  0.93752  1.0000
  H   H6895     1.0  0.74449  0.76640  0.64757  1.0000
  H   H6896     1.0  0.90288  0.75330  0.61438  1.0000
  C   C4028     1.0  0.75437  0.82266  0.53917  1.0000
  H   H6897     1.0  0.96011  0.74003  0.71769  1.0000
  H   H6898     1.0  0.97158  0.81672  0.61475  1.0000
  C   C4029     1.0  0.76445  0.83764  0.68146  1.0000
  H   H6899     1.0  0.74357  0.82030  0.82192  1.0000
  H   H6900     1.0  0.91144  0.73840  0.67910  1.0000
  C   C4030     1.0  0.74994  0.90529  0.72477  1.0000
  H   H6901     1.0  0.78666  0.81575  0.51718  1.0000
  H   H6902     1.0  0.75558  0.96701  0.71498  1.0000
  C   C4031     1.0  0.92526  0.73705  0.73928  1.0000
  H   H6903     1.0  0.78581  0.97916  0.67810  1.0000
  H   H6904     1.0  0.76464  0.84361  0.69135  1.0000
  S   S1152     1.0  0.74265  0.92583  0.67817  1.0000
  H   H6905     1.0  0.74759  0.78002  0.61807  1.0000
  H   H6906     1.0  0.74720  0.95970  0.69527  1.0000
  H   H6907     1.0  0.75640  0.97415  0.67741  1.0000
  H   H6908     1.0  0.98475  0.80772  0.59762  1.0000
  H   H6909     1.0  0.91833  0.73997  0.71637  1.0000
  H   H6910     1.0  0.75025  0.81995  0.64995  1.0000
  H   H6911     1.0  0.76456  0.82331  0.54450  1.0000
  C   C4032     1.0  0.77975  0.97762  0.69145  1.0000
  H   H6912     1.0  0.74012  0.75690  0.84234  1.0000
