data_image0
_chemical_formula_structural       H5CH4SH4FeSFeS2FeSFeS3HS2HFeS2FeSFeHFeS3H2SH2FeSHSFe2S2FeS2FeSFeS3FeS2FeS2FeHFeS3CH3SH2FeSHFeS2FeSFeSFeS3C6H4C6H3C6H4C2SC3H4C6H4C6H4C6H4C6H5C2HC5H2C6H4C6H4SH2SCSH2FeH2C3H4CHCFeHCHCHSH2CH2CH2CH2CNC3HC2H6CH3CH4CH2NC8H19NC3HC4H6CHNH7CH6SFeHCHC4H2SC2H2NCHCH3SCHCH3SH5C4HC3H2CH5CNC4HC4H8SH5CH5CHFeCHCH4CSHCH2CH2CHCNH11CH2NC5HC2H7CH10CHCHSH8SH3CHCHCHSHNSCNCH6CH4CH3CH2CHCH7SFeC2H2CH4C2H2CHNH5CHCHCH2NC2NHNC2H7C2HCH10NHCH2C4HFeCH7C2HCH2FeC3HC3HCH2CFeHCHCH3C4HCH3S2HCHSCHCH3CHCH6C2H5SH2CFeHC2H4SH5CH2C2H4CHC2H4NH6C2H2NCSCHCH3C2SH3CH4CHCH5NHCHFeCH3CHCHCHCHCHCFeS2FeHFeS2FeHCFeSCFeSFeSFeSFeSHSFeHSH3FeSHSH2SH2CFeH3CSC2FeS2FeS2FeCFeS3C6H4C3H2CHCH2C6H7CSCH4C3HC5H2C5H3CHNH3C2H2CHC2H2C2H2CHSH3FeH2CH2CNHCSCH3SH2CSCH2SCSNC8H23SH3CH3C2HSC3H3C6H8CH7CH2C2H5CHNC6HCH16CH3CNHCH5C2HSC3H2NHSC3H3C2HCHFeSFeHSH2S2FeS2H2SCSHC3HCHC2HFeS2FeS2FeSFeS3FeS2FeS2FeSFeS3CH3C3HFeS2FeS2FeSFeHS2H4SHCH4CH4CH2C3H7C2H2CHC4H4C8H4C6H4C6H4C2HC10H5CHCHC4HCH3CH3C6H14NH4SH6CH3CHC5SNH3N2HCSNH2CH2SFeH2SCH3CHSCH3SHCH2NC2HCFeC2H4CH2CH5CHNC4HC3HCH9CH6NC8H21CH3CH3C3H2CH2SH7CH3CHCHNHCH3C5H4NCH3CHCH2NC8H20CFeH2CHFeH2C2H4CH2C2H3CHCH3CH2CH4SH3C4H3CH3CHC2HCH8C2H2SH4FeHSHCHSH2FeSCFeSH5Fe2SFeS2FeSFeS3H3CSHFeSCSHNH3FeS2FeS2FeSFeS3FeS2FeSCFeSFeS3HCSH2SH3CH3C4H2C6H6FeCHCHC3HCH2CH2CH2CHCSC7H5C6H4SC5H4C6H4CNC4SH4CHCNC2HFeC2H5C2HC2H2C2HCH4NC2HCHCHCH5CH2SH2C3H3CH4FeCSH2C2HCH3CHC4HFeCH2SCH2C2H4SCNC8H20NC5HC2H12C2H7CHCHCSHC2HSHNC8H20NC8H20NC5H3CH3CHNC8H20C2H3CHCHC3HCHSHC5H4CHCH2C3FeH4CSH2CSH2C2FeC3H4CH2CH4FeHCH2SH2CNHSCH3FeC3FeH2C2HSH4CHCHCSC3HC2SH2SH5C2H5C2H3SHCH2CSHC2H2CH5FeH2CH2CFeNCH6CH4CH4NSH6SH4CH3NH2CH3CH2FeCH2CHCHCFeSH9SH2NHC2H5CH4SH2S2FeSFeS2FeSFeS3FeS2FeS2FeSFeS3FeS2FeS2FeSFeS3FeS2FeSC2SFeSCSCHCSCSCH4SFeSH2FeS2CHSHC4H6C2H2CHSCHSC3FeH3C3H2C5H3SHC6H4C2HSC2H3CFeCHCNC8H4C6H4C6H4C6H4C2FeH3CH2NC8H20NC8H20CHCHC3H2SH2CH3CH3C2HSH2NHCH9SCHCHC2H4CH2CSCS3C2HCHCHCHFeCNCNC8H20NC4HCH7SHCH2CH3CH5NC8H16CH4FeC3H4CNH2CHCH4CH3C2SH2NHCHCHCHCH4SCH3C2H3SCH4CH3CH3CHSCHCHSFeC2H3CH2CH4C2H2C2H2SH2SC2HCHFeC2HC2H2CH3NCHCSH3CHCHFeCHC2H5CHFeHC3SHFeCHCFeH3CNCHCH6CH2CHFeCSC3H2FeH3CH2SHSCH3FeC2H2SH3CSHC3NHFeCH3CH3SHSH2FeH2NC2HSHCH3SC2H2C2H2CHCH6C2H4C2HC2HCH3SH2CNHC2H3C2HC2SH2CSHC2HCH4CH2CH7C2SNC2HC2HCH4N2H3FeHCH2CH7C2FeH3CHSHSCH4CH11CH5CHCH5CH5SCHCHSHCHFeHFeHSH2C2H3CH3CFeS2FeS2FeSH2S2CHFeHSC3H2CHCSC3H2CHSCH2SH21C4H7SHC2HSH2C6H6CN2H2CHC2HCH4C4H3CHC2H5C6SH2C2H4CH3CNC3H6CH4CH3NH3CHCH3NHC3H3CH3C2H2CHCH2SFeSHCHCHSFeSCSFeS2FeS2FeSFeS3FeS2FeS3H5SH3SC2FeS2H3FeHFeS2Fe2HFeSFeHS2H5CH4CHC6H4CH2CHC2H3C2H2CHCHC7H2C6H4C6H4C6H5C9H8FeHSH2C6H4CHC2H2Fe2CH3SC2HFeH3CHCH3SH3SC2SCHCNC2HCHC3H4CH4CH10NC5HC2H3CH16NH2CH3C2H7FeHCHC2H6CHC3FeH4FeHCSH2CHC2HNHSCSCNC4SNHCHCHCSCNH9NC8H30SCSH2C2HC2FeHCHC2HC3H2C5HCNFeH2FeCHCHCH2S2NHSH2CH7CH3CH7SCH2CHC2H5SH3C3H2NH2CH3C2HSC2H2CH3NH5CHCH4C4H5CFeHCH2CSH4SHCH6SHCH5C2HCH3CHCH2NH2NSH4CH10CHCH3CFeH2C2H2C2HFeS2FeSFeSFeS4HCSHCSHFeSFeHS2FeCHFeHSH2NCSCFeS2FeS2FeSFeS3HC3SHFeSC2HCSCH4CHCSCH5CHSH5SC7H4C6H5CH4S2C8H5SC7H7CHC3H7C6H4C4HCH3C2H7CHCH2C7H4CH2C2H2C2HCH3CNC2H2CSH2C2HC2HCHCHSHNCHSHCHNC8H20NC8H24CHC2H8CH5FeHFeH2SH2CHCSC3H2FeH4CHC2HCH6NH2SHNCSC2HFeC2H2CH3CSH4FeHC2H3CH4FeHCSH2NH2CHCH3CH2C2SHFeHCHS2CHSH4C2H6CH4NH2NH4NS2CFeSHCHC3H2CFeCH2CH2NHFeCH3SHS2CHCHC2H3CHSH2CH3CHCH3CHC3HSH3CH3SC2HCH3CHNH3CHC2HFeCHFeH5CH2CSHCHCHFeC2H3FeS2FeS2FeSFeS3FeSFeS2HFeSHSHCFeS2FeH3S2FeS2FeS2FeSFeHS2FeS2HSFe2SFeS3H3CH3FeS2FeS2FeSFeS3HSHFeS2FeHFeSCSCFeS2C3HFeSHSH5CH4C6H4C6H4C2H2CH3CHC4H2C6H4C6H4C6H4C6H4C2HC2H3CHC6H4C6H4C6H5C2H2FeH3C3H3C5HCH2CH3CNHCHCHSH7CHC2H6CH2CH4C4H2CSHCNHCNC8H20NC8H20NHC4H4SH3SH7CHFeH3CHCFeCH4SH3CHNH2C3HCH2FeCH3CHSHCH7CH4CFeCHSHFeH4CH2CH3NH3CH5CHCNC8H18NCHC4H3C2HCH7C2H2NC8H14C2H5CSHC3H3CNSHCH7C5H4C2H2CNHC2SNHCH2C2HCH8SH6C2H2C3HCH5SNHCH2CHCH7SH2C2FeS2HSHCFeSHSHSHCH2CH6FeS2FeS2FeSFeS3CFeS2FeSHFeSFeSHFeS2FeS2FeSFeS3HCSHCSC2HC2H5NCFeC6H4CH3C6H2CHC6H4C6H5CHC2HC2H5CHCH5CHC6H4CH2C5H4C4H3C2H2CHCHCH3C3H3C2H2CH4CHNH4NCHC2H2CHCH4SH2CH9SH7SNH2CH2C3HCH4CH8C3HCHNCH2CHCHCH5CH2CH5C2H5CH2CH2NC8H21CHCNC2HCHCHCSH2NH2C2HCHCH3CNC8H11CSH4C2HCHCHCHC4SH4SNHCH3FeH6SCH5C2H15C2FeS2FeS2FeSFeS2HSHFeSCFeS2FeS2FeSFeS3CFeS2FeS2FeSFeS3HC3FeSFeS2FeS3FeS2FeS2FeSFeS5FeS2FeS2FeSCHS3CHCHC6H4C6H4SHC6H4C6H4C4H3CHFeHCHCH3CHSHCNHC6H3C6H4C6H5C2H5C9H3C6H4CFeNSHSHC6H6C2H2CH2CNC2HCHCHCH4NH4CH4CH2FeH2CH2CH2NC8H21CHCH2CH2C2HCH2SHNC7H19CNC6H13NCSH2C4H2CHSH3CSCH4SH4CHNC8H24FeH2CHCHCH5CH4SH3CHCSFeCH3CHCHCH4CHCH2CH3CHSH8CHSC2H9C4SH5NHCHCHNC8H20NC8H20CH4SH4CHCFeCSH2CHCFeH2SCHFeCH4C3H2FeC3NHCH2NH2S2H3CH2FeH3C2SHCFeHCHCH2CH2CHFeHC2HNCFeCSH6CSH2CH2CH3CNC2HCH2SH3C3H3CH2FeC3SH5CFeH3SC2NHCNC3H8CHCHCH5CSH2C2HCHCHCH5CHSFeCH2CHC2H5CH3SHCHCHCHCH2C2H4C2H3CH3FeH4FeSCFeS2FeSFeCS2NCH2C2H2CH3CH3CH2CNHCH4C2H2CHSH3CH2CHC3H4C2H3CHSH4CH2CNH4C2HSH3FeH2SCH3CH3C2H2CH2CHC4H2CH2CH2CHCHCH2CH2CHCHC2HC2HCH2C3H6CH2SHNCSFeS2FeS2FeSFeS3H2SCSCH3SH2FeS2HSHFeSFeS2H3CSCH2SC2FeS2FeS2FeSFeS3FeS2FeCFeS2H4NSHFeSFeSH2C2H4C2H2FeCSCH2C2H2C6H4C3H2CH3SCHC2H2SHC6H10C3HC6H4C3H3C6H7C6H4C6H4C6H2CH2CH4C2HCH4SC3HCH3CH2CHNC8H22C2H2NH2CH3SCH2CH2SC2H3CH7C2H3NHCHC3H4SH4CHC3H4NC8H12CH7CHCFe2C2NCHC2H5CH4FeH2NHNHC2HCSCHC2H4C2H5CH5CH2C2H7C2H5C2HCH2NCHFeCHCHC4HFeH4CH4CH2CH3SHNC8H18C2FeH4C2H5SHC2H2CHFeH2CHCHCH4CH3CSH7CSFeHNH2CH3CH4NHFeH2CSHCHCH4C2HCH2CH3SHS2CSH2CH2CH2FeSFeS2FeS3HFeS2H4CSFeS2FeS2FeS2FeS2FeSFeS3FeS2FeS2FeHFeHS4HCHCHSH5C2H2C6H3CH4SHC6H4C6H3C6H4C6H4C6H4C4H3NHC6H4FeHCH2SCHCHC6H5SHNC8H21SH2C3S2HCH3SHFeCHC2FeH2C2HSHCHCNCH3C2H2C3H2FeHCHC3HCHFeHSH2C2H2CH3CH2CH3CH3SHNC6H5CSH3CH2FeH2CH2NCH2C2H3NHC2H3C2H3CFeH3FeCH2C2H10C2H3CH2C2H5NH3CHS2CNC4H2NC8H20CH2C2H3CHCH4CHSH2FeNHCHC5H2C4H2CH6C2H3NHCH2CH3C2FeCHCHCH3FeH6CHNCH6CH7CH2SHCH5NS2H5CFeH2C2HSH5NC2H3C4HCH4C2H2CH2FeH3CH9CSH4CH10S2CH3CHCSHFeSFe2S2FeSFeS3FeHSCFeHCSCHCHFeS2HCFeS3C2HSCH4C3HFeS2FeS2FeSFeS3FeS2FeSFeSFeS3HSH4FeS2FeSHFeSFeS2FeS2FeS2FeSFeS3CHCH3C6H4CHC4H5CH3C2HCH2C2HC3H4C6H4C7H9FeH2C4H2C6H7C2H5C2H3C6H4C6H4CHNSC2H2C4HCH2CH2NSCHCSC2HC6HCHC2HNC8H11CH2C4NH2C2HCH2CH4CH2CH2NHCH5C2H2C2HCHCH2CHC2H9C2H2C2HCH2CH4CH4CHC2FeC2SH3C3H5FeH2C3SC2H3C3FeHC3HCH5CH2CSNH5C2H4CHCHCH2CHFeH4CHC2H2CH2CHFeH2CNSCH4CH2SH2SH4FeH2CHNH3CH2FeCH2CH4C2HCHC2H2CSH4CHCSCH2CHCNC8H20NC7H4CH4CH3CH3NCHC3HC2SH11NH5SCNC8H27NH2CHCH3CH7CHCFeHCHCSHCHNHNCHS2CHC3HCH3CH5C2H2SHSCH5SCH3C2H4CHC2HSFeH8SC2H10CHC2H2C2H2C4HFeC2HCHCHSHCNH2CH5SHC2SH5CH2CNCSCH7NH2SC3H2C2FeS2FeS2Fe3S3H3FeS2HSH2CH2SFeSH3CH2C2HC3H3CFeCH6SCH2CH6C6H6SH8C5H9SHC2HCSCH4C3H4C3NCH2CHCH3CH8C2H4C2HCHCNCHCHCH7CHCFeH3CH2C2H4NC5H3NCH3FeS2HS2FeHFeSHSFeS2FeSHSHFeS2FeS2FeSFeS3FeHSHSHCH3SH2FeCSH3FeS2FeS3CFeS3CH4C6H4SH3C2H2C6H4C6H4CH3CSH2CHC2H7C7H7C2H2C2HCH2C6H4C4H2C2HCH2C4HCNCH4CSH2NC8H20CHCHC2NFeSH2SHSH2SH2FeHCHNC8H22NC5HC2H8NH3C3H5C2FeHCH4CHC2H2SH3CHSHFeHC2SH2CHC4HCH2FeCHCH3NHCH2CHNC2SHCHCH3CHFe3H3FeH4CH2CHCHCH4CHSH2CH4CH10CHFe2SCH3S2CSH3CFeH5C3FeNCH2FeH2CHNC2HC3HCHSH3SHSHFeCSHSH4CH3CH2S3CH7FeS2FeS2FeSFeS3FeS2FeS2FeHFeS3FeS2FeSFeSFeS3C2H2SH3SH2FeSH2SHFeSFeS2H2SHFeS2FeSFeS3FeH2C4H5NC6H5C2HC2HCH2C6H5C6H10C6H4C6H4C6H5CHSH2C2HC2H2CHNC2H2C6H7CHNH4C2HSCH2C2HSH4SC2HC2H3C3HCH2CH3C2H3CHCHCH4SHNSH3CH2NCH5CH2C3H2CHCHCHFeH2CH4CHCH6CSHCH2CH4SC3SNHCH2CH3CH3C2H2CH2CH2CHC2H7NC8H24CHC2HCNCH4CHCH2C2H6NC8H20CHCH2NC5HC2H3CH7C2H6C4H11C3HNH4CH3CHFeCHCH3CHC2SH2CH4NH4C2HCH3CHSHCH3C2H2CH5CNC5H4CHC2H3CH2CHC2HCNHCH2CFeHC3HCHCH8SH3CHC2FeHCH2CHSH2CH2SH4CFeS2FeS2FeSFeS3FeSHFeS2FeSFeS3FeS2FeSH3SCHCHSHS2H2SH2CH3FeSCFeS2FeS2FeS2FeS2Fe2S3FeC2H3C6H4SH2C3SCH2FeC2H3CH3CH6CHFeHSHC7H5C3SHNHCHC6H4C6H4C3H2C6H4C6H4C6HSNC8H20CSCH2S2H7FeC2H2C2H3CHC3NCHSHCHCH3CSH4C2H6C2FeCHSHCHNH2CFeHSHC2FeH4CHCH3CHFeCH2CHCH2C2HCHCH2C4HCHCH4FeCH2FeH5NC4HC3H8C3HNH8FeCHCH7CHCHCHCH2CFeHSCH2CH2CH2CH3SHCH2CHFeNC8H18CNC4HCFeCH4CHSHCHC2H2CHNHCH3SH2CH2CHC2H5C2H3SNCHFe2NC8H20CHCSCHSC2HNHC2HC2H2C2H5NCH10C2H3CNC5HC2H11CHCH2NC2HSCH3SHC2HC3H6C3H3SHSCHSHCH8SCHCH3SH2FeCH4CH4CFeCHNH4CNSH3C3SHC3SHCH4CH4SH4CH2CH5SCH5NH4CHCHCHSH3CH9C3NHCSH3SHFeHSC2SFeHCH2CH2SCH2C2HCSCFeS2FeCFeSHSC6SCH3C2H5SH2SCH2C2FeC2H6C2HCH3SC6H4CH4S2CFeSHNCH3CH6CH2C2H4S2HCH3SFeH2CH2CH6C3HC2H4CHSCH3NCHCHC2HFeNHC2H6SH2CNCHSCH2CH7CHCSHCH2C2HCH2C3HCH5CHNCSCHFeH2CHNFeS2FeS2FeSFeCS2CFeS2FeS2FeHFeS3HC2HCNFeS2FeS2H2FeSHSH3CH2CHFeS2FeS2FeSFeS3H3FeCH2C2HS2H3C4HCHNC2HCH3N2HC7H2C2NC2HC4H6C6H4C3H4CH4C6H4C6H4C4HCH4CH5CH2CH2CHCHSH2C5H2CH11SH2SCH2C2HCSH2SC3H3C2H7C2FeC2H3C2H2C2H3C2H3C3NC4HC3H9CH22NC8H20C2NC2HC2HC2H2CH2CNH3SCH2C3H2FeCNC4SC3H21C2SC2HCH4CH5C2H2CH6NC5H2NH2SH2CH9CH2CHCH3CH4C2H6CHC2H6FeSHNSFeSFeS2HSHFeSH2FeSHSH6CSFeS2FeHFeS3FeS2FeS2FeSFeS4H3FeS2H2SHSHSHFeS2FeSFeS2FeSFeS3C6H4C6H4CH3CHC6H4C6H4C6H4SHCHC2H3SC6H4CH9C2H2C6HCH2C6HFeH2C2HC6H2CH4SH4CH4C2H7SH2CH2FeC4H6CH3CH2C2HC2SC3HCH6NCHFeH2CHCH5SH4C2SHC2H2SFeSCH2C2HCHC2HFeSFeH3CFeSHCHCHFeH2C3H4NC8H20CHFeCH3CHC2H2CHCNCHCFeH3CH4NC3H3C3H5NC4HC3H8NH13C3HNH4CH2C2H2CFeH2CHCFeC2HSHSH3CHCHCH2CHSHNCH3CSNCH3CHCHC2H8CH3SH5CHNH2NC8H20NC2HC3HCHNHSCH2C4H7CSH3CH4SFeHC2H10CH2CHC3H3C2H2SCHC2H8C2HNCHFeCSFeS2FeSFeS3FeCSFeS2HFeS3H2CH2FeS2FeS2FeS2FeSFeS3FeS2FeSCFeSFeS3HCFeS2HSFeSFeS3FeS2FeCFeS3C6H4C3H2C4H4C6H4C6H4C6H4C4H3SH2C6H4C7H6C4H2C6H4C6H7C2HCSH6CH3CHC3H4C3H2CH5C2H3CH2SH3FeHFeCH2CH4CH2CNCH5CH3CHCHC2HCHFeHC4HCSCHCH8C2H2C4H4SCSH2CH7NCHSHCNCH3NH2CH2CHCHFeC2HNHCH8CH2CH3CH2CNC8H25CHNHCSCH3CSH11CH2SCHFeC3S2H2CNCHCH3C2H3CHNH6CSH7FeCFeH2C4H4CH3CH2NCH5C3H5FeHNH2NHC3H2CH2CHSH2C2H2C2H3CH5NC3HCSC2H3CH4CHCHCH3CHCHCNH2FeH4CH2SHSHCH5CH4CH7CHC3H3CSHCHCSH2C2HC2H3C2H5CH3CHSHC2H4CHC3FeC2HNCH3CHSH3CHSH2CH4C2H4CH8CH4CHSFeHS2H2SCH3FeS2CHFeSC2FeS2FeS2FeSFeS3FeS2FeSHFeSFeS3HFeHSFe2SHCHS2H2SC2HCHC3H4C4HCH2CFeC6H4C6H9CH2C3H4C6H4CHC5H4CH2NHNC9H5CH2CHCHC2H2CH2CHCSCFeH3CH6CFeNHSH2NC4HC3H8C2H10CH6SHSH3C2HCH5C2H2SH6CH7CHC3HCH10C2HFeHNC8H21CNC6HCH12CNH4NC8H13CHCH2NH2C2H4C3HCHC3SCH4C2H3SFeS2FeS2FeSFeS3FeSHS2HFeSFeSCSFeS2FeSFeSCS2FeHSFeS2FeS2FeSFeSFeS3FeS2FeS2FeSFeS3H2CFeH4FeSH3CHS2CHFeSFeS2CSCFeSFeS2HSFeSCHFeC3H2SC3H4FeH3C2HCHC6H4C6H4CHC3H2C6H4C7H4C6H4C6H4C6H5C6H4C6H7CHSHC2HC4H2C3H2C2H4CNCHC3H2CH13CH3CH2C2HSH4NC8H23N2C8H19CNC8H20NC8H22SHCHCH2CH2SH4CH3C2HC3SH2CSCH5CHNHNC6H15SC4HC3H2SC3H2CHCH4CHCHCHFeCHNC2SH3C3H2CH5C2HSH2C4H3FeHSCHCH2CH2CHSHCSCSC2HCH3FeH2S2C2H6CHC3NH3CNFeCH6CFeCH4C2FeC3HCHCSCH2SC2NHCH2NCHNH3SH6CSCH2CH13C5H8SH2FeHC2H7CFeCHC2H2SHNCHSHCHC2H4CN2H2SH2CHCHCHC3H4C2H2CH9CH2C2HCH2SH5C2H2CHCH5C2H2CHCH5CH3CH4CH5CHCH2C2H2CHCH2SH4C2H2NCH3C2H2C2H5CH2C2H3C2FeCH8CH7SC6H2NHCSHFeS2FeHSFeCFeCS2H3CH3FeC3H2SH2CH2C2HC2H2CH2C4H4C2H3CH2C2SFeC2HC2HNHCHCH6C3H2CH8C2SC2H2CH15C4HNHCHSHFeS2FeSFeS3FeS2Fe2S3CNH3CSCFeHSH4SFeS2FeS2FeSFeS3FeS2FeS2FeSFeS3H5SH5SFeS2FeS2FeSFeCSCH4CHC3HSC7H5C7H4C6H3C7H4C3H3C6H6C3H5C2H2C7H2C6H4C2HNC2SCH2C6H7CHSCNC6H4CHCH5CH2CSCH4CH2CHCSCHFeH2CSC3H5CNC8H22C2HCHCH7C2H7NC8H19CHNC8H20C2H6CNC2HC3HCH3CH4CH5SHCHNHNC8H17CH3CHSHC2H2CH2CHSH10NHC3HCH3NCHCFeHC5HC2HCH6CNHCH7SHSH2C2HC2H3CH2FeH2C3H4NH2CHSH10SC2H7FeH2CHSH2FeH6CH2CH2CHCH3CH2FeCHCHSH2CFeSHCH8FeS2HCHS2HC2HFeS2FeSHFeHFeS3FeS2FeS2FeSFeS3FeHSHS2FeS2FeSFeHS2HFeHSHNSC4H3CHC2H3SH2CHC2H3C5H2SNC6H4C6H4C6H6CFeH6C6H5FeC3H2CHFeHC3HNH2C2H8SH2CHCHCHC3H2CH6C2H10CH2C2HCHC3SCH3CNC2HCHCH7CSFeHNH2S2FeCH3C2H9SH2SCH7CHC3HNC8H20NC8H20NC6H4CHCH8CH2CHCHCH3C2HCH6CH3CSHFeCHCSCH2SH3CH2SH8CH2C2H5C2SCHCSHFeHCHCH4C3H2C2H8C2H3C2HCHSC2NCH3CSFeH3CH3CFeNCFeH2CH2CHCH3CHC3NCFeNH4CHC4H6CH3CH3CH2CH5C2HFeS2FeS2Fe2S3FeHSHSHFeS2FeS2FeSFeS5FeS2FeS2FeSFeS3FeS2CSHFeSFeSHS2FeSCFeS2FeSH2S3FeHC2H2FeSFeS2CHCSNCH4C6H4CFeC3HSCHSFeSH2CH3FeSH2C6H4C6HCH2C6H4FeC4H5C6H4C6H4CSHSHC2HCHC6H4C6H4C3HCH3C6H4CH4C2H3SFeSHCH3C2H4S2CH3CH4SH2CH2CH2C2H2C2H2FeCH8CHCH4CHCH2CNC7H13CH5CHNC8H20NC8H20CH5SCH5CH5CHCHC2NC7H4CH12NC3HCHCH4C3H5FeHCFeHNC8H20NHC4HC3H5CH5SCH6NC8H22CHC2SCHSHC2SCH3CFeH6CHNHNHCHNHCFeSH2SH3NHFeH2CH2SHCH3SH2CH2C2HCSCFeH3SH2S2C2H2NCSHC2HCH2SH2C3NHCSH3FeHFe2SH7FeH2CFe2H2SCH2CNH5C5H3SCH3SC3H3FeHCSH7C3HCHSHC2H5C2H3SHC2H5CHC2H4C2HCHCH3CH3C7NC2SH2CH4CH2FeSCFeSHFeHFeS3HCH3CHC2HC3HCH9C3H3CH3CH5C2NH2CHNH2CH5CH2C3HSH2CH2CH3CSH2CH2CH2SCNSHCHCHCH2C2HCHC2H2CH10C2H3CHCH2CH3C2HC3HCHCH2CH6CH3CHCH2C4HCSHCHC2HFeS2FeS2FeS2FeS2FeSFeS3FeHSFeHSCHFeS2FeS2FeS2FeSFeS3FeS2FeS2FeSFeS3FeS2FeS2FeSFeS3CHSHCH3FeS2HSCFeSFeHS2FeCFeS2FeS2HS2H3NHC7H5C2HC3H4CH3C2HC2HC6H4C6H4C6H4C6H4C2HCH2C2H3CHC6HCH3C7H4C6H4C6H4C3H2C5H2C2HCH6C3H2CHSCH2C2H7NC8H28C3HC2H3CFeHCH2CH2NCH3CH2CH2NH3NC8H20C3H9NC6HCH10CH3CH2C2HC2H2CH2NH3SH8C3H3SH3NH6CHCH2C4H2CH6CH3C2H2CHCHCH2CH2CHCH10CH3SCH2FeNH2C3H2C2HCH6C2HC2H2CNCH4CHCH2C3H5SH6CH5SH2C2H4CHC4HSHNHCH2CH5C4H3C2H3CHCH3CHCH4CHCHNH3FeC2H2CH3CH2FeHSH2SHCHN2H6CH4CH4SH5FeH5CHFeS2FeS2FeSFeS3FeHSFeCFe2SHSHCFeSCFeS2FeSFeS3HCH2SH2C2NH3CH2SH2SCNC2H4CHCHSCH2FeH4S2H2C2HC2H4C2HCHCHCH3FeH4CH2C4H5CH2C6H4C6H4C6H4C6H5SC2HC2H3CH5CHNHCHC2HC2H3CH2NH3CH7C2H8CH3NH2SH4NCH2SNCH3CSHCH2C2HCH2CHCH7NC8H21NC8H8FeCH10SCH3CH2C2H2C2SC2HCHCH3CH4FeH3CHCHSH2CHC2HC2HC2H5CSCH2S2HCH3SHC3H3CH2C2HS
_chemical_formula_sum              "H9216 C5376 S1536 Fe768 N384"
_cell_length_a       99.8018
_cell_length_b       99.3801
_cell_length_c       99.2672
_cell_angle_alpha    73.8142
_cell_angle_beta     73.849
_cell_angle_gamma    73.889

_space_group_name_H-M_alt    "P 1"
_space_group_IT_number       1

loop_
  _space_group_symop_operation_xyz
  'x, y, z'

loop_
  _atom_site_type_symbol
  _atom_site_label
  _atom_site_symmetry_multiplicity
  _atom_site_fract_x
  _atom_site_fract_y
  _atom_site_fract_z
  _atom_site_occupancy
  H   H1        1.0  0.10208  0.19070  0.19928  1.0000
  H   H2        1.0  0.99893  0.24164  0.16603  1.0000
  H   H3        1.0  0.20451  0.03833  0.16738  1.0000
  H   H4        1.0  0.22421  0.42483  0.12410  1.0000
  H   H5        1.0  0.18838  0.42885  0.20290  1.0000
  C   C1        1.0  0.18936  0.21746  0.00238  1.0000
  H   H6        1.0  0.07857  0.18016  0.09252  1.0000
  H   H7        1.0  0.12613  0.28049  0.19591  1.0000
  H   H8        1.0  0.18549  0.27937  0.17496  1.0000
  H   H9        1.0  0.21061  0.44785  0.21273  1.0000
  S   S1        1.0  0.14525  0.29956  0.04821  1.0000
  H   H10       1.0  0.08349  0.22330  0.11932  1.0000
  H   H11       1.0  0.99888  0.26025  0.16031  1.0000
  H   H12       1.0  0.14894  0.27169  0.07017  1.0000
  H   H13       1.0  0.10031  0.29796  0.21183  1.0000
  Fe  Fe1       1.0  0.17515  0.03648  0.19102  1.0000
  S   S2        1.0  0.16210  0.05377  0.17702  1.0000
  Fe  Fe2       1.0  0.16062  0.01320  0.18909  1.0000
  S   S3        1.0  0.14626  0.02923  0.17546  1.0000
  S   S4        1.0  0.16388  0.98888  0.19247  1.0000
  Fe  Fe3       1.0  0.16593  0.03777  0.16363  1.0000
  S   S5        1.0  0.17509  0.04010  0.13994  1.0000
  Fe  Fe4       1.0  0.14376  0.04376  0.19036  1.0000
  S   S6        1.0  0.12323  0.05751  0.20059  1.0000
  S   S7        1.0  0.18037  0.02120  0.17649  1.0000
  S   S8        1.0  0.15667  0.02696  0.20520  1.0000
  H   H14       1.0  0.08831  0.24673  0.00176  1.0000
  S   S9        1.0  0.20858  0.09026  0.11474  1.0000
  S   S10       1.0  0.14213  0.28282  0.98238  1.0000
  H   H15       1.0  0.01102  0.27520  0.16113  1.0000
  Fe  Fe5       1.0  0.17845  0.34392  0.10214  1.0000
  S   S11       1.0  0.19352  0.35155  0.08166  1.0000
  S   S12       1.0  0.15916  0.35988  0.11035  1.0000
  Fe  Fe6       1.0  0.19598  0.31356  0.10585  1.0000
  S   S13       1.0  0.21234  0.31899  0.08583  1.0000
  Fe  Fe7       1.0  0.21072  0.33864  0.09373  1.0000
  H   H16       1.0  0.11298  0.26850  0.99734  1.0000
  Fe  Fe8       1.0  0.19332  0.33094  0.07620  1.0000
  S   S14       1.0  0.19137  0.32890  0.05452  1.0000
  S   S15       1.0  0.19553  0.33226  0.11446  1.0000
  S   S16       1.0  0.17704  0.32439  0.09595  1.0000
  H   H17       1.0  0.17224  0.09631  0.20795  1.0000
  H   H18       1.0  0.04289  0.10972  0.22130  1.0000
  S   S17       1.0  0.13273  0.26870  0.04841  1.0000
  H   H19       1.0  0.06026  0.28704  0.02170  1.0000
  H   H20       1.0  0.14127  0.11671  0.19219  1.0000
  Fe  Fe9       1.0  0.11742  0.27428  0.03401  1.0000
  S   S18       1.0  0.09337  0.27978  0.04082  1.0000
  H   H21       1.0  0.12754  0.19874  0.17517  1.0000
  S   S19       1.0  0.16047  0.23407  0.04137  1.0000
  Fe  Fe10      1.0  0.14718  0.25542  0.03308  1.0000
  Fe  Fe11      1.0  0.10115  0.32168  0.13983  1.0000
  S   S20       1.0  0.08079  0.31668  0.15473  1.0000
  S   S21       1.0  0.10209  0.33956  0.12028  1.0000
  Fe  Fe12      1.0  0.11987  0.29934  0.15795  1.0000
  S   S22       1.0  0.10133  0.29204  0.17430  1.0000
  S   S23       1.0  0.14178  0.29049  0.16221  1.0000
  Fe  Fe13      1.0  0.09234  0.29365  0.15531  1.0000
  S   S24       1.0  0.08347  0.27515  0.15458  1.0000
  Fe  Fe14      1.0  0.09175  0.31551  0.17219  1.0000
  S   S25       1.0  0.08151  0.32496  0.19170  1.0000
  S   S26       1.0  0.11204  0.29884  0.13904  1.0000
  S   S27       1.0  0.11092  0.32263  0.15719  1.0000
  Fe  Fe15      1.0  0.03789  0.24520  0.09640  1.0000
  S   S28       1.0  0.02462  0.26783  0.09378  1.0000
  S   S29       1.0  0.05699  0.23498  0.08131  1.0000
  Fe  Fe16      1.0  0.02454  0.23744  0.12809  1.0000
  S   S30       1.0  0.01067  0.25931  0.12817  1.0000
  S   S31       1.0  0.02252  0.22005  0.14813  1.0000
  Fe  Fe17      1.0  0.00628  0.25759  0.10771  1.0000
  H   H22       1.0  0.22909  0.03741  0.12798  1.0000
  Fe  Fe18      1.0  0.03007  0.26736  0.11449  1.0000
  S   S32       1.0  0.03712  0.28578  0.11783  1.0000
  S   S33       1.0  0.01918  0.23504  0.10856  1.0000
  S   S34       1.0  0.04432  0.24554  0.11611  1.0000
  C   C2        1.0  0.00694  0.13931  0.19395  1.0000
  H   H23       1.0  0.08080  0.22956  0.19105  1.0000
  H   H24       1.0  0.17016  0.00781  0.11874  1.0000
  H   H25       1.0  0.04107  0.22731  0.17985  1.0000
  S   S35       1.0  0.15171  0.34349  0.19503  1.0000
  H   H26       1.0  0.17535  0.41175  0.20438  1.0000
  H   H27       1.0  0.06683  0.27084  0.10196  1.0000
  Fe  Fe19      1.0  0.16408  0.35994  0.19265  1.0000
  S   S36       1.0  0.17507  0.37061  0.17112  1.0000
  H   H28       1.0  0.20748  0.39836  0.22654  1.0000
  Fe  Fe20      1.0  0.06234  0.15034  0.19984  1.0000
  S   S37       1.0  0.07591  0.15386  0.17749  1.0000
  S   S38       1.0  0.04042  0.14468  0.20630  1.0000
  Fe  Fe21      1.0  0.08472  0.15583  0.21279  1.0000
  S   S39       1.0  0.09982  0.15961  0.19144  1.0000
  Fe  Fe22      1.0  0.08018  0.17231  0.18332  1.0000
  S   S40       1.0  0.08044  0.19407  0.16867  1.0000
  Fe  Fe23      1.0  0.09423  0.14067  0.18782  1.0000
  S   S41       1.0  0.11188  0.12499  0.17662  1.0000
  S   S42       1.0  0.06529  0.16992  0.20498  1.0000
  S   S43       1.0  0.08047  0.13577  0.20986  1.0000
  C   C3        1.0  0.03809  0.21349  0.15491  1.0000
  C   C4        1.0  0.04888  0.22124  0.15047  1.0000
  C   C5        1.0  0.06176  0.21540  0.15506  1.0000
  C   C6        1.0  0.06382  0.20182  0.16419  1.0000
  C   C7        1.0  0.05281  0.19432  0.16918  1.0000
  C   C8        1.0  0.03992  0.20018  0.16457  1.0000
  H   H29       1.0  0.04735  0.23172  0.14349  1.0000
  H   H30       1.0  0.07019  0.22132  0.15138  1.0000
  H   H31       1.0  0.05429  0.18385  0.17634  1.0000
  H   H32       1.0  0.03154  0.19419  0.16817  1.0000
  C   C9        1.0  0.14262  0.27224  0.16928  1.0000
  C   C10       1.0  0.13339  0.26567  0.16633  1.0000
  C   C11       1.0  0.13259  0.25154  0.17335  1.0000
  C   C12       1.0  0.14076  0.24411  0.18359  1.0000
  C   C13       1.0  0.15032  0.25054  0.18625  1.0000
  C   C14       1.0  0.15138  0.26460  0.17894  1.0000
  H   H33       1.0  0.12666  0.27156  0.15880  1.0000
  H   H34       1.0  0.12524  0.24662  0.17122  1.0000
  H   H35       1.0  0.15849  0.26971  0.18126  1.0000
  C   C15       1.0  0.07067  0.27830  0.14426  1.0000
  C   C16       1.0  0.06436  0.29221  0.13794  1.0000
  C   C17       1.0  0.05406  0.29435  0.12990  1.0000
  C   C18       1.0  0.05009  0.28261  0.12801  1.0000
  C   C19       1.0  0.05655  0.26869  0.13418  1.0000
  C   C20       1.0  0.06674  0.26655  0.14234  1.0000
  H   H36       1.0  0.06732  0.30133  0.13934  1.0000
  H   H37       1.0  0.04912  0.30515  0.12515  1.0000
  H   H38       1.0  0.05367  0.25958  0.13273  1.0000
  H   H39       1.0  0.07167  0.25576  0.14713  1.0000
  C   C21       1.0  0.09108  0.33414  0.19727  1.0000
  C   C22       1.0  0.08337  0.34351  0.20634  1.0000
  S   S44       1.0  0.00269  0.13397  0.16956  1.0000
  C   C23       1.0  0.10534  0.34816  0.20829  1.0000
  C   C24       1.0  0.11321  0.33863  0.19931  1.0000
  C   C25       1.0  0.10606  0.33179  0.19361  1.0000
  H   H40       1.0  0.07182  0.34532  0.20927  1.0000
  H   H41       1.0  0.19945  0.08578  0.05364  1.0000
  H   H42       1.0  0.12472  0.33648  0.19682  1.0000
  H   H43       1.0  0.11211  0.32444  0.18674  1.0000
  C   C26       1.0  0.08364  0.26693  0.05181  1.0000
  C   C27       1.0  0.06886  0.27143  0.05648  1.0000
  C   C28       1.0  0.06069  0.26167  0.06560  1.0000
  C   C29       1.0  0.06721  0.24726  0.06984  1.0000
  C   C30       1.0  0.08198  0.24265  0.06491  1.0000
  C   C31       1.0  0.09024  0.25252  0.05601  1.0000
  H   H44       1.0  0.06369  0.28255  0.05315  1.0000
  H   H45       1.0  0.04930  0.26527  0.06917  1.0000
  H   H46       1.0  0.08706  0.23149  0.06811  1.0000
  H   H47       1.0  0.10166  0.24898  0.05238  1.0000
  C   C32       1.0  0.21467  0.37669  0.18077  1.0000
  C   C33       1.0  0.20228  0.37594  0.19151  1.0000
  C   C34       1.0  0.18986  0.37499  0.18825  1.0000
  C   C35       1.0  0.18993  0.37427  0.17435  1.0000
  C   C36       1.0  0.20224  0.37536  0.16349  1.0000
  C   C37       1.0  0.21460  0.37665  0.16669  1.0000
  H   H48       1.0  0.20226  0.37596  0.20239  1.0000
  H   H49       1.0  0.18024  0.37470  0.19657  1.0000
  H   H50       1.0  0.20233  0.37484  0.15271  1.0000
  H   H51       1.0  0.22415  0.37723  0.15831  1.0000
  C   C38       1.0  0.14345  0.35405  0.11300  1.0000
  C   C39       1.0  0.14275  0.33977  0.11943  1.0000
  C   C40       1.0  0.12997  0.33531  0.12184  1.0000
  C   C41       1.0  0.11800  0.34508  0.11752  1.0000
  C   C42       1.0  0.11878  0.35932  0.11095  1.0000
  C   C43       1.0  0.13147  0.36383  0.10877  1.0000
  H   H52       1.0  0.15202  0.33220  0.12264  1.0000
  H   H53       1.0  0.12946  0.32423  0.12678  1.0000
  H   H54       1.0  0.10951  0.36689  0.10768  1.0000
  H   H55       1.0  0.13206  0.37486  0.10369  1.0000
  C   C44       1.0  0.18048  0.31829  0.05278  1.0000
  C   C45       1.0  0.17256  0.31043  0.06479  1.0000
  C   C46       1.0  0.16246  0.30387  0.06313  1.0000
  C   C47       1.0  0.16049  0.30465  0.04942  1.0000
  C   C48       1.0  0.07524  0.20941  0.20343  1.0000
  C   C49       1.0  0.17894  0.31857  0.03903  1.0000
  H   H56       1.0  0.17383  0.30983  0.07541  1.0000
  H   H57       1.0  0.15577  0.29861  0.07257  1.0000
  H   H58       1.0  0.20482  0.99225  0.14005  1.0000
  H   H59       1.0  0.23331  0.40153  0.22010  1.0000
  H   H60       1.0  0.18506  0.32457  0.02965  1.0000
  C   C50       1.0  0.19321  0.04949  0.21015  1.0000
  C   C51       1.0  0.11963  0.27381  0.20472  1.0000
  H   H61       1.0  0.13277  0.37990  0.12702  1.0000
  C   C52       1.0  0.12636  0.29830  0.21254  1.0000
  C   C53       1.0  0.16277  0.09208  0.18880  1.0000
  C   C54       1.0  0.19038  0.20933  0.01621  1.0000
  C   C55       1.0  0.18138  0.21433  0.02828  1.0000
  C   C56       1.0  0.17127  0.22730  0.02647  1.0000
  H   H62       1.0  0.19822  0.19935  0.01759  1.0000
  H   H63       1.0  0.18226  0.20817  0.03898  1.0000
  C   C57       1.0  0.12002  0.07625  0.19382  1.0000
  C   C58       1.0  0.12765  0.08225  0.18040  1.0000
  C   C59       1.0  0.12499  0.09720  0.17527  1.0000
  C   C60       1.0  0.11466  0.10629  0.18346  1.0000
  C   C61       1.0  0.10705  0.10034  0.19692  1.0000
  C   C62       1.0  0.10971  0.08535  0.20207  1.0000
  H   H64       1.0  0.13546  0.07536  0.17386  1.0000
  H   H65       1.0  0.13090  0.10174  0.16483  1.0000
  H   H66       1.0  0.09929  0.10729  0.20342  1.0000
  H   H67       1.0  0.10392  0.08078  0.21255  1.0000
  C   C63       1.0  0.18399  0.05433  0.13279  1.0000
  C   C64       1.0  0.17924  0.06682  0.13823  1.0000
  C   C65       1.0  0.18653  0.07808  0.13236  1.0000
  C   C66       1.0  0.19875  0.07673  0.12128  1.0000
  C   C67       1.0  0.20347  0.06423  0.11589  1.0000
  C   C68       1.0  0.19603  0.05313  0.12153  1.0000
  H   H68       1.0  0.16977  0.06794  0.14671  1.0000
  H   H69       1.0  0.18280  0.08775  0.13653  1.0000
  H   H70       1.0  0.21292  0.06302  0.10741  1.0000
  H   H71       1.0  0.19978  0.04353  0.11728  1.0000
  S   S45       1.0  0.23086  0.34281  0.09680  1.0000
  H   H72       1.0  0.17840  0.23667  0.98996  1.0000
  H   H73       1.0  0.21058  0.06949  0.21970  1.0000
  S   S46       1.0  0.19332  0.04352  0.19493  1.0000
  C   C69       1.0  0.21346  0.39999  0.21515  1.0000
  S   S47       1.0  0.13083  0.25892  0.02013  1.0000
  H   H74       1.0  0.12332  0.26265  0.20309  1.0000
  H   H75       1.0  0.15538  0.09237  0.18205  1.0000
  Fe  Fe24      1.0  0.16169  0.35578  0.22476  1.0000
  H   H76       1.0  0.21480  0.32393  0.17788  1.0000
  H   H77       1.0  0.18750  0.29528  0.14825  1.0000
  C   C70       1.0  0.02931  0.14410  0.19529  1.0000
  C   C71       1.0  0.03425  0.14475  0.18051  1.0000
  C   C72       1.0  0.02582  0.14202  0.17267  1.0000
  H   H78       1.0  0.08610  0.07408  0.19996  1.0000
  H   H79       1.0  0.22769  0.31465  0.22343  1.0000
  H   H80       1.0  0.04479  0.14672  0.17527  1.0000
  H   H81       1.0  0.02997  0.14190  0.16140  1.0000
  C   C73       1.0  0.16907  0.31170  0.03733  1.0000
  H   H82       1.0  0.04085  0.19526  0.13126  1.0000
  C   C74       1.0  0.21816  0.25842  0.09661  1.0000
  Fe  Fe25      1.0  0.14266  0.28670  0.03360  1.0000
  H   H83       1.0  0.22434  0.09902  0.14563  1.0000
  C   C75       1.0  0.01733  0.25882  0.18655  1.0000
  H   H84       1.0  0.19211  0.99389  0.16392  1.0000
  C   C76       1.0  0.00217  0.25046  0.16836  1.0000
  H   H85       1.0  0.17119  0.01485  0.13278  1.0000
  S   S48       1.0  0.23524  0.40564  0.15034  1.0000
  H   H86       1.0  0.10532  0.29089  0.98092  1.0000
  H   H87       1.0  0.13045  0.11812  0.20952  1.0000
  C   C77       1.0  0.21530  0.23601  0.00551  1.0000
  H   H88       1.0  0.13656  0.99738  0.18354  1.0000
  H   H89       1.0  0.20613  0.07657  0.14992  1.0000
  C   C78       1.0  0.10707  0.22435  0.16396  1.0000
  H   H90       1.0  0.14710  0.28878  0.21928  1.0000
  H   H91       1.0  0.08326  0.21671  0.18094  1.0000
  C   C79       1.0  0.12129  0.27385  0.21969  1.0000
  H   H92       1.0  0.19334  0.24551  0.01454  1.0000
  H   H93       1.0  0.08426  0.35786  0.21860  1.0000
  C   C80       1.0  0.17242  0.00454  0.12971  1.0000
  N   N1        1.0  0.07086  0.19422  0.11756  1.0000
  C   C81       1.0  0.07135  0.20954  0.11659  1.0000
  C   C82       1.0  0.05825  0.19473  0.11171  1.0000
  C   C83       1.0  0.15503  0.07173  0.20648  1.0000
  H   H94       1.0  0.20532  0.24718  0.02359  1.0000
  C   C84       1.0  0.20318  0.06291  0.22077  1.0000
  C   C85       1.0  0.04342  0.20131  0.11999  1.0000
  H   H95       1.0  0.19244  0.40597  0.19340  1.0000
  H   H96       1.0  0.99148  0.25056  0.08332  1.0000
  H   H97       1.0  0.01852  0.24476  0.20775  1.0000
  H   H98       1.0  0.19821  0.28341  0.21824  1.0000
  H   H99       1.0  0.05708  0.23290  0.17764  1.0000
  H   H100      1.0  0.15194  0.26564  0.08825  1.0000
  C   C86       1.0  0.20275  0.28675  0.09089  1.0000
  H   H101      1.0  0.17013  0.21610  0.98143  1.0000
  H   H102      1.0  0.99610  0.25175  0.17926  1.0000
  H   H103      1.0  0.15852  0.98899  0.13537  1.0000
  C   C87       1.0  0.10828  0.22375  0.17931  1.0000
  H   H104      1.0  0.03512  0.20091  0.11470  1.0000
  H   H105      1.0  0.09467  0.20785  0.11309  1.0000
  H   H106      1.0  0.08218  0.28493  0.98437  1.0000
  H   H107      1.0  0.07685  0.29236  0.01586  1.0000
  C   C88       1.0  0.22065  0.05602  0.14819  1.0000
  H   H108      1.0  0.06408  0.21333  0.20194  1.0000
  H   H109      1.0  0.99415  0.20516  0.12020  1.0000
  N   N2        1.0  0.12781  0.37054  0.15581  1.0000
  C   C89       1.0  0.12409  0.36985  0.17176  1.0000
  C   C90       1.0  0.14379  0.36547  0.15074  1.0000
  C   C91       1.0  0.12085  0.35997  0.15332  1.0000
  C   C92       1.0  0.12218  0.38551  0.14800  1.0000
  C   C93       1.0  0.13170  0.37821  0.17708  1.0000
  C   C94       1.0  0.15294  0.37695  0.14532  1.0000
  C   C95       1.0  0.10442  0.36246  0.15830  1.0000
  C   C96       1.0  0.12325  0.38728  0.13183  1.0000
  H   H110      1.0  0.11244  0.37400  0.17555  1.0000
  H   H111      1.0  0.12645  0.35852  0.17780  1.0000
  H   H112      1.0  0.14630  0.35997  0.14167  1.0000
  H   H113      1.0  0.14833  0.35711  0.15937  1.0000
  H   H114      1.0  0.12352  0.35958  0.14175  1.0000
  H   H115      1.0  0.12522  0.34886  0.15887  1.0000
  H   H116      1.0  0.11078  0.38944  0.15296  1.0000
  H   H117      1.0  0.12739  0.39348  0.14923  1.0000
  H   H118      1.0  0.14325  0.37326  0.17603  1.0000
  H   H119      1.0  0.13010  0.38972  0.17165  1.0000
  H   H120      1.0  0.12714  0.37772  0.18873  1.0000
  H   H121      1.0  0.15135  0.38372  0.13469  1.0000
  H   H122      1.0  0.15104  0.38396  0.15287  1.0000
  H   H123      1.0  0.16443  0.37147  0.14378  1.0000
  H   H124      1.0  0.09891  0.37329  0.15342  1.0000
  H   H125      1.0  0.10093  0.36039  0.17019  1.0000
  H   H126      1.0  0.10067  0.35470  0.15482  1.0000
  H   H127      1.0  0.11358  0.38531  0.12992  1.0000
  H   H128      1.0  0.12461  0.39827  0.12597  1.0000
  N   N3        1.0  0.17762  0.25518  0.06737  1.0000
  C   C97       1.0  0.17683  0.26382  0.05237  1.0000
  C   C98       1.0  0.16367  0.25044  0.07417  1.0000
  C   C99       1.0  0.18967  0.24209  0.06716  1.0000
  H   H129      1.0  0.23605  0.39417  0.20436  1.0000
  C   C100      1.0  0.19034  0.26932  0.04333  1.0000
  C   C101      1.0  0.14090  0.11256  0.20388  1.0000
  C   C102      1.0  0.18939  0.23187  0.05812  1.0000
  C   C103      1.0  0.19337  0.99790  0.14102  1.0000
  H   H130      1.0  0.23066  0.22399  0.98160  1.0000
  H   H131      1.0  0.17495  0.07752  0.21411  1.0000
  H   H132      1.0  0.20646  0.01682  0.11782  1.0000
  H   H133      1.0  0.22832  0.30910  0.10917  1.0000
  H   H134      1.0  0.20006  0.26063  0.04253  1.0000
  H   H135      1.0  0.18975  0.23552  0.07825  1.0000
  C   C104      1.0  0.23014  0.35838  0.10258  1.0000
  H   H136      1.0  0.16109  0.99330  0.15079  1.0000
  N   N4        1.0  0.18742  0.99561  0.12961  1.0000
  H   H137      1.0  0.99988  0.17882  0.13058  1.0000
  H   H138      1.0  0.21118  0.39219  0.21041  1.0000
  H   H139      1.0  0.19277  0.99958  0.10626  1.0000
  H   H140      1.0  0.23529  0.04191  0.04805  1.0000
  H   H141      1.0  0.16804  0.27351  0.05270  1.0000
  H   H142      1.0  0.19855  0.22255  0.05910  1.0000
  H   H143      1.0  0.19050  0.23704  0.04655  1.0000
  C   C105      1.0  0.22256  0.11989  0.04189  1.0000
  H   H144      1.0  0.08877  0.19577  0.09917  1.0000
  H   H145      1.0  0.99652  0.13704  0.19927  1.0000
  H   H146      1.0  0.14581  0.28344  0.20374  1.0000
  H   H147      1.0  0.10217  0.19639  0.18091  1.0000
  H   H148      1.0  0.14430  0.35467  0.03684  1.0000
  H   H149      1.0  0.11481  0.21154  0.20516  1.0000
  S   S49       1.0  0.21101  0.17214  0.98455  1.0000
  Fe  Fe26      1.0  0.14337  0.22274  0.21518  1.0000
  H   H150      1.0  0.09916  0.28772  0.11695  1.0000
  C   C106      1.0  0.18106  0.32313  0.15289  1.0000
  H   H151      1.0  0.16750  0.31265  0.02673  1.0000
  C   C107      1.0  0.12262  0.19310  0.18597  1.0000
  C   C108      1.0  0.22710  0.12761  0.02790  1.0000
  C   C109      1.0  0.17009  0.23519  0.01264  1.0000
  C   C110      1.0  0.09723  0.22875  0.20991  1.0000
  H   H152      1.0  0.21547  0.23996  0.99383  1.0000
  H   H153      1.0  0.16021  0.35206  0.08129  1.0000
  S   S50       1.0  0.13808  0.22727  0.19367  1.0000
  C   C111      1.0  0.10319  0.21422  0.20536  1.0000
  C   C112      1.0  0.10622  0.19830  0.18941  1.0000
  H   H154      1.0  0.14887  0.07132  0.19887  1.0000
  H   H155      1.0  0.06192  0.21469  0.12388  1.0000
  N   N5        1.0  0.13935  0.34719  0.06840  1.0000
  C   C113      1.0  0.05403  0.10446  0.22234  1.0000
  H   H156      1.0  0.15070  0.36255  0.05241  1.0000
  C   C114      1.0  0.21095  0.08556  0.04877  1.0000
  H   H157      1.0  0.08661  0.25109  0.10891  1.0000
  H   H158      1.0  0.05756  0.18388  0.11140  1.0000
  H   H159      1.0  0.23391  0.21050  0.00563  1.0000
  S   S51       1.0  0.17781  0.34575  0.20762  1.0000
  C   C115      1.0  0.08515  0.25379  0.09772  1.0000
  H   H160      1.0  0.21025  0.31647  0.21054  1.0000
  C   C116      1.0  0.20592  0.44149  0.20837  1.0000
  H   H161      1.0  0.23545  0.28330  0.09500  1.0000
  H   H162      1.0  0.10642  0.27078  0.08223  1.0000
  H   H163      1.0  0.07522  0.21088  0.21411  1.0000
  S   S52       1.0  0.23030  0.37727  0.18511  1.0000
  H   H164      1.0  0.19414  0.44475  0.21186  1.0000
  H   H165      1.0  0.21161  0.21764  0.03203  1.0000
  H   H166      1.0  0.19869  0.32318  0.19173  1.0000
  H   H167      1.0  0.19826  0.06175  0.15996  1.0000
  H   H168      1.0  0.12309  0.30169  0.20203  1.0000
  C   C117      1.0  0.23463  0.04353  0.03676  1.0000
  C   C118      1.0  0.02254  0.27057  0.16098  1.0000
  C   C119      1.0  0.19913  0.01585  0.11170  1.0000
  C   C120      1.0  0.20832  0.06565  0.15686  1.0000
  H   H169      1.0  0.14079  0.25236  0.98931  1.0000
  C   C121      1.0  0.22303  0.21513  0.03250  1.0000
  C   C122      1.0  0.09750  0.27958  0.07887  1.0000
  C   C123      1.0  0.04525  0.23622  0.18063  1.0000
  H   H170      1.0  0.12740  0.36340  0.08048  1.0000
  H   H171      1.0  0.17344  0.25015  0.09689  1.0000
  C   C124      1.0  0.20416  0.24752  0.01279  1.0000
  H   H172      1.0  0.12027  0.18984  0.22781  1.0000
  H   H173      1.0  0.22950  0.06185  0.14356  1.0000
  H   H174      1.0  0.08522  0.20643  0.13170  1.0000
  H   H175      1.0  0.00699  0.26679  0.18626  1.0000
  H   H176      1.0  0.09180  0.29794  0.99506  1.0000
  C   C125      1.0  0.08452  0.21165  0.12042  1.0000
  N   N6        1.0  0.06234  0.09911  0.19696  1.0000
  C   C126      1.0  0.06283  0.08330  0.20288  1.0000
  C   C127      1.0  0.04778  0.10615  0.19369  1.0000
  C   C128      1.0  0.06459  0.10603  0.20762  1.0000
  C   C129      1.0  0.07408  0.10094  0.18367  1.0000
  H   H177      1.0  0.10830  0.27730  0.20382  1.0000
  C   C130      1.0  0.04506  0.10348  0.18020  1.0000
  C   C131      1.0  0.23099  0.38366  0.09660  1.0000
  C   C132      1.0  0.07497  0.11658  0.17593  1.0000
  C   C133      1.0  0.14178  0.09623  0.20807  1.0000
  H   H178      1.0  0.06213  0.07820  0.19451  1.0000
  H   H179      1.0  0.04555  0.11789  0.19258  1.0000
  H   H180      1.0  0.03917  0.10265  0.20285  1.0000
  H   H181      1.0  0.07562  0.10199  0.20949  1.0000
  H   H182      1.0  0.06365  0.11779  0.20326  1.0000
  H   H183      1.0  0.08471  0.09585  0.18633  1.0000
  H   H184      1.0  0.07371  0.09506  0.17576  1.0000
  H   H185      1.0  0.14799  0.30103  0.20239  1.0000
  S   S53       1.0  0.19987  0.29064  0.11782  1.0000
  H   H186      1.0  0.10616  0.24924  0.99558  1.0000
  H   H187      1.0  0.05157  0.10885  0.17020  1.0000
  H   H188      1.0  0.04697  0.09190  0.18045  1.0000
  H   H189      1.0  0.03367  0.10826  0.17967  1.0000
  H   H190      1.0  0.20853  0.42629  0.18520  1.0000
  C   C134      1.0  0.98773  0.20065  0.13083  1.0000
  H   H191      1.0  0.06020  0.19261  0.13989  1.0000
  H   H192      1.0  0.08215  0.12035  0.18016  1.0000
  H   H193      1.0  0.06450  0.12421  0.17695  1.0000
  H   H194      1.0  0.07924  0.11722  0.16422  1.0000
  H   H195      1.0  0.23259  0.12622  0.13998  1.0000
  C   C135      1.0  0.18688  0.40744  0.20440  1.0000
  H   H196      1.0  0.22307  0.13136  0.08401  1.0000
  Fe  Fe27      1.0  0.21567  0.19057  0.98997  1.0000
  C   C136      1.0  0.06934  0.18649  0.13314  1.0000
  H   H197      1.0  0.02387  0.26383  0.19037  1.0000
  C   C137      1.0  0.07690  0.26941  0.09357  1.0000
  H   H198      1.0  0.19189  0.25125  0.09250  1.0000
  H   H199      1.0  0.18758  0.39691  0.21214  1.0000
  H   H200      1.0  0.23088  0.01936  0.13887  1.0000
  H   H201      1.0  0.22644  0.37293  0.08273  1.0000
  C   C138      1.0  0.02826  0.28260  0.16313  1.0000
  S   S54       1.0  0.15813  0.27290  0.01887  1.0000
  H   H202      1.0  0.04257  0.23742  0.19190  1.0000
  C   C139      1.0  0.15996  0.99763  0.13954  1.0000
  H   H203      1.0  0.17777  0.26593  0.09779  1.0000
  H   H204      1.0  0.20606  0.33836  0.18725  1.0000
  C   C140      1.0  0.21740  0.07252  0.04169  1.0000
  H   H205      1.0  0.07874  0.24645  0.09725  1.0000
  H   H206      1.0  0.04007  0.28023  0.16114  1.0000
  C   C141      1.0  0.08974  0.27895  0.10506  1.0000
  H   H207      1.0  0.20976  0.06116  0.19860  1.0000
  C   C142      1.0  0.18092  0.25740  0.09157  1.0000
  N   N7        1.0  0.23017  0.23243  0.00815  1.0000
  H   H208      1.0  0.05336  0.08151  0.21173  1.0000
  H   H209      1.0  0.18550  0.08188  0.18929  1.0000
  H   H210      1.0  0.07539  0.29616  0.06612  1.0000
  H   H211      1.0  0.18887  0.02374  0.11368  1.0000
  H   H212      1.0  0.16470  0.24135  0.08364  1.0000
  H   H213      1.0  0.20440  0.25843  0.00593  1.0000
  H   H214      1.0  0.05914  0.29187  0.07839  1.0000
  H   H215      1.0  0.14125  0.31963  0.16337  1.0000
  H   H216      1.0  0.23023  0.39389  0.08898  1.0000
  H   H217      1.0  0.22893  0.10385  0.06007  1.0000
  H   H218      1.0  0.02750  0.26911  0.14978  1.0000
  C   C143      1.0  0.21535  0.41725  0.19146  1.0000
  H   H219      1.0  0.10742  0.29029  0.09837  1.0000
  H   H220      1.0  0.22275  0.42388  0.21412  1.0000
  N   N8        1.0  0.09050  0.26805  0.00124  1.0000
  C   C144      1.0  0.09603  0.25197  0.00355  1.0000
  C   C145      1.0  0.08575  0.27309  0.98716  1.0000
  C   C146      1.0  0.07769  0.27090  0.01327  1.0000
  C   C147      1.0  0.10223  0.27486  0.00141  1.0000
  C   C148      1.0  0.09925  0.24423  0.01849  1.0000
  H   H221      1.0  0.12761  0.19426  0.19415  1.0000
  C   C149      1.0  0.07017  0.28670  0.01310  1.0000
  C   C150      1.0  0.06717  0.17105  0.13683  1.0000
  H   H222      1.0  0.22934  0.28207  0.11905  1.0000
  H   H223      1.0  0.09534  0.17046  0.09682  1.0000
  H   H224      1.0  0.17955  0.22752  0.06205  1.0000
  H   H225      1.0  0.15668  0.15314  0.21725  1.0000
  H   H226      1.0  0.06951  0.26506  0.01359  1.0000
  H   H227      1.0  0.08067  0.26677  0.02390  1.0000
  H   H228      1.0  0.10224  0.27481  0.01261  1.0000
  C   C151      1.0  0.07625  0.07438  0.20858  1.0000
  H   H229      1.0  0.10613  0.23340  0.01795  1.0000
  H   H230      1.0  0.10494  0.25009  0.02226  1.0000
  H   H231      1.0  0.08929  0.24265  0.02661  1.0000
  H   H232      1.0  0.23433  0.25073  0.99080  1.0000
  H   H233      1.0  0.20913  0.44441  0.19650  1.0000
  H   H234      1.0  0.22042  0.04494  0.17771  1.0000
  H   H235      1.0  0.06691  0.29251  0.00287  1.0000
  H   H236      1.0  0.23544  0.13481  0.16092  1.0000
  H   H237      1.0  0.13786  0.15402  0.22198  1.0000
  H   H238      1.0  0.20331  0.33592  0.21974  1.0000
  C   C152      1.0  0.21779  0.31869  0.20003  1.0000
  H   H239      1.0  0.07886  0.18583  0.13722  1.0000
  C   C153      1.0  0.20814  0.27911  0.07994  1.0000
  H   H240      1.0  0.08554  0.23243  0.21085  1.0000
  S   S55       1.0  0.17448  0.30725  0.21309  1.0000
  H   H241      1.0  0.20024  0.24510  0.06341  1.0000
  H   H242      1.0  0.19668  0.29763  0.08857  1.0000
  H   H243      1.0  0.21089  0.22623  0.00830  1.0000
  H   H244      1.0  0.06183  0.30972  0.07377  1.0000
  H   H245      1.0  0.21689  0.05574  0.13877  1.0000
  H   H246      1.0  0.16418  0.10327  0.18660  1.0000
  H   H247      1.0  0.10579  0.21415  0.16255  1.0000
  H   H248      1.0  0.21094  0.06690  0.16651  1.0000
  S   S56       1.0  0.21450  0.14055  0.01904  1.0000
  H   H249      1.0  0.11976  0.22171  0.17953  1.0000
  H   H250      1.0  0.07898  0.30445  0.08763  1.0000
  H   H251      1.0  0.19314  0.00947  0.13963  1.0000
  C   C154      1.0  0.06740  0.29824  0.07601  1.0000
  H   H252      1.0  0.07817  0.19780  0.20338  1.0000
  C   C155      1.0  0.16642  0.08748  0.21334  1.0000
  H   H253      1.0  0.21365  0.01637  0.18024  1.0000
  C   C156      1.0  0.23588  0.02879  0.13453  1.0000
  H   H254      1.0  0.22255  0.30784  0.19772  1.0000
  S   S57       1.0  0.11339  0.35737  0.21565  1.0000
  H   H255      1.0  0.22995  0.43204  0.18126  1.0000
  N   N9        1.0  0.20853  0.41519  0.20731  1.0000
  S   S58       1.0  0.22237  0.25564  0.06878  1.0000
  C   C157      1.0  0.21269  0.26609  0.10762  1.0000
  N   N10       1.0  0.10067  0.21357  0.19127  1.0000
  C   C158      1.0  0.08499  0.21794  0.19110  1.0000
  H   H256      1.0  0.15676  0.24474  0.19402  1.0000
  H   H257      1.0  0.20430  0.01882  0.10014  1.0000
  H   H258      1.0  0.16053  0.24607  0.06659  1.0000
  H   H259      1.0  0.07085  0.21614  0.10555  1.0000
  H   H260      1.0  0.17124  0.29094  0.15927  1.0000
  H   H261      1.0  0.19102  0.28341  0.18872  1.0000
  C   C159      1.0  0.07428  0.29518  0.08899  1.0000
  H   H262      1.0  0.10404  0.23496  0.18082  1.0000
  H   H263      1.0  0.19211  0.27778  0.04755  1.0000
  H   H264      1.0  0.21136  0.12201  0.04713  1.0000
  H   H265      1.0  0.15306  0.33143  0.15390  1.0000
  C   C160      1.0  0.18563  0.99327  0.15673  1.0000
  H   H266      1.0  0.16900  0.29787  0.13503  1.0000
  H   H267      1.0  0.04230  0.21275  0.11978  1.0000
  H   H268      1.0  0.15325  0.33009  0.08025  1.0000
  C   C161      1.0  0.18342  0.28751  0.18142  1.0000
  H   H269      1.0  0.00222  0.24687  0.20265  1.0000
  H   H270      1.0  0.21672  0.09290  0.01658  1.0000
  C   C162      1.0  0.13857  0.25723  0.97875  1.0000
  H   H271      1.0  0.23200  0.34508  0.20409  1.0000
  C   C163      1.0  0.23469  0.38225  0.10964  1.0000
  H   H272      1.0  0.17256  0.28830  0.18840  1.0000
  H   H273      1.0  0.22905  0.01217  0.16634  1.0000
  H   H274      1.0  0.16226  0.24514  0.01112  1.0000
  H   H275      1.0  0.16180  0.34567  0.05804  1.0000
  H   H276      1.0  0.04563  0.24911  0.15922  1.0000
  H   H277      1.0  0.02526  0.29256  0.15507  1.0000
  H   H278      1.0  0.09790  0.23298  0.16094  1.0000
  S   S59       1.0  0.12623  0.29317  0.02000  1.0000
  Fe  Fe28      1.0  0.14058  0.27742  0.00669  1.0000
  C   C164      1.0  0.13812  0.33984  0.05753  1.0000
  C   C165      1.0  0.22889  0.13868  0.07513  1.0000
  H   H279      1.0  0.12528  0.18150  0.18586  1.0000
  H   H280      1.0  0.13678  0.09355  0.21968  1.0000
  C   C166      1.0  0.17620  0.30012  0.15281  1.0000
  H   H281      1.0  0.12117  0.32975  0.09082  1.0000
  H   H282      1.0  0.01162  0.14100  0.21330  1.0000
  H   H283      1.0  0.14096  0.25776  0.08260  1.0000
  H   H284      1.0  0.14813  0.33180  0.05491  1.0000
  C   C167      1.0  0.14925  0.32486  0.16453  1.0000
  C   C168      1.0  0.16889  0.30668  0.13996  1.0000
  H   H285      1.0  0.19718  0.30032  0.16558  1.0000
  H   H286      1.0  0.06539  0.29582  0.09868  1.0000
  C   C169      1.0  0.15232  0.35377  0.06198  1.0000
  H   H287      1.0  0.17260  0.27489  0.07510  1.0000
  N   N11       1.0  0.22585  0.04098  0.15621  1.0000
  H   H288      1.0  0.18182  0.08918  0.17173  1.0000
  H   H289      1.0  0.02105  0.23518  0.17307  1.0000
  H   H290      1.0  0.22382  0.24738  0.09894  1.0000
  H   H291      1.0  0.05768  0.17035  0.13355  1.0000
  H   H292      1.0  0.17400  0.25771  0.04610  1.0000
  C   C170      1.0  0.22839  0.08990  0.01236  1.0000
  H   H293      1.0  0.13370  0.34309  0.03652  1.0000
  C   C171      1.0  0.15687  0.36027  0.07201  1.0000
  H   H294      1.0  0.14845  0.36913  0.07587  1.0000
  C   C172      1.0  0.13515  0.34971  0.04317  1.0000
  H   H295      1.0  0.99374  0.20043  0.13877  1.0000
  H   H296      1.0  0.15756  0.31193  0.14311  1.0000
  N   N12       1.0  0.08487  0.28103  0.09139  1.0000
  C   C173      1.0  0.18595  0.30220  0.17192  1.0000
  C   C174      1.0  0.21220  0.34110  0.21843  1.0000
  N   N13       1.0  0.02460  0.25635  0.17167  1.0000
  H   H297      1.0  0.15659  0.30362  0.17618  1.0000
  N   N14       1.0  0.17568  0.31002  0.16214  1.0000
  C   C175      1.0  0.21131  0.42540  0.21446  1.0000
  C   C176      1.0  0.23046  0.42056  0.18668  1.0000
  H   H298      1.0  0.22147  0.30360  0.12795  1.0000
  H   H299      1.0  0.21223  0.01066  0.16501  1.0000
  H   H300      1.0  0.12522  0.35809  0.04472  1.0000
  H   H301      1.0  0.11559  0.28986  0.06839  1.0000
  H   H302      1.0  0.11094  0.34644  0.07204  1.0000
  H   H303      1.0  0.12971  0.33352  0.06174  1.0000
  H   H304      1.0  0.17475  0.31412  0.13140  1.0000
  C   C177      1.0  0.21753  0.01719  0.16845  1.0000
  C   C178      1.0  0.10373  0.29309  0.07110  1.0000
  H   H305      1.0  0.07349  0.27005  0.08363  1.0000
  C   C179      1.0  0.14200  0.33630  0.08196  1.0000
  H   H306      1.0  0.16636  0.36485  0.06593  1.0000
  H   H307      1.0  0.13552  0.31838  0.09846  1.0000
  H   H308      1.0  0.16145  0.31701  0.18103  1.0000
  H   H309      1.0  0.04559  0.25819  0.17234  1.0000
  H   H310      1.0  0.21486  0.44320  0.11888  1.0000
  H   H311      1.0  0.19224  0.31992  0.14686  1.0000
  H   H312      1.0  0.19079  0.26738  0.07067  1.0000
  H   H313      1.0  0.13240  0.26822  0.22074  1.0000
  H   H314      1.0  0.18562  0.30874  0.17951  1.0000
  H   H315      1.0  0.17506  0.32884  0.14434  1.0000
  N   N15       1.0  0.15648  0.08691  0.20454  1.0000
  H   H316      1.0  0.12638  0.36855  0.06243  1.0000
  C   C180      1.0  0.12656  0.35907  0.07163  1.0000
  H   H317      1.0  0.14073  0.34178  0.09072  1.0000
  H   H318      1.0  0.18391  0.34407  0.15289  1.0000
  C   C181      1.0  0.23139  0.30289  0.11940  1.0000
  C   C182      1.0  0.19735  0.29087  0.22472  1.0000
  C   C183      1.0  0.11165  0.35541  0.07613  1.0000
  C   C184      1.0  0.16094  0.31351  0.17148  1.0000
  H   H319      1.0  0.10381  0.36481  0.07172  1.0000
  Fe  Fe29      1.0  0.13719  0.35357  0.21286  1.0000
  C   C185      1.0  0.20522  0.28037  0.10468  1.0000
  H   H320      1.0  0.10803  0.35299  0.08802  1.0000
  H   H321      1.0  0.08054  0.27831  0.11438  1.0000
  H   H322      1.0  0.10109  0.30152  0.07725  1.0000
  H   H323      1.0  0.14345  0.33241  0.17169  1.0000
  H   H324      1.0  0.18864  0.33060  0.16791  1.0000
  H   H325      1.0  0.14986  0.00594  0.13981  1.0000
  H   H326      1.0  0.17005  0.33820  0.16724  1.0000
  C   C186      1.0  0.09694  0.29039  0.10602  1.0000
  C   C187      1.0  0.13270  0.32499  0.08818  1.0000
  H   H327      1.0  0.20633  0.28425  0.06925  1.0000
  C   C188      1.0  0.18082  0.33449  0.16089  1.0000
  H   H328      1.0  0.13450  0.09417  0.20256  1.0000
  H   H329      1.0  0.21440  0.26102  0.11834  1.0000
  Fe  Fe30      1.0  0.16386  0.33041  0.21183  1.0000
  C   C189      1.0  0.20906  0.32658  0.18844  1.0000
  C   C190      1.0  0.23593  0.31615  0.21328  1.0000
  C   C191      1.0  0.17761  0.08335  0.18275  1.0000
  H   H330      1.0  0.13488  0.31744  0.08106  1.0000
  C   C192      1.0  0.17920  0.23035  0.00063  1.0000
  C   C193      1.0  0.23483  0.25638  0.01004  1.0000
  C   C194      1.0  0.21399  0.03301  0.16030  1.0000
  H   H331      1.0  0.05949  0.20093  0.10033  1.0000
  C   C195      1.0  0.14180  0.98674  0.18173  1.0000
  H   H332      1.0  0.10054  0.29784  0.06061  1.0000
  H   H333      1.0  0.22261  0.14261  0.06663  1.0000
  C   C196      1.0  0.01214  0.13922  0.17935  1.0000
  Fe  Fe31      1.0  0.22972  0.08169  0.10136  1.0000
  H   H334      1.0  0.22345  0.21311  0.04398  1.0000
  C   C197      1.0  0.19251  0.41799  0.20911  1.0000
  H   H335      1.0  0.21663  0.43633  0.13674  1.0000
  C   C198      1.0  0.20270  0.05815  0.20885  1.0000
  H   H336      1.0  0.22522  0.23649  0.02974  1.0000
  H   H337      1.0  0.18877  0.27440  0.03224  1.0000
  H   H338      1.0  0.11093  0.17402  0.21864  1.0000
  C   C199      1.0  0.01849  0.24644  0.16713  1.0000
  C   C200      1.0  0.08468  0.18751  0.10846  1.0000
  C   C201      1.0  0.08424  0.17558  0.10151  1.0000
  C   C202      1.0  0.09043  0.35057  0.21167  1.0000
  H   H339      1.0  0.17701  0.07275  0.18171  1.0000
  C   C203      1.0  0.01556  0.14155  0.20188  1.0000
  H   H340      1.0  0.11442  0.26671  0.22740  1.0000
  H   H341      1.0  0.21502  0.06294  0.05020  1.0000
  H   H342      1.0  0.09758  0.26860  0.10706  1.0000
  S   S60       1.0  0.14875  0.37130  0.20930  1.0000
  S   S61       1.0  0.22574  0.11564  0.20338  1.0000
  H   H343      1.0  0.21114  0.07346  0.03365  1.0000
  C   C204      1.0  0.15076  0.26218  0.07901  1.0000
  H   H344      1.0  0.08998  0.30129  0.10480  1.0000
  S   S62       1.0  0.20120  0.21242  0.98706  1.0000
  C   C205      1.0  0.23249  0.10962  0.04921  1.0000
  H   H345      1.0  0.09459  0.27626  0.07044  1.0000
  C   C206      1.0  0.22319  0.34021  0.20408  1.0000
  H   H346      1.0  0.21592  0.40762  0.18748  1.0000
  H   H347      1.0  0.22396  0.04213  0.03676  1.0000
  H   H348      1.0  0.22742  0.43045  0.09970  1.0000
  C   C207      1.0  0.01395  0.24556  0.19848  1.0000
  H   H349      1.0  0.01806  0.23511  0.19531  1.0000
  C   C208      1.0  0.14779  0.06440  0.22152  1.0000
  H   H350      1.0  0.09871  0.20599  0.21430  1.0000
  H   H351      1.0  0.09558  0.25151  0.09014  1.0000
  H   H352      1.0  0.23651  0.41779  0.19519  1.0000
  H   H353      1.0  0.22859  0.20497  0.02899  1.0000
  H   H354      1.0  0.23127  0.11026  0.12867  1.0000
  H   H355      1.0  0.02356  0.24589  0.15572  1.0000
  C   C209      1.0  0.04047  0.25054  0.17036  1.0000
  C   C210      1.0  0.21601  0.26500  0.08271  1.0000
  H   H356      1.0  0.11705  0.22659  0.15622  1.0000
  H   H357      1.0  0.23536  0.09130  0.13091  1.0000
  H   H358      1.0  0.23172  0.09996  0.00576  1.0000
  H   H359      1.0  0.09322  0.18313  0.11474  1.0000
  H   H360      1.0  0.07685  0.16370  0.13222  1.0000
  S   S63       1.0  0.22505  0.17728  0.00881  1.0000
  H   H361      1.0  0.17522  0.00081  0.15926  1.0000
  H   H362      1.0  0.07764  0.07812  0.21753  1.0000
  C   C211      1.0  0.22994  0.04107  0.16969  1.0000
  Fe  Fe32      1.0  0.22278  0.15848  0.00182  1.0000
  H   H363      1.0  0.10283  0.23716  0.20263  1.0000
  C   C212      1.0  0.10214  0.29040  0.99264  1.0000
  C   C213      1.0  0.18031  0.26436  0.07569  1.0000
  H   H364      1.0  0.22910  0.14773  0.07949  1.0000
  H   H365      1.0  0.21608  0.08490  0.05756  1.0000
  H   H366      1.0  0.20738  0.35255  0.21874  1.0000
  H   H367      1.0  0.22405  0.11255  0.16218  1.0000
  S   S64       1.0  0.23322  0.07276  0.08196  1.0000
  H   H368      1.0  0.02353  0.28514  0.17387  1.0000
  H   H369      1.0  0.20974  0.03357  0.15084  1.0000
  H   H370      1.0  0.07620  0.26891  0.98796  1.0000
  H   H371      1.0  0.06526  0.16711  0.14869  1.0000
  H   H372      1.0  0.20630  0.42318  0.22617  1.0000
  C   C214      1.0  0.19701  0.00033  0.11523  1.0000
  H   H373      1.0  0.21797  0.34767  0.19555  1.0000
  H   H374      1.0  0.10155  0.31698  0.22412  1.0000
  C   C215      1.0  0.98858  0.18477  0.13134  1.0000
  C   C216      1.0  0.23036  0.22768  0.02395  1.0000
  H   H375      1.0  0.07921  0.16700  0.10916  1.0000
  H   H376      1.0  0.99609  0.22391  0.13284  1.0000
  H   H377      1.0  0.22267  0.08941  0.17194  1.0000
  H   H378      1.0  0.11024  0.29443  0.99525  1.0000
  C   C217      1.0  0.14268  0.29234  0.20947  1.0000
  H   H379      1.0  0.14954  0.11551  0.20671  1.0000
  C   C218      1.0  0.22948  0.39490  0.21527  1.0000
  C   C219      1.0  0.18636  0.30321  0.22451  1.0000
  H   H380      1.0  0.20785  0.99309  0.11431  1.0000
  H   H381      1.0  0.12458  0.30844  0.21611  1.0000
  H   H382      1.0  0.22796  0.34170  0.17216  1.0000
  H   H383      1.0  0.14638  0.05390  0.22087  1.0000
  N   N16       1.0  0.11743  0.28839  0.22333  1.0000
  H   H384      1.0  0.09926  0.22742  0.22072  1.0000
  H   H385      1.0  0.21150  0.09587  0.04086  1.0000
  H   H386      1.0  0.22340  0.26069  0.01415  1.0000
  H   H387      1.0  0.22346  0.45643  0.09913  1.0000
  H   H388      1.0  0.16563  0.06449  0.20388  1.0000
  H   H389      1.0  0.18700  0.41802  0.22052  1.0000
  C   C220      1.0  0.23348  0.35704  0.11581  1.0000
  C   C221      1.0  0.22872  0.37181  0.09308  1.0000
  H   H390      1.0  0.23496  0.00477  0.10372  1.0000
  H   H391      1.0  0.23109  0.06078  0.01887  1.0000
  N   N17       1.0  0.22921  0.32543  0.20095  1.0000
  C   C222      1.0  0.22236  0.43597  0.12547  1.0000
  S   S65       1.0  0.16154  0.22694  0.22132  1.0000
  C   C223      1.0  0.23371  0.10004  0.13657  1.0000
  H   H392      1.0  0.08446  0.31313  0.22696  1.0000
  C   C224      1.0  0.18419  0.04561  0.22346  1.0000
  H   H393      1.0  0.23130  0.38384  0.22198  1.0000
  H   H394      1.0  0.07509  0.06308  0.21292  1.0000
  H   H395      1.0  0.23437  0.02997  0.17519  1.0000
  C   C225      1.0  0.10191  0.29490  0.22306  1.0000
  C   C226      1.0  0.23461  0.10662  0.16473  1.0000
  S   S66       1.0  0.14666  0.19968  0.22647  1.0000
  H   H396      1.0  0.17695  0.03883  0.22461  1.0000
  H   H397      1.0  0.12383  0.98362  0.17577  1.0000
  H   H398      1.0  0.19822  0.16321  0.22479  1.0000
  C   C227      1.0  0.23295  0.09116  0.17265  1.0000
  H   H399      1.0  0.22092  0.46814  0.11975  1.0000
  H   H400      1.0  0.23239  0.08980  0.18429  1.0000
  H   H401      1.0  0.23416  0.44187  0.08282  1.0000
  H   H402      1.0  0.23595  0.11181  0.17272  1.0000
  C   C228      1.0  0.22661  0.47186  0.10856  1.0000
  H   H403      1.0  0.23541  0.44773  0.12985  1.0000
  C   C229      1.0  0.23279  0.45955  0.10043  1.0000
  H   H404      1.0  0.21866  0.48013  0.10303  1.0000
  H   H405      1.0  0.13695  0.07051  0.22549  1.0000
  H   H406      1.0  0.21728  0.33646  0.22782  1.0000
  H   H407      1.0  0.23534  0.09242  0.02993  1.0000
  H   H408      1.0  0.23493  0.47731  0.10852  1.0000
  N   N18       1.0  0.23317  0.07034  0.03506  1.0000
  H   H409      1.0  0.23560  0.98830  0.08865  1.0000
  C   C230      1.0  0.23559  0.36896  0.11941  1.0000
  H   H410      1.0  0.23468  0.34669  0.12319  1.0000
  Fe  Fe33      1.0  0.21859  0.10594  0.22675  1.0000
  C   C231      1.0  0.14709  0.15393  0.22619  1.0000
  H   H411      1.0  0.23074  0.08256  0.00499  1.0000
  H   H412      1.0  0.23672  0.05945  0.05654  1.0000
  H   H413      1.0  0.17568  0.98265  0.11549  1.0000
  C   C232      1.0  0.23664  0.44055  0.12253  1.0000
  H   H414      1.0  0.23710  0.06154  0.16323  1.0000
  C   C233      1.0  0.23714  0.43278  0.09169  1.0000
  H   H415      1.0  0.23704  0.41440  0.17843  1.0000
  C   C234      1.0  0.23740  0.24497  0.00122  1.0000
  H   H416      1.0  0.23732  0.15396  0.04763  1.0000
  C   C235      1.0  0.23727  0.05823  0.02735  1.0000
  H   H417      1.0  0.23702  0.29408  0.21169  1.0000
  C   C236      1.0  0.23683  0.08365  0.02441  1.0000
  H   H418      1.0  0.21579  0.16553  0.28561  1.0000
  C   C237      1.0  0.15974  0.08962  0.22881  1.0000
  Fe  Fe34      1.0  0.19669  0.11172  0.25361  1.0000
  S   S67       1.0  0.20475  0.09030  0.26692  1.0000
  S   S68       1.0  0.17804  0.12702  0.26365  1.0000
  Fe  Fe35      1.0  0.22652  0.09485  0.25593  1.0000
  H   H419      1.0  0.16500  0.17896  0.25843  1.0000
  Fe  Fe36      1.0  0.20588  0.08190  0.24760  1.0000
  S   S69       1.0  0.19530  0.06373  0.24963  1.0000
  S   S70       1.0  0.21830  0.11685  0.24382  1.0000
  Fe  Fe37      1.0  0.23512  0.33387  0.39555  1.0000
  H   H420      1.0  0.19829  0.38389  0.27892  1.0000
  C   C238      1.0  0.12022  0.28664  0.23796  1.0000
  Fe  Fe38      1.0  0.22217  0.40781  0.27586  1.0000
  S   S71       1.0  0.19945  0.41996  0.28086  1.0000
  C   C239      1.0  0.12544  0.12707  0.23958  1.0000
  Fe  Fe39      1.0  0.22850  0.42630  0.24594  1.0000
  S   S72       1.0  0.20630  0.43990  0.24850  1.0000
  Fe  Fe40      1.0  0.20873  0.43971  0.27039  1.0000
  S   S73       1.0  0.14842  0.33917  0.23008  1.0000
  Fe  Fe41      1.0  0.19918  0.41903  0.25847  1.0000
  S   S74       1.0  0.18069  0.41555  0.25157  1.0000
  Fe  Fe42      1.0  0.14555  0.23292  0.24084  1.0000
  S   S75       1.0  0.22125  0.40550  0.25425  1.0000
  H   H421      1.0  0.23474  0.18265  0.26067  1.0000
  S   S76       1.0  0.17237  0.35820  0.24123  1.0000
  Fe  Fe43      1.0  0.22378  0.32135  0.37623  1.0000
  H   H422      1.0  0.21916  0.13210  0.29190  1.0000
  S   S77       1.0  0.21554  0.30360  0.37292  1.0000
  H   H423      1.0  0.19512  0.13844  0.23643  1.0000
  H   H424      1.0  0.15188  0.10457  0.26855  1.0000
  H   H425      1.0  0.21072  0.35946  0.27574  1.0000
  Fe  Fe44      1.0  0.22456  0.35296  0.36888  1.0000
  S   S78       1.0  0.21302  0.37447  0.35779  1.0000
  H   H426      1.0  0.23211  0.46611  0.31883  1.0000
  S   S79       1.0  0.21398  0.33878  0.38882  1.0000
  H   H427      1.0  0.18225  0.37088  0.27817  1.0000
  H   H428      1.0  0.14508  0.10891  0.25274  1.0000
  S   S80       1.0  0.14824  0.21048  0.25452  1.0000
  H   H429      1.0  0.22963  0.31413  0.33005  1.0000
  H   H430      1.0  0.12635  0.14502  0.28071  1.0000
  C   C240      1.0  0.22832  0.32326  0.29676  1.0000
  Fe  Fe45      1.0  0.13123  0.20782  0.24495  1.0000
  H   H431      1.0  0.19413  0.20546  0.25988  1.0000
  H   H432      1.0  0.21047  0.32056  0.46458  1.0000
  H   H433      1.0  0.15308  0.08188  0.23532  1.0000
  C   C241      1.0  0.08967  0.17146  0.25210  1.0000
  S   S81       1.0  0.23062  0.24676  0.31102  1.0000
  C   C242      1.0  0.21229  0.47028  0.28059  1.0000
  C   C243      1.0  0.11136  0.27747  0.25063  1.0000
  Fe  Fe46      1.0  0.19812  0.29498  0.30411  1.0000
  S   S82       1.0  0.22039  0.28720  0.29219  1.0000
  S   S83       1.0  0.19435  0.31322  0.31529  1.0000
  Fe  Fe47      1.0  0.18572  0.27490  0.29428  1.0000
  S   S84       1.0  0.20707  0.26565  0.28199  1.0000
  S   S85       1.0  0.16686  0.26533  0.29612  1.0000
  Fe  Fe48      1.0  0.21533  0.26544  0.30088  1.0000
  C   C244      1.0  0.23577  0.37389  0.31706  1.0000
  Fe  Fe49      1.0  0.21001  0.28822  0.27450  1.0000
  S   S86       1.0  0.21938  0.29557  0.25113  1.0000
  S   S87       1.0  0.19368  0.27298  0.31408  1.0000
  S   S88       1.0  0.18798  0.29784  0.28550  1.0000
  C   C245      1.0  0.16326  0.26015  0.28196  1.0000
  C   C246      1.0  0.15213  0.25290  0.28515  1.0000
  C   C247      1.0  0.14803  0.24962  0.27416  1.0000
  C   C248      1.0  0.15481  0.25384  0.25979  1.0000
  C   C249      1.0  0.16614  0.26086  0.25660  1.0000
  C   C250      1.0  0.17059  0.26369  0.26765  1.0000
  H   H434      1.0  0.14638  0.25012  0.29616  1.0000
  H   H435      1.0  0.13907  0.24455  0.27676  1.0000
  H   H436      1.0  0.17124  0.26448  0.24549  1.0000
  H   H437      1.0  0.17916  0.26932  0.26500  1.0000
  C   C251      1.0  0.17706  0.38353  0.30293  1.0000
  C   C252      1.0  0.21734  0.20114  0.30914  1.0000
  C   C253      1.0  0.09515  0.16932  0.23808  1.0000
  H   H438      1.0  0.22465  0.20066  0.29850  1.0000
  H   H439      1.0  0.23454  0.34006  0.30978  1.0000
  C   C254      1.0  0.20352  0.19687  0.25693  1.0000
  H   H440      1.0  0.15352  0.13135  0.23428  1.0000
  C   C255      1.0  0.22200  0.16655  0.27433  1.0000
  H   H441      1.0  0.16885  0.36695  0.29371  1.0000
  H   H442      1.0  0.09062  0.18163  0.26821  1.0000
  C   C256      1.0  0.20959  0.30631  0.35694  1.0000
  C   C257      1.0  0.21036  0.29445  0.35144  1.0000
  C   C258      1.0  0.20587  0.29636  0.33862  1.0000
  C   C259      1.0  0.20011  0.31015  0.33146  1.0000
  C   C260      1.0  0.19903  0.32194  0.33716  1.0000
  C   C261      1.0  0.20392  0.32009  0.34971  1.0000
  H   H443      1.0  0.21460  0.28375  0.35704  1.0000
  H   H444      1.0  0.20668  0.28717  0.33440  1.0000
  H   H445      1.0  0.19428  0.33253  0.33192  1.0000
  H   H446      1.0  0.20305  0.32928  0.35396  1.0000
  H   H447      1.0  0.22856  0.42755  0.33545  1.0000
  H   H448      1.0  0.19685  0.34460  0.28740  1.0000
  H   H449      1.0  0.22742  0.40469  0.33732  1.0000
  C   C262      1.0  0.20637  0.29808  0.24140  1.0000
  S   S89       1.0  0.19605  0.10318  0.23527  1.0000
  C   C263      1.0  0.18192  0.17263  0.24096  1.0000
  H   H450      1.0  0.21611  0.27898  0.23303  1.0000
  H   H451      1.0  0.22753  0.37023  0.43956  1.0000
  H   H452      1.0  0.22560  0.32579  0.46512  1.0000
  H   H453      1.0  0.22393  0.41793  0.30636  1.0000
  C   C264      1.0  0.22075  0.42888  0.30836  1.0000
  C   C265      1.0  0.22726  0.38478  0.30872  1.0000
  C   C266      1.0  0.23024  0.11545  0.28021  1.0000
  H   H454      1.0  0.16778  0.38007  0.31118  1.0000
  C   C267      1.0  0.21851  0.37832  0.33891  1.0000
  C   C268      1.0  0.20997  0.38926  0.33055  1.0000
  C   C269      1.0  0.21430  0.39245  0.31547  1.0000
  C   C270      1.0  0.19044  0.16121  0.23477  1.0000
  C   C271      1.0  0.23524  0.33486  0.32099  1.0000
  H   H455      1.0  0.19996  0.39519  0.33579  1.0000
  H   H456      1.0  0.20759  0.40074  0.30909  1.0000
  C   C272      1.0  0.17923  0.39963  0.24780  1.0000
  C   C273      1.0  0.18915  0.38667  0.25041  1.0000
  C   C274      1.0  0.18713  0.37413  0.24796  1.0000
  C   C275      1.0  0.17541  0.37450  0.24250  1.0000
  C   C276      1.0  0.19441  0.05873  0.23419  1.0000
  H   H457      1.0  0.18076  0.35628  0.31804  1.0000
  H   H458      1.0  0.19827  0.38626  0.25447  1.0000
  H   H459      1.0  0.19461  0.36404  0.25041  1.0000
  C   C277      1.0  0.18517  0.34877  0.28978  1.0000
  H   H460      1.0  0.08150  0.16596  0.25918  1.0000
  N   N19       1.0  0.18760  0.37073  0.29799  1.0000
  H   H461      1.0  0.11527  0.13741  0.25705  1.0000
  H   H462      1.0  0.22543  0.17978  0.24488  1.0000
  H   H463      1.0  0.18089  0.34663  0.28156  1.0000
  C   C278      1.0  0.22042  0.17036  0.24875  1.0000
  C   C279      1.0  0.22699  0.44833  0.31395  1.0000
  H   H464      1.0  0.22067  0.11437  0.27788  1.0000
  H   H465      1.0  0.19893  0.15338  0.29182  1.0000
  C   C280      1.0  0.19078  0.35955  0.31122  1.0000
  H   H466      1.0  0.22929  0.30339  0.31170  1.0000
  C   C281      1.0  0.17916  0.14457  0.25461  1.0000
  C   C282      1.0  0.17042  0.15603  0.26064  1.0000
  H   H467      1.0  0.12950  0.16280  0.24958  1.0000
  H   H468      1.0  0.17701  0.32243  0.23272  1.0000
  C   C283      1.0  0.18884  0.14719  0.24146  1.0000
  C   C284      1.0  0.23637  0.42375  0.32608  1.0000
  H   H469      1.0  0.16290  0.15400  0.27080  1.0000
  H   H470      1.0  0.18197  0.38888  0.30820  1.0000
  C   C285      1.0  0.18067  0.36501  0.28960  1.0000
  H   H471      1.0  0.20864  0.36575  0.31523  1.0000
  S   S90       1.0  0.11304  0.19658  0.25665  1.0000
  H   H472      1.0  0.19938  0.35491  0.33035  1.0000
  H   H473      1.0  0.21286  0.17235  0.24162  1.0000
  H   H474      1.0  0.15671  0.38802  0.23523  1.0000
  Fe  Fe50      1.0  0.16320  0.20458  0.23450  1.0000
  H   H475      1.0  0.05676  0.11006  0.22914  1.0000
  H   H476      1.0  0.18049  0.34247  0.30035  1.0000
  C   C286      1.0  0.21338  0.36425  0.28321  1.0000
  H   H477      1.0  0.22702  0.30743  0.46445  1.0000
  H   H478      1.0  0.17812  0.04679  0.24583  1.0000
  C   C287      1.0  0.23385  0.35943  0.43971  1.0000
  N   N20       1.0  0.13721  0.13976  0.25154  1.0000
  H   H479      1.0  0.11205  0.15236  0.27095  1.0000
  C   C288      1.0  0.12407  0.13894  0.24741  1.0000
  S   S91       1.0  0.12694  0.23093  0.23327  1.0000
  C   C289      1.0  0.14133  0.12704  0.26328  1.0000
  H   H480      1.0  0.19801  0.34955  0.30840  1.0000
  H   H481      1.0  0.20486  0.19776  0.24525  1.0000
  H   H482      1.0  0.22967  0.15600  0.27461  1.0000
  S   S92       1.0  0.14722  0.25342  0.24577  1.0000
  H   H483      1.0  0.22249  0.36939  0.27703  1.0000
  H   H484      1.0  0.11851  0.29730  0.24050  1.0000
  C   C290      1.0  0.20574  0.15612  0.26811  1.0000
  S   S93       1.0  0.20093  0.45978  0.27968  1.0000
  C   C291      1.0  0.19454  0.15428  0.28244  1.0000
  H   H485      1.0  0.12084  0.16390  0.27447  1.0000
  H   H486      1.0  0.20042  0.15631  0.25961  1.0000
  S   S94       1.0  0.22868  0.08406  0.23787  1.0000
  C   C292      1.0  0.20643  0.48162  0.28781  1.0000
  S   S95       1.0  0.18472  0.18991  0.23331  1.0000
  N   N21       1.0  0.14584  0.31070  0.27384  1.0000
  C   C293      1.0  0.14600  0.29819  0.26793  1.0000
  C   C294      1.0  0.14649  0.30502  0.28947  1.0000
  C   C295      1.0  0.15918  0.31617  0.26575  1.0000
  C   C296      1.0  0.13256  0.32215  0.27161  1.0000
  C   C297      1.0  0.14703  0.30119  0.25159  1.0000
  C   C298      1.0  0.13492  0.29667  0.29875  1.0000
  C   C299      1.0  0.16206  0.32837  0.27053  1.0000
  C   C300      1.0  0.12660  0.33229  0.28221  1.0000
  H   H487      1.0  0.15512  0.28927  0.27040  1.0000
  H   H488      1.0  0.13622  0.29382  0.27313  1.0000
  H   H489      1.0  0.14583  0.31369  0.29478  1.0000
  H   H490      1.0  0.15702  0.29763  0.29048  1.0000
  H   H491      1.0  0.16878  0.30719  0.26606  1.0000
  H   H492      1.0  0.15904  0.32040  0.25422  1.0000
  H   H493      1.0  0.13437  0.32904  0.26060  1.0000
  H   H494      1.0  0.12356  0.31729  0.27217  1.0000
  H   H495      1.0  0.15784  0.30261  0.24536  1.0000
  H   H496      1.0  0.14541  0.29166  0.24898  1.0000
  H   H497      1.0  0.13880  0.31057  0.24792  1.0000
  H   H498      1.0  0.12416  0.30207  0.29665  1.0000
  H   H499      1.0  0.13765  0.28559  0.29694  1.0000
  H   H500      1.0  0.13448  0.29559  0.31030  1.0000
  H   H501      1.0  0.17298  0.32995  0.26480  1.0000
  H   H502      1.0  0.16187  0.32604  0.28214  1.0000
  H   H503      1.0  0.15473  0.33872  0.26718  1.0000
  H   H504      1.0  0.12176  0.32668  0.29306  1.0000
  H   H505      1.0  0.11795  0.34105  0.27830  1.0000
  H   H506      1.0  0.13466  0.33744  0.28320  1.0000
  H   H507      1.0  0.23479  0.25056  0.28017  1.0000
  H   H508      1.0  0.11388  0.26613  0.24970  1.0000
  H   H509      1.0  0.21292  0.19928  0.25879  1.0000
  S   S96       1.0  0.23313  0.38825  0.28991  1.0000
  H   H510      1.0  0.22402  0.18683  0.27763  1.0000
  H   H511      1.0  0.14773  0.12973  0.26936  1.0000
  H   H512      1.0  0.22810  0.14774  0.24670  1.0000
  C   C301      1.0  0.10600  0.18694  0.24865  1.0000
  H   H513      1.0  0.21953  0.19029  0.31618  1.0000
  H   H514      1.0  0.09407  0.30622  0.24101  1.0000
  H   H515      1.0  0.13165  0.12432  0.27133  1.0000
  C   C302      1.0  0.15030  0.11301  0.25872  1.0000
  C   C303      1.0  0.23147  0.37073  0.33209  1.0000
  H   H516      1.0  0.22713  0.35734  0.42154  1.0000
  S   S97       1.0  0.23150  0.42746  0.26716  1.0000
  C   C304      1.0  0.09491  0.18030  0.25726  1.0000
  C   C305      1.0  0.16583  0.38759  0.23933  1.0000
  C   C306      1.0  0.13370  0.15317  0.25734  1.0000
  H   H517      1.0  0.21847  0.43588  0.29796  1.0000
  H   H518      1.0  0.23277  0.23930  0.35331  1.0000
  H   H519      1.0  0.13597  0.12436  0.23243  1.0000
  C   C307      1.0  0.12259  0.15336  0.27170  1.0000
  C   C308      1.0  0.22942  0.12561  0.28803  1.0000
  C   C309      1.0  0.23239  0.15731  0.24536  1.0000
  C   C310      1.0  0.17094  0.39555  0.29106  1.0000
  C   C311      1.0  0.20640  0.42978  0.31946  1.0000
  C   C312      1.0  0.23362  0.35216  0.42942  1.0000
  H   H520      1.0  0.15464  0.06191  0.22933  1.0000
  H   H521      1.0  0.19121  0.37324  0.32532  1.0000
  H   H522      1.0  0.20772  0.42399  0.33046  1.0000
  H   H523      1.0  0.19659  0.18292  0.27725  1.0000
  H   H524      1.0  0.23523  0.25072  0.37202  1.0000
  H   H525      1.0  0.17927  0.40091  0.28333  1.0000
  H   H526      1.0  0.14351  0.15522  0.25891  1.0000
  H   H527      1.0  0.18480  0.16300  0.28224  1.0000
  C   C313      1.0  0.20042  0.18216  0.26577  1.0000
  H   H528      1.0  0.13156  0.28150  0.23817  1.0000
  H   H529      1.0  0.16118  0.11416  0.25245  1.0000
  H   H530      1.0  0.19445  0.31781  0.24772  1.0000
  H   H531      1.0  0.19933  0.42477  0.31642  1.0000
  H   H532      1.0  0.11415  0.27734  0.26076  1.0000
  H   H533      1.0  0.19105  0.14412  0.28411  1.0000
  H   H534      1.0  0.21719  0.35586  0.29214  1.0000
  C   C314      1.0  0.16766  0.40005  0.24212  1.0000
  H   H535      1.0  0.22212  0.32031  0.29071  1.0000
  H   H536      1.0  0.15995  0.41004  0.24000  1.0000
  C   C315      1.0  0.18532  0.31282  0.23291  1.0000
  C   C316      1.0  0.20078  0.37581  0.28866  1.0000
  H   H537      1.0  0.19099  0.18127  0.26242  1.0000
  H   H538      1.0  0.09971  0.28180  0.25181  1.0000
  H   H539      1.0  0.20480  0.38147  0.29443  1.0000
  H   H540      1.0  0.22253  0.45523  0.30461  1.0000
  H   H541      1.0  0.11955  0.14931  0.24079  1.0000
  C   C317      1.0  0.22706  0.46699  0.27520  1.0000
  H   H542      1.0  0.16294  0.40399  0.29613  1.0000
  N   N22       1.0  0.19677  0.21983  0.29920  1.0000
  C   C318      1.0  0.19939  0.23141  0.30464  1.0000
  C   C319      1.0  0.20518  0.22057  0.28389  1.0000
  C   C320      1.0  0.20155  0.20514  0.30808  1.0000
  C   C321      1.0  0.18097  0.22235  0.30017  1.0000
  C   C322      1.0  0.19363  0.23108  0.32083  1.0000
  C   C323      1.0  0.19904  0.23312  0.27253  1.0000
  H   H543      1.0  0.16849  0.08807  0.23438  1.0000
  C   C324      1.0  0.17621  0.21191  0.29438  1.0000
  H   H544      1.0  0.21098  0.23133  0.30222  1.0000
  H   H545      1.0  0.19440  0.24217  0.29897  1.0000
  H   H546      1.0  0.20658  0.21049  0.28039  1.0000
  H   H547      1.0  0.21631  0.22145  0.28294  1.0000
  H   H548      1.0  0.19483  0.20377  0.31918  1.0000
  H   H549      1.0  0.20001  0.19670  0.30362  1.0000
  H   H550      1.0  0.17499  0.22157  0.31153  1.0000
  H   H551      1.0  0.17660  0.23353  0.29489  1.0000
  H   H552      1.0  0.19656  0.23998  0.32332  1.0000
  H   H553      1.0  0.18181  0.23293  0.32387  1.0000
  H   H554      1.0  0.19847  0.22106  0.32769  1.0000
  H   H555      1.0  0.18902  0.23173  0.27081  1.0000
  H   H556      1.0  0.19704  0.24359  0.27539  1.0000
  H   H557      1.0  0.20688  0.23352  0.26206  1.0000
  H   H558      1.0  0.21404  0.14600  0.26868  1.0000
  H   H559      1.0  0.21995  0.20859  0.31401  1.0000
  C   C325      1.0  0.19521  0.31020  0.24144  1.0000
  H   H560      1.0  0.17290  0.20299  0.30326  1.0000
  H   H561      1.0  0.18454  0.20721  0.28599  1.0000
  H   H562      1.0  0.16701  0.21781  0.28929  1.0000
  C   C326      1.0  0.19786  0.36386  0.32090  1.0000
  N   N23       1.0  0.21234  0.16905  0.26419  1.0000
  H   H563      1.0  0.20071  0.44109  0.31944  1.0000
  C   C327      1.0  0.17163  0.17011  0.25367  1.0000
  H   H564      1.0  0.16537  0.39174  0.28508  1.0000
  H   H565      1.0  0.11774  0.13095  0.23238  1.0000
  H   H566      1.0  0.23171  0.45835  0.26955  1.0000
  H   H567      1.0  0.15904  0.14185  0.24235  1.0000
  H   H568      1.0  0.12280  0.11723  0.24739  1.0000
  C   C328      1.0  0.20746  0.28839  0.23305  1.0000
  C   C329      1.0  0.18488  0.05012  0.23546  1.0000
  H   H569      1.0  0.21796  0.44914  0.32346  1.0000
  S   S98       1.0  0.09021  0.15556  0.23360  1.0000
  C   C330      1.0  0.23047  0.17810  0.27207  1.0000
  C   C331      1.0  0.22022  0.31667  0.46910  1.0000
  C   C332      1.0  0.14968  0.14105  0.23885  1.0000
  H   H570      1.0  0.22027  0.32886  0.30477  1.0000
  H   H571      1.0  0.22454  0.33831  0.32775  1.0000
  N   N24       1.0  0.23246  0.43298  0.31222  1.0000
  H   H572      1.0  0.23486  0.33052  0.28885  1.0000
  S   S99       1.0  0.23266  0.33585  0.35619  1.0000
  C   C333      1.0  0.23592  0.47447  0.27772  1.0000
  C   C334      1.0  0.11154  0.18498  0.23449  1.0000
  C   C335      1.0  0.10609  0.17620  0.22920  1.0000
  H   H573      1.0  0.09514  0.28695  0.22891  1.0000
  H   H574      1.0  0.14569  0.16432  0.22909  1.0000
  H   H575      1.0  0.15334  0.10067  0.22887  1.0000
  C   C336      1.0  0.09532  0.30854  0.22920  1.0000
  C   C337      1.0  0.23690  0.40749  0.32903  1.0000
  H   H576      1.0  0.05466  0.09311  0.22813  1.0000
  C   C338      1.0  0.23731  0.30942  0.30425  1.0000
  H   H577      1.0  0.19035  0.27089  0.72669  1.0000
  Fe  Fe51      1.0  0.12400  0.03273  0.71429  1.0000
  S   S100      1.0  0.12978  0.00854  0.71590  1.0000
  Fe  Fe52      1.0  0.13163  0.06158  0.69865  1.0000
  H   H578      1.0  0.02417  0.08713  0.70877  1.0000
  S   S101      1.0  0.14299  0.07440  0.67835  1.0000
  H   H579      1.0  0.23371  0.35105  0.58265  1.0000
  H   H580      1.0  0.21678  0.30194  0.70942  1.0000
  S   S102      1.0  0.14225  0.04248  0.71334  1.0000
  S   S103      1.0  0.11445  0.05115  0.69812  1.0000
  Fe  Fe53      1.0  0.17281  0.16111  0.64235  1.0000
  S   S104      1.0  0.17814  0.13755  0.64310  1.0000
  S   S105      1.0  0.15398  0.17679  0.63531  1.0000
  H   H581      1.0  0.17082  0.98791  0.70942  1.0000
  H   H582      1.0  0.14692  0.21234  0.61839  1.0000
  S   S106      1.0  0.17323  0.11916  0.68556  1.0000
  C   C339      1.0  0.14970  0.22092  0.60876  1.0000
  S   S107      1.0  0.17327  0.15856  0.66534  1.0000
  H   H583      1.0  0.03886  0.12052  0.70175  1.0000
  C   C340      1.0  0.23367  0.30142  0.54664  1.0000
  C   C341      1.0  0.98846  0.14675  0.71815  1.0000
  C   C342      1.0  0.20439  0.22444  0.67470  1.0000
  H   H584      1.0  0.23715  0.29133  0.54325  1.0000
  C   C343      1.0  0.12613  0.11113  0.72620  1.0000
  H   H585      1.0  0.99179  0.15100  0.70675  1.0000
  C   C344      1.0  0.21674  0.12764  0.72350  1.0000
  C   C345      1.0  0.99685  0.14637  0.72761  1.0000
  H   H586      1.0  0.17274  0.21158  0.60784  1.0000
  Fe  Fe54      1.0  0.18781  0.27072  0.59991  1.0000
  S   S108      1.0  0.17662  0.29368  0.59338  1.0000
  S   S109      1.0  0.18632  0.25215  0.59229  1.0000
  Fe  Fe55      1.0  0.20070  0.27612  0.62110  1.0000
  S   S110      1.0  0.19062  0.29945  0.61687  1.0000
  S   S111      1.0  0.21409  0.26860  0.63751  1.0000
  Fe  Fe56      1.0  0.17100  0.29274  0.61706  1.0000
  S   S112      1.0  0.14998  0.30488  0.62755  1.0000
  Fe  Fe57      1.0  0.19718  0.29868  0.59362  1.0000
  S   S113      1.0  0.20590  0.31785  0.57970  1.0000
  S   S114      1.0  0.18042  0.26934  0.62367  1.0000
  S   S115      1.0  0.20902  0.27573  0.59785  1.0000
  Fe  Fe58      1.0  0.09908  0.25773  0.66184  1.0000
  S   S116      1.0  0.11357  0.25634  0.67593  1.0000
  S   S117      1.0  0.09618  0.27742  0.64438  1.0000
  Fe  Fe59      1.0  0.09349  0.22801  0.67646  1.0000
  S   S118      1.0  0.10743  0.22419  0.69198  1.0000
  S   S119      1.0  0.08520  0.20916  0.67643  1.0000
  Fe  Fe60      1.0  0.09706  0.24690  0.69361  1.0000
  S   S120      1.0  0.09186  0.25460  0.71391  1.0000
  Fe  Fe61      1.0  0.12253  0.23393  0.67292  1.0000
  S   S121      1.0  0.14609  0.22438  0.66906  1.0000
  S   S122      1.0  0.08160  0.25007  0.67980  1.0000
  S   S123      1.0  0.10942  0.23617  0.65705  1.0000
  C   C346      1.0  0.22683  0.17547  0.67419  1.0000
  H   H587      1.0  0.20974  0.29178  0.51159  1.0000
  H   H588      1.0  0.22578  0.38146  0.70637  1.0000
  H   H589      1.0  0.23643  0.38514  0.56374  1.0000
  C   C347      1.0  0.22897  0.32806  0.49035  1.0000
  C   C348      1.0  0.23508  0.16722  0.62849  1.0000
  C   C349      1.0  0.21810  0.31079  0.50992  1.0000
  H   H590      1.0  0.20727  0.31792  0.51154  1.0000
  Fe  Fe62      1.0  0.18520  0.36042  0.68108  1.0000
  S   S124      1.0  0.19783  0.33796  0.68570  1.0000
  S   S125      1.0  0.17065  0.36921  0.69983  1.0000
  Fe  Fe63      1.0  0.19793  0.36440  0.64875  1.0000
  S   S126      1.0  0.21099  0.34181  0.65094  1.0000
  S   S127      1.0  0.20009  0.37933  0.62683  1.0000
  Fe  Fe64      1.0  0.19136  0.33590  0.66667  1.0000
  S   S128      1.0  0.18016  0.31839  0.66921  1.0000
  Fe  Fe65      1.0  0.21594  0.34640  0.66972  1.0000
  H   H591      1.0  0.09720  0.15258  0.71637  1.0000
  S   S129      1.0  0.17773  0.35808  0.66276  1.0000
  S   S130      1.0  0.20387  0.36929  0.66680  1.0000
  H   H592      1.0  0.20864  0.34118  0.48467  1.0000
  H   H593      1.0  0.16953  0.25181  0.69334  1.0000
  H   H594      1.0  0.22335  0.23360  0.59790  1.0000
  H   H595      1.0  0.16876  0.22254  0.59086  1.0000
  S   S131      1.0  0.02908  0.19925  0.72316  1.0000
  H   H596      1.0  0.22591  0.21897  0.56893  1.0000
  C   C350      1.0  0.03183  0.12496  0.71101  1.0000
  H   H597      1.0  0.20337  0.24817  0.66590  1.0000
  H   H598      1.0  0.22933  0.16220  0.62381  1.0000
  H   H599      1.0  0.22126  0.40465  0.70792  1.0000
  H   H600      1.0  0.16491  0.20506  0.59757  1.0000
  C   C351      1.0  0.21337  0.26931  0.68412  1.0000
  H   H601      1.0  0.22936  0.16615  0.63997  1.0000
  H   H602      1.0  0.22967  0.25324  0.61183  1.0000
  H   H603      1.0  0.20401  0.26988  0.57106  1.0000
  H   H604      1.0  0.20240  0.22525  0.58529  1.0000
  C   C352      1.0  0.22113  0.23007  0.56936  1.0000
  H   H605      1.0  0.20898  0.28124  0.72271  1.0000
  H   H606      1.0  0.23249  0.17215  0.58851  1.0000
  C   C353      1.0  0.15852  0.35822  0.70972  1.0000
  C   C354      1.0  0.15979  0.34488  0.70673  1.0000
  C   C355      1.0  0.15032  0.33601  0.71507  1.0000
  H   H607      1.0  0.20042  0.36652  0.69907  1.0000
  H   H608      1.0  0.23408  0.18470  0.60928  1.0000
  H   H609      1.0  0.16795  0.34142  0.69792  1.0000
  H   H610      1.0  0.15127  0.32584  0.71259  1.0000
  H   H611      1.0  0.21449  0.30104  0.48802  1.0000
  H   H612      1.0  0.22386  0.35453  0.71695  1.0000
  H   H613      1.0  0.00651  0.15047  0.72352  1.0000
  C   C356      1.0  0.21615  0.38510  0.62290  1.0000
  C   C357      1.0  0.21888  0.39696  0.61174  1.0000
  H   H614      1.0  0.06824  0.98248  0.69289  1.0000
  H   H615      1.0  0.22280  0.28786  0.67700  1.0000
  C   C358      1.0  0.19616  0.12588  0.71444  1.0000
  H   H616      1.0  0.21097  0.40275  0.60541  1.0000
  C   C359      1.0  0.10798  0.25768  0.71473  1.0000
  C   C360      1.0  0.12095  0.24921  0.70900  1.0000
  C   C361      1.0  0.13390  0.25138  0.70994  1.0000
  C   C362      1.0  0.13388  0.26196  0.71673  1.0000
  H   H617      1.0  0.22309  0.23231  0.61653  1.0000
  H   H618      1.0  0.23085  0.14100  0.64058  1.0000
  H   H619      1.0  0.12101  0.24075  0.70409  1.0000
  H   H620      1.0  0.14388  0.24471  0.70563  1.0000
  C   C363      1.0  0.18890  0.20035  0.68997  1.0000
  C   C364      1.0  0.02916  0.09547  0.70967  1.0000
  C   C365      1.0  0.20549  0.28106  0.64826  1.0000
  C   C366      1.0  0.19076  0.28271  0.65371  1.0000
  C   C367      1.0  0.18318  0.29404  0.66044  1.0000
  C   C368      1.0  0.19022  0.30396  0.66141  1.0000
  C   C369      1.0  0.20498  0.30231  0.65607  1.0000
  C   C370      1.0  0.21266  0.29075  0.64957  1.0000
  H   H621      1.0  0.18512  0.27551  0.65231  1.0000
  H   H622      1.0  0.17176  0.29545  0.66441  1.0000
  H   H623      1.0  0.21043  0.31001  0.65677  1.0000
  H   H624      1.0  0.19942  0.19932  0.69231  1.0000
  C   C371      1.0  0.13555  0.29678  0.63075  1.0000
  C   C372      1.0  0.12206  0.30552  0.62977  1.0000
  C   C373      1.0  0.11009  0.29943  0.63350  1.0000
  C   C374      1.0  0.11150  0.28463  0.63866  1.0000
  C   C375      1.0  0.12502  0.27583  0.63967  1.0000
  C   C376      1.0  0.13709  0.28191  0.63554  1.0000
  H   H625      1.0  0.12082  0.31703  0.62617  1.0000
  H   H626      1.0  0.09966  0.30624  0.63275  1.0000
  H   H627      1.0  0.12611  0.26439  0.64372  1.0000
  H   H628      1.0  0.14746  0.27519  0.63664  1.0000
  C   C377      1.0  0.04440  0.20234  0.70991  1.0000
  C   C378      1.0  0.04852  0.21546  0.70670  1.0000
  C   C379      1.0  0.06116  0.21761  0.69654  1.0000
  C   C380      1.0  0.06938  0.20684  0.68924  1.0000
  C   C381      1.0  0.06504  0.19387  0.69226  1.0000
  C   C382      1.0  0.05277  0.19149  0.70281  1.0000
  H   H629      1.0  0.04208  0.22387  0.71218  1.0000
  H   H630      1.0  0.06440  0.22767  0.69420  1.0000
  H   H631      1.0  0.07116  0.18565  0.68642  1.0000
  H   H632      1.0  0.04960  0.18138  0.70518  1.0000
  C   C383      1.0  0.12093  0.27063  0.72213  1.0000
  C   C384      1.0  0.13294  0.23733  0.62296  1.0000
  H   H633      1.0  0.20985  0.29512  0.52832  1.0000
  C   C385      1.0  0.21875  0.31574  0.56379  1.0000
  C   C386      1.0  0.07475  0.11892  0.72172  1.0000
  C   C387      1.0  0.21789  0.07802  0.62188  1.0000
  C   C388      1.0  0.12016  0.23909  0.61628  1.0000
  C   C389      1.0  0.15181  0.19043  0.64411  1.0000
  C   C390      1.0  0.16381  0.19400  0.64569  1.0000
  C   C391      1.0  0.16215  0.20424  0.65361  1.0000
  C   C392      1.0  0.14849  0.21063  0.66024  1.0000
  C   C393      1.0  0.13657  0.20652  0.65917  1.0000
  C   C394      1.0  0.13817  0.19688  0.65063  1.0000
  H   H634      1.0  0.17440  0.18905  0.64065  1.0000
  H   H635      1.0  0.17143  0.20731  0.65432  1.0000
  H   H636      1.0  0.12611  0.21053  0.66513  1.0000
  H   H637      1.0  0.12889  0.19405  0.64952  1.0000
  H   H638      1.0  0.22075  0.33774  0.55852  1.0000
  C   C395      1.0  0.20900  0.36829  0.70312  1.0000
  H   H639      1.0  0.15980  0.24503  0.59302  1.0000
  C   C396      1.0  0.11888  0.99843  0.71343  1.0000
  H   H640      1.0  0.23727  0.39111  0.66473  1.0000
  C   C397      1.0  0.21597  0.29537  0.51705  1.0000
  C   C398      1.0  0.20686  0.09500  0.66274  1.0000
  C   C399      1.0  0.09910  0.99630  0.70488  1.0000
  C   C400      1.0  0.10695  0.00488  0.70733  1.0000
  H   H641      1.0  0.22457  0.36831  0.63936  1.0000
  C   C401      1.0  0.21770  0.38049  0.58027  1.0000
  H   H642      1.0  0.10393  0.01646  0.70425  1.0000
  H   H643      1.0  0.21738  0.39973  0.68724  1.0000
  H   H644      1.0  0.20998  0.34049  0.50280  1.0000
  C   C402      1.0  0.08679  0.09777  0.71188  1.0000
  H   H645      1.0  0.21307  0.25952  0.69283  1.0000
  H   H646      1.0  0.09509  0.09268  0.70408  1.0000
  H   H647      1.0  0.09326  0.11802  0.70422  1.0000
  C   C403      1.0  0.14972  0.08775  0.68110  1.0000
  C   C404      1.0  0.15351  0.08628  0.69407  1.0000
  C   C405      1.0  0.16038  0.09622  0.69548  1.0000
  C   C406      1.0  0.16335  0.10772  0.68401  1.0000
  C   C407      1.0  0.15890  0.10957  0.67131  1.0000
  C   C408      1.0  0.15224  0.09952  0.66981  1.0000
  H   H648      1.0  0.15164  0.07717  0.70278  1.0000
  H   H649      1.0  0.16375  0.09477  0.70534  1.0000
  H   H650      1.0  0.16080  0.11859  0.66256  1.0000
  H   H651      1.0  0.14918  0.10075  0.65982  1.0000
  H   H652      1.0  0.03811  0.13087  0.71404  1.0000
  H   H653      1.0  0.99402  0.09440  0.72425  1.0000
  H   H654      1.0  0.21178  0.21553  0.66978  1.0000
  H   H655      1.0  0.15605  0.98942  0.69375  1.0000
  H   H656      1.0  0.19842  0.06731  0.64465  1.0000
  H   H657      1.0  0.15444  0.26595  0.60093  1.0000
  H   H658      1.0  0.14248  0.22184  0.60164  1.0000
  H   H659      1.0  0.18848  0.24818  0.68813  1.0000
  H   H660      1.0  0.19443  0.20528  0.66712  1.0000
  H   H661      1.0  0.21602  0.36972  0.58117  1.0000
  N   N25       1.0  0.19967  0.08933  0.64209  1.0000
  H   H662      1.0  0.22014  0.14540  0.67001  1.0000
  H   H663      1.0  0.21515  0.34500  0.61686  1.0000
  H   H664      1.0  0.17510  0.23484  0.65865  1.0000
  H   H665      1.0  0.20250  0.25646  0.71952  1.0000
  S   S132      1.0  0.21772  0.12845  0.62092  1.0000
  H   H666      1.0  0.19139  0.13736  0.71031  1.0000
  H   H667      1.0  0.12085  0.27924  0.72672  1.0000
  H   H668      1.0  0.13996  0.26939  0.59217  1.0000
  H   H669      1.0  0.14641  0.37312  0.72313  1.0000
  H   H670      1.0  0.21660  0.11275  0.70364  1.0000
  H   H671      1.0  0.18844  0.18949  0.68936  1.0000
  C   C409      1.0  0.19794  0.09993  0.65110  1.0000
  H   H672      1.0  0.18013  0.20329  0.69905  1.0000
  H   H673      1.0  0.19270  0.21838  0.64508  1.0000
  H   H674      1.0  0.16604  0.24196  0.63495  1.0000
  C   C410      1.0  0.22341  0.30263  0.55949  1.0000
  H   H675      1.0  0.11977  0.24816  0.60678  1.0000
  C   C411      1.0  0.21530  0.35377  0.71226  1.0000
  C   C412      1.0  0.19024  0.10820  0.62103  1.0000
  C   C413      1.0  0.15641  0.24410  0.63052  1.0000
  C   C414      1.0  0.20682  0.12062  0.70133  1.0000
  C   C415      1.0  0.22439  0.32757  0.55527  1.0000
  S   S133      1.0  0.15010  0.26428  0.71826  1.0000
  N   N26       1.0  0.22564  0.31337  0.49423  1.0000
  H   H676      1.0  0.16199  0.35822  0.64115  1.0000
  H   H677      1.0  0.20473  0.31840  0.48900  1.0000
  H   H678      1.0  0.19476  0.23607  0.63585  1.0000
  N   N27       1.0  0.14748  0.23498  0.61306  1.0000
  N   N28       1.0  0.02016  0.10287  0.72160  1.0000
  H   H679      1.0  0.17974  0.22616  0.69584  1.0000
  C   C416      1.0  0.14868  0.24663  0.59954  1.0000
  S   S134      1.0  0.20465  0.17485  0.66364  1.0000
  N   N29       1.0  0.18932  0.22570  0.67343  1.0000
  H   H680      1.0  0.20345  0.40517  0.71893  1.0000
  H   H681      1.0  0.18377  0.06347  0.66908  1.0000
  C   C417      1.0  0.20181  0.24795  0.57936  1.0000
  H   H682      1.0  0.16740  0.23260  0.68434  1.0000
  H   H683      1.0  0.17759  0.09785  0.64028  1.0000
  S   S135      1.0  0.07888  0.07184  0.72244  1.0000
  Fe  Fe66      1.0  0.18052  0.13514  0.66552  1.0000
  H   H684      1.0  0.20682  0.06972  0.65705  1.0000
  H   H685      1.0  0.21902  0.29348  0.56599  1.0000
  S   S136      1.0  0.03439  0.15736  0.72587  1.0000
  C   C418      1.0  0.18368  0.07457  0.66261  1.0000
  H   H686      1.0  0.18723  0.12015  0.71754  1.0000
  H   H687      1.0  0.20747  0.22495  0.64621  1.0000
  H   H688      1.0  0.21193  0.38777  0.57197  1.0000
  C   C419      1.0  0.18834  0.09487  0.63330  1.0000
  H   H689      1.0  0.15482  0.25535  0.62450  1.0000
  S   S137      1.0  0.20370  0.13591  0.65882  1.0000
  C   C420      1.0  0.21447  0.08780  0.63260  1.0000
  H   H690      1.0  0.19322  0.36062  0.60860  1.0000
  H   H691      1.0  0.17919  0.39875  0.72576  1.0000
  H   H692      1.0  0.20476  0.10386  0.66834  1.0000
  S   S138      1.0  0.11856  0.07275  0.71630  1.0000
  H   H693      1.0  0.22396  0.31352  0.51650  1.0000
  C   C421      1.0  0.23359  0.38147  0.57564  1.0000
  H   H694      1.0  0.22851  0.07886  0.61468  1.0000
  H   H695      1.0  0.15457  0.98422  0.72008  1.0000
  N   N30       1.0  0.21284  0.28690  0.69949  1.0000
  C   C422      1.0  0.22190  0.29647  0.70032  1.0000
  C   C423      1.0  0.19905  0.29668  0.69622  1.0000
  H   H696      1.0  0.18363  0.37392  0.72011  1.0000
  C   C424      1.0  0.21075  0.27606  0.71356  1.0000
  Fe  Fe67      1.0  0.10212  0.06100  0.71704  1.0000
  C   C425      1.0  0.18968  0.30473  0.70799  1.0000
  C   C426      1.0  0.19832  0.26826  0.71695  1.0000
  H   H697      1.0  0.05174  0.98827  0.68654  1.0000
  H   H698      1.0  0.21867  0.39748  0.72663  1.0000
  H   H699      1.0  0.05009  0.08326  0.70130  1.0000
  H   H700      1.0  0.20132  0.30494  0.68619  1.0000
  C   C427      1.0  0.10798  0.26841  0.72128  1.0000
  H   H701      1.0  0.19963  0.10582  0.61226  1.0000
  H   H702      1.0  0.21967  0.35092  0.48762  1.0000
  C   C428      1.0  0.22638  0.37769  0.63103  1.0000
  H   H703      1.0  0.02972  0.10324  0.69910  1.0000
  H   H704      1.0  0.18723  0.29734  0.71851  1.0000
  H   H705      1.0  0.20981  0.12989  0.69279  1.0000
  H   H706      1.0  0.17939  0.31059  0.70484  1.0000
  H   H707      1.0  0.19214  0.29105  0.69383  1.0000
  C   C429      1.0  0.21989  0.16686  0.67075  1.0000
  H   H708      1.0  0.09000  0.00136  0.69998  1.0000
  N   N31       1.0  0.17948  0.34529  0.61827  1.0000
  C   C430      1.0  0.19236  0.35090  0.61746  1.0000
  C   C431      1.0  0.16687  0.35789  0.61810  1.0000
  C   C432      1.0  0.18235  0.33946  0.60500  1.0000
  C   C433      1.0  0.17764  0.33369  0.63179  1.0000
  H   H709      1.0  0.20083  0.11007  0.64420  1.0000
  C   C434      1.0  0.16326  0.36570  0.63050  1.0000
  C   C435      1.0  0.17004  0.33468  0.60242  1.0000
  C   C436      1.0  0.16272  0.33001  0.63785  1.0000
  H   H710      1.0  0.20691  0.32992  0.62342  1.0000
  C   C437      1.0  0.21581  0.38344  0.71471  1.0000
  H   H711      1.0  0.15696  0.35483  0.61832  1.0000
  H   H712      1.0  0.16868  0.36603  0.60784  1.0000
  H   H713      1.0  0.18580  0.34754  0.59517  1.0000
  H   H714      1.0  0.19134  0.32990  0.60512  1.0000
  H   H715      1.0  0.18553  0.32354  0.63032  1.0000
  H   H716      1.0  0.18012  0.33671  0.64068  1.0000
  H   H717      1.0  0.18069  0.11198  0.61621  1.0000
  H   H718      1.0  0.17139  0.37185  0.62939  1.0000
  H   H719      1.0  0.15296  0.37364  0.63021  1.0000
  C   C438      1.0  0.20779  0.23362  0.57851  1.0000
  H   H720      1.0  0.17372  0.33105  0.59211  1.0000
  H   H721      1.0  0.16047  0.34343  0.60133  1.0000
  H   H722      1.0  0.16725  0.32528  0.61075  1.0000
  H   H723      1.0  0.16413  0.31817  0.64148  1.0000
  H   H724      1.0  0.15549  0.33349  0.63032  1.0000
  H   H725      1.0  0.15726  0.33428  0.64767  1.0000
  N   N32       1.0  0.11392  0.16502  0.68924  1.0000
  C   C439      1.0  0.09853  0.16986  0.69661  1.0000
  C   C440      1.0  0.11581  0.17361  0.67395  1.0000
  C   C441      1.0  0.12326  0.16840  0.69696  1.0000
  C   C442      1.0  0.11667  0.14909  0.69020  1.0000
  C   C443      1.0  0.09469  0.16443  0.71308  1.0000
  C   C444      1.0  0.10653  0.17166  0.66484  1.0000
  C   C445      1.0  0.13872  0.16918  0.68883  1.0000
  C   C446      1.0  0.13109  0.14188  0.68169  1.0000
  H   H726      1.0  0.09540  0.18181  0.69453  1.0000
  H   H727      1.0  0.09117  0.16643  0.69227  1.0000
  H   H728      1.0  0.12700  0.17127  0.66786  1.0000
  H   H729      1.0  0.11343  0.18530  0.67382  1.0000
  H   H730      1.0  0.11845  0.17909  0.69982  1.0000
  H   H731      1.0  0.12393  0.16043  0.70729  1.0000
  H   H732      1.0  0.11610  0.14312  0.70155  1.0000
  H   H733      1.0  0.10799  0.14627  0.68720  1.0000
  H   H734      1.0  0.05094  0.09545  0.71098  1.0000
  H   H735      1.0  0.18659  0.10309  0.65660  1.0000
  H   H736      1.0  0.21010  0.08117  0.61490  1.0000
  H   H737      1.0  0.10815  0.16027  0.66445  1.0000
  H   H738      1.0  0.09504  0.17625  0.66863  1.0000
  H   H739      1.0  0.10967  0.17767  0.65362  1.0000
  H   H740      1.0  0.13906  0.17868  0.67974  1.0000
  H   H741      1.0  0.14470  0.15937  0.68493  1.0000
  H   H742      1.0  0.14458  0.17050  0.69622  1.0000
  H   H743      1.0  0.13919  0.13758  0.68844  1.0000
  H   H744      1.0  0.13553  0.14882  0.67155  1.0000
  H   H745      1.0  0.12956  0.13272  0.67835  1.0000
  H   H746      1.0  0.23605  0.23790  0.63220  1.0000
  C   C447      1.0  0.23479  0.16054  0.59133  1.0000
  H   H747      1.0  0.16938  0.23403  0.61331  1.0000
  H   H748      1.0  0.21849  0.09249  0.65813  1.0000
  H   H749      1.0  0.22721  0.26365  0.55429  1.0000
  C   C448      1.0  0.19789  0.07481  0.65137  1.0000
  H   H750      1.0  0.20376  0.08571  0.67113  1.0000
  H   H751      1.0  0.20212  0.40886  0.67969  1.0000
  H   H752      1.0  0.19252  0.27057  0.70830  1.0000
  C   C449      1.0  0.02739  0.11316  0.72412  1.0000
  C   C450      1.0  0.21440  0.39858  0.71708  1.0000
  C   C451      1.0  0.20696  0.34023  0.61539  1.0000
  H   H753      1.0  0.23538  0.33057  0.47927  1.0000
  H   H754      1.0  0.20999  0.39078  0.67838  1.0000
  C   C452      1.0  0.20739  0.39834  0.68556  1.0000
  H   H755      1.0  0.19121  0.11723  0.62489  1.0000
  H   H756      1.0  0.08296  0.16801  0.71688  1.0000
  S   S139      1.0  0.19518  0.16429  0.63360  1.0000
  H   H757      1.0  0.12010  0.22907  0.61346  1.0000
  H   H758      1.0  0.18198  0.08145  0.67026  1.0000
  H   H759      1.0  0.21045  0.33820  0.60436  1.0000
  H   H760      1.0  0.23369  0.41093  0.60068  1.0000
  H   H761      1.0  0.10348  0.11836  0.72702  1.0000
  H   H762      1.0  0.17442  0.07769  0.65744  1.0000
  H   H763      1.0  0.14740  0.24265  0.63991  1.0000
  C   C453      1.0  0.19706  0.39347  0.69979  1.0000
  H   H764      1.0  0.21864  0.06658  0.62747  1.0000
  H   H765      1.0  0.21662  0.09847  0.62638  1.0000
  H   H766      1.0  0.17598  0.21138  0.67443  1.0000
  C   C454      1.0  0.18694  0.21081  0.67553  1.0000
  H   H767      1.0  0.13244  0.22822  0.63252  1.0000
  C   C455      1.0  0.22181  0.25527  0.56105  1.0000
  H   H768      1.0  0.23113  0.25318  0.58748  1.0000
  N   N33       1.0  0.20353  0.38088  0.71037  1.0000
  H   H769      1.0  0.00199  0.09819  0.70514  1.0000
  C   C456      1.0  0.21103  0.23777  0.66757  1.0000
  H   H770      1.0  0.21803  0.37552  0.72469  1.0000
  H   H771      1.0  0.12876  0.11972  0.71664  1.0000
  H   H772      1.0  0.22628  0.28755  0.51771  1.0000
  C   C457      1.0  0.22818  0.24089  0.56075  1.0000
  C   C458      1.0  0.22542  0.15325  0.60259  1.0000
  C   C459      1.0  0.14756  0.36276  0.72088  1.0000
  C   C460      1.0  0.17844  0.23250  0.68496  1.0000
  C   C461      1.0  0.19600  0.22786  0.64590  1.0000
  H   H773      1.0  0.18807  0.39097  0.69696  1.0000
  H   H774      1.0  0.22024  0.34598  0.70518  1.0000
  H   H775      1.0  0.13071  0.24692  0.62749  1.0000
  H   H776      1.0  0.11009  0.24159  0.62433  1.0000
  N   N34       1.0  0.20203  0.12445  0.72738  1.0000
  C   C462      1.0  0.00642  0.11152  0.71720  1.0000
  H   H777      1.0  0.23588  0.32847  0.49724  1.0000
  H   H778      1.0  0.18740  0.24532  0.65662  1.0000
  H   H779      1.0  0.22272  0.08332  0.63916  1.0000
  C   C463      1.0  0.07715  0.09004  0.72188  1.0000
  H   H780      1.0  0.17753  0.25556  0.67473  1.0000
  C   C464      1.0  0.04461  0.08792  0.71088  1.0000
  H   H781      1.0  0.21763  0.37047  0.69351  1.0000
  H   H782      1.0  0.21264  0.38366  0.59074  1.0000
  N   N35       1.0  0.12929  0.29695  0.67783  1.0000
  C   C465      1.0  0.13400  0.28246  0.67388  1.0000
  C   C466      1.0  0.11355  0.29886  0.68474  1.0000
  C   C467      1.0  0.13778  0.29683  0.68835  1.0000
  C   C468      1.0  0.13230  0.30817  0.66429  1.0000
  C   C469      1.0  0.15017  0.27736  0.66811  1.0000
  C   C470      1.0  0.10361  0.29940  0.67504  1.0000
  C   C471      1.0  0.13101  0.30705  0.69881  1.0000
  C   C472      1.0  0.12742  0.32396  0.66559  1.0000
  H   H783      1.0  0.13068  0.27396  0.68335  1.0000
  H   H784      1.0  0.12876  0.28228  0.66543  1.0000
  H   H785      1.0  0.10933  0.30881  0.68892  1.0000
  H   H786      1.0  0.11174  0.29002  0.69438  1.0000
  H   H787      1.0  0.14001  0.28597  0.69538  1.0000
  H   H788      1.0  0.14848  0.29915  0.68260  1.0000
  H   H789      1.0  0.14398  0.30660  0.65963  1.0000
  H   H790      1.0  0.12794  0.30699  0.65564  1.0000
  H   H791      1.0  0.15213  0.26642  0.66617  1.0000
  H   H792      1.0  0.15411  0.28427  0.65765  1.0000
  H   H793      1.0  0.15656  0.27659  0.67592  1.0000
  H   H794      1.0  0.10439  0.30824  0.66535  1.0000
  H   H795      1.0  0.10550  0.28909  0.67183  1.0000
  H   H796      1.0  0.09236  0.30140  0.68118  1.0000
  H   H797      1.0  0.12758  0.31833  0.69335  1.0000
  H   H798      1.0  0.13904  0.30681  0.70474  1.0000
  H   H799      1.0  0.12185  0.30343  0.70703  1.0000
  H   H800      1.0  0.13559  0.32724  0.66891  1.0000
  H   H801      1.0  0.11694  0.32634  0.67296  1.0000
  H   H802      1.0  0.12588  0.33083  0.65495  1.0000
  C   C473      1.0  0.21798  0.14286  0.71461  1.0000
  Fe  Fe68      1.0  0.19618  0.15972  0.65672  1.0000
  H   H803      1.0  0.09989  0.16906  0.71871  1.0000
  H   H804      1.0  0.21593  0.15929  0.60837  1.0000
  C   C474      1.0  0.18642  0.23404  0.65891  1.0000
  H   H805      1.0  0.19457  0.31292  0.70921  1.0000
  Fe  Fe69      1.0  0.20082  0.14044  0.63626  1.0000
  H   H806      1.0  0.21851  0.23644  0.65717  1.0000
  H   H807      1.0  0.02249  0.13300  0.70768  1.0000
  C   C475      1.0  0.14475  0.26233  0.60124  1.0000
  C   C476      1.0  0.17873  0.24790  0.68502  1.0000
  H   H808      1.0  0.23278  0.36972  0.66000  1.0000
  H   H809      1.0  0.20507  0.22139  0.68622  1.0000
  H   H810      1.0  0.99974  0.11755  0.72554  1.0000
  H   H811      1.0  0.19129  0.35440  0.62748  1.0000
  C   C477      1.0  0.21582  0.31227  0.48564  1.0000
  H   H812      1.0  0.18744  0.08638  0.62849  1.0000
  H   H813      1.0  0.13665  0.26440  0.61101  1.0000
  C   C478      1.0  0.16496  0.21490  0.60079  1.0000
  C   C479      1.0  0.08566  0.11216  0.71187  1.0000
  H   H814      1.0  0.22947  0.14313  0.71034  1.0000
  H   H815      1.0  0.14236  0.24589  0.59223  1.0000
  H   H816      1.0  0.22254  0.18691  0.67286  1.0000
  C   C480      1.0  0.20873  0.25878  0.57055  1.0000
  H   H817      1.0  0.16061  0.22262  0.62820  1.0000
  C   C481      1.0  0.15893  0.23341  0.62096  1.0000
  H   H818      1.0  0.21774  0.23857  0.67445  1.0000
  H   H819      1.0  0.00844  0.11968  0.70705  1.0000
  H   H820      1.0  0.19210  0.40309  0.70436  1.0000
  C   C482      1.0  0.99694  0.10289  0.71473  1.0000
  H   H821      1.0  0.18240  0.98914  0.72444  1.0000
  H   H822      1.0  0.22486  0.12002  0.71754  1.0000
  C   C483      1.0  0.23461  0.32638  0.54246  1.0000
  H   H823      1.0  0.20984  0.02619  0.72443  1.0000
  H   H824      1.0  0.09798  0.27514  0.72551  1.0000
  H   H825      1.0  0.12745  0.10144  0.72209  1.0000
  H   H826      1.0  0.22069  0.26761  0.71427  1.0000
  S   S140      1.0  0.07428  0.13654  0.72226  1.0000
  H   H827      1.0  0.22399  0.28970  0.64498  1.0000
  H   H828      1.0  0.21991  0.26560  0.67424  1.0000
  H   H829      1.0  0.04507  0.07887  0.72033  1.0000
  C   C484      1.0  0.21591  0.34070  0.49153  1.0000
  C   C485      1.0  0.13932  0.34061  0.72618  1.0000
  C   C486      1.0  0.22546  0.15208  0.67254  1.0000
  C   C487      1.0  0.22062  0.27966  0.68713  1.0000
  H   H830      1.0  0.06866  0.98505  0.67442  1.0000
  H   H831      1.0  0.23120  0.27303  0.68885  1.0000
  H   H832      1.0  0.22776  0.21661  0.60941  1.0000
  C   C488      1.0  0.19200  0.37702  0.72334  1.0000
  H   H833      1.0  0.20137  0.11542  0.69648  1.0000
  H   H834      1.0  0.20848  0.09540  0.72190  1.0000
  H   H835      1.0  0.22295  0.30522  0.69042  1.0000
  C   C489      1.0  0.22880  0.22794  0.60685  1.0000
  H   H836      1.0  0.21350  0.15093  0.72140  1.0000
  C   C490      1.0  0.22833  0.13819  0.60618  1.0000
  C   C491      1.0  0.12265  0.98339  0.71735  1.0000
  H   H837      1.0  0.20690  0.34914  0.72076  1.0000
  C   C492      1.0  0.23171  0.40159  0.60905  1.0000
  H   H838      1.0  0.23405  0.39073  0.57959  1.0000
  H   H839      1.0  0.21281  0.14611  0.70532  1.0000
  H   H840      1.0  0.20127  0.04461  0.71975  1.0000
  H   H841      1.0  0.22012  0.18776  0.62459  1.0000
  H   H842      1.0  0.20259  0.27442  0.68197  1.0000
  H   H843      1.0  0.22970  0.36301  0.60158  1.0000
  H   H844      1.0  0.23393  0.36555  0.55712  1.0000
  H   H845      1.0  0.22359  0.09774  0.72745  1.0000
  C   C493      1.0  0.23173  0.18329  0.62114  1.0000
  C   C494      1.0  0.23716  0.28910  0.70251  1.0000
  H   H846      1.0  0.23723  0.28015  0.71211  1.0000
  H   H847      1.0  0.23708  0.29164  0.49260  1.0000
  S   S141      1.0  0.23755  0.33978  0.67511  1.0000
  H   H848      1.0  0.98758  0.18352  0.72353  1.0000
  H   H849      1.0  0.22730  0.24460  0.75216  1.0000
  H   H850      1.0  0.99616  0.17496  0.80616  1.0000
  H   H851      1.0  0.12810  0.99356  0.75135  1.0000
  Fe  Fe70      1.0  0.17638  0.08958  0.77380  1.0000
  H   H852      1.0  0.98949  0.14288  0.82183  1.0000
  S   S142      1.0  0.16444  0.09718  0.75590  1.0000
  H   H853      1.0  0.10458  0.99347  0.74707  1.0000
  C   C495      1.0  0.01109  0.21644  0.82570  1.0000
  H   H854      1.0  0.05211  0.18041  0.86268  1.0000
  S   S143      1.0  0.16907  0.08111  0.79753  1.0000
  H   H855      1.0  0.17025  0.14262  0.74675  1.0000
  H   H856      1.0  0.17559  0.31895  0.73393  1.0000
  Fe  Fe71      1.0  0.13767  0.30627  0.74237  1.0000
  S   S144      1.0  0.19571  0.07182  0.77100  1.0000
  C   C496      1.0  0.17443  0.05626  0.83479  1.0000
  Fe  Fe72      1.0  0.18942  0.06424  0.79486  1.0000
  S   S145      1.0  0.04105  0.15952  0.78494  1.0000
  H   H857      1.0  0.18826  0.02255  0.77522  1.0000
  H   H858      1.0  0.08958  0.98806  0.75996  1.0000
  H   H859      1.0  0.17548  0.38464  0.74064  1.0000
  H   H860      1.0  0.09602  0.21876  0.78402  1.0000
  H   H861      1.0  0.00055  0.21719  0.76426  1.0000
  Fe  Fe73      1.0  0.16528  0.28647  0.74828  1.0000
  Fe  Fe74      1.0  0.04416  0.21854  0.82919  1.0000
  S   S146      1.0  0.06304  0.20019  0.83244  1.0000
  Fe  Fe75      1.0  0.06330  0.23909  0.81169  1.0000
  S   S147      1.0  0.08337  0.22225  0.81306  1.0000
  S   S148      1.0  0.06520  0.26107  0.79843  1.0000
  Fe  Fe76      1.0  0.07163  0.20808  0.80897  1.0000
  S   S149      1.0  0.08164  0.19500  0.79199  1.0000
  Fe  Fe77      1.0  0.07301  0.21623  0.83640  1.0000
  S   S150      1.0  0.08731  0.20995  0.85265  1.0000
  S   S151      1.0  0.05240  0.22551  0.80550  1.0000
  S   S152      1.0  0.05331  0.23396  0.83524  1.0000
  H   H862      1.0  0.21278  0.20833  0.76494  1.0000
  H   H863      1.0  0.20248  0.05436  0.83013  1.0000
  H   H864      1.0  0.02915  0.21108  0.78551  1.0000
  C   C497      1.0  0.22605  0.15696  0.80574  1.0000
  S   S153      1.0  0.04201  0.13754  0.75686  1.0000
  H   H865      1.0  0.09022  0.00666  0.75499  1.0000
  Fe  Fe78      1.0  0.19403  0.16682  0.86644  1.0000
  S   S154      1.0  0.17390  0.18304  0.86263  1.0000
  C   C498      1.0  0.13861  0.27179  0.97292  1.0000
  S   S155      1.0  0.19291  0.14481  0.88031  1.0000
  H   H866      1.0  0.18969  0.19869  0.97098  1.0000
  N   N36       1.0  0.03130  0.21399  0.76260  1.0000
  H   H867      1.0  0.08516  0.25817  0.74596  1.0000
  H   H868      1.0  0.12568  0.09401  0.75447  1.0000
  H   H869      1.0  0.21004  0.06682  0.83385  1.0000
  Fe  Fe79      1.0  0.11469  0.24921  0.89941  1.0000
  S   S156      1.0  0.12969  0.26143  0.88237  1.0000
  S   S157      1.0  0.09577  0.24664  0.89218  1.0000
  Fe  Fe80      1.0  0.12836  0.25065  0.92366  1.0000
  S   S158      1.0  0.14407  0.26295  0.90799  1.0000
  S   S159      1.0  0.12944  0.24406  0.94745  1.0000
  Fe  Fe81      1.0  0.12576  0.27546  0.89774  1.0000
  S   S160      1.0  0.12092  0.29946  0.89090  1.0000
  Fe  Fe82      1.0  0.14660  0.24770  0.89412  1.0000
  S   S161      1.0  0.16875  0.24000  0.88185  1.0000
  S   S162      1.0  0.10960  0.26440  0.91433  1.0000
  S   S163      1.0  0.13211  0.23419  0.91034  1.0000
  Fe  Fe83      1.0  0.19193  0.29759  0.81770  1.0000
  S   S164      1.0  0.18040  0.32061  0.81444  1.0000
  S   S165      1.0  0.18204  0.28093  0.81536  1.0000
  Fe  Fe84      1.0  0.21628  0.30358  0.82575  1.0000
  S   S166      1.0  0.20696  0.32724  0.82329  1.0000
  C   C499      1.0  0.18920  0.03272  0.73887  1.0000
  Fe  Fe85      1.0  0.18641  0.32005  0.83471  1.0000
  S   S167      1.0  0.17002  0.33050  0.85145  1.0000
  Fe  Fe86      1.0  0.20184  0.32566  0.80323  1.0000
  S   S168      1.0  0.20421  0.33995  0.78099  1.0000
  S   S169      1.0  0.19625  0.29657  0.83892  1.0000
  S   S170      1.0  0.21285  0.30257  0.80474  1.0000
  H   H870      1.0  0.21799  0.25926  0.76111  1.0000
  C   C500      1.0  0.20199  0.00935  0.75126  1.0000
  S   S171      1.0  0.17494  0.10875  0.81649  1.0000
  H   H871      1.0  0.16751  0.09518  0.84921  1.0000
  H   H872      1.0  0.10607  0.03957  0.76650  1.0000
  S   S172      1.0  0.13209  0.05259  0.75198  1.0000
  H   H873      1.0  0.20654  0.28952  0.76466  1.0000
  H   H874      1.0  0.02285  0.20263  0.75212  1.0000
  H   H875      1.0  0.20554  0.10924  0.74707  1.0000
  C   C501      1.0  0.13320  0.25490  0.95692  1.0000
  H   H876      1.0  0.21524  0.20095  0.94292  1.0000
  H   H877      1.0  0.14527  0.07418  0.72987  1.0000
  H   H878      1.0  0.20487  0.00176  0.77369  1.0000
  C   C502      1.0  0.13583  0.27782  0.95909  1.0000
  C   C503      1.0  0.13314  0.26945  0.95114  1.0000
  C   C504      1.0  0.23046  0.10682  0.76030  1.0000
  C   C505      1.0  0.13585  0.24887  0.97080  1.0000
  H   H879      1.0  0.13553  0.28911  0.95461  1.0000
  H   H880      1.0  0.13064  0.27429  0.94070  1.0000
  C   C506      1.0  0.13474  0.30750  0.87943  1.0000
  C   C507      1.0  0.13249  0.32245  0.87637  1.0000
  C   C508      1.0  0.14336  0.32934  0.86763  1.0000
  C   C509      1.0  0.15648  0.32135  0.86162  1.0000
  C   C510      1.0  0.15868  0.30635  0.86436  1.0000
  C   C511      1.0  0.14784  0.29939  0.87343  1.0000
  H   H881      1.0  0.12237  0.32875  0.88099  1.0000
  H   H882      1.0  0.14162  0.34091  0.86557  1.0000
  H   H883      1.0  0.16883  0.30010  0.85984  1.0000
  H   H884      1.0  0.14962  0.28780  0.87579  1.0000
  H   H885      1.0  0.18574  0.13285  0.84800  1.0000
  H   H886      1.0  0.20262  0.18433  0.95416  1.0000
  Fe  Fe87      1.0  0.21035  0.13702  0.86242  1.0000
  C   C512      1.0  0.21530  0.35236  0.77576  1.0000
  H   H887      1.0  0.02238  0.19005  0.79181  1.0000
  C   C513      1.0  0.16446  0.21914  0.93739  1.0000
  H   H888      1.0  0.11637  0.08662  0.73973  1.0000
  C   C514      1.0  0.18069  0.03085  0.80222  1.0000
  C   C515      1.0  0.10814  0.23604  0.74886  1.0000
  C   C516      1.0  0.21747  0.36015  0.76149  1.0000
  H   H889      1.0  0.17534  0.00998  0.76923  1.0000
  C   C517      1.0  0.19304  0.21225  0.94151  1.0000
  H   H890      1.0  0.22419  0.27173  0.86177  1.0000
  H   H891      1.0  0.19559  0.21154  0.93003  1.0000
  C   C518      1.0  0.16821  0.03791  0.79722  1.0000
  H   H892      1.0  0.13098  0.10967  0.76391  1.0000
  H   H893      1.0  0.14239  0.01111  0.73989  1.0000
  C   C519      1.0  0.12332  0.00444  0.75365  1.0000
  H   H894      1.0  0.06949  0.25258  0.75828  1.0000
  H   H895      1.0  0.21158  0.23597  0.86208  1.0000
  C   C520      1.0  0.18127  0.12242  0.83377  1.0000
  H   H896      1.0  0.11739  0.01037  0.74505  1.0000
  C   C521      1.0  0.08713  0.22480  0.76020  1.0000
  S   S173      1.0  0.15280  0.00544  0.79404  1.0000
  C   C522      1.0  0.11300  0.22963  0.78033  1.0000
  C   C523      1.0  0.17255  0.19891  0.86784  1.0000
  C   C524      1.0  0.18477  0.20399  0.86624  1.0000
  C   C525      1.0  0.18351  0.21672  0.87042  1.0000
  C   C526      1.0  0.17007  0.22437  0.87623  1.0000
  C   C527      1.0  0.15782  0.21945  0.87756  1.0000
  C   C528      1.0  0.15907  0.20674  0.87332  1.0000
  H   H897      1.0  0.19516  0.19815  0.86169  1.0000
  H   H898      1.0  0.19296  0.22053  0.86940  1.0000
  H   H899      1.0  0.14739  0.22535  0.88198  1.0000
  H   H900      1.0  0.14963  0.20276  0.87465  1.0000
  H   H901      1.0  0.20377  0.04550  0.75601  1.0000
  C   C529      1.0  0.09027  0.22083  0.86264  1.0000
  C   C530      1.0  0.10091  0.21517  0.87076  1.0000
  C   C531      1.0  0.10315  0.22312  0.87941  1.0000
  C   C532      1.0  0.09454  0.23675  0.88028  1.0000
  C   C533      1.0  0.08390  0.24239  0.87217  1.0000
  C   C534      1.0  0.08190  0.23459  0.86325  1.0000
  H   H902      1.0  0.10735  0.20447  0.87051  1.0000
  H   H903      1.0  0.11122  0.21852  0.88575  1.0000
  H   H904      1.0  0.07709  0.25286  0.87287  1.0000
  H   H905      1.0  0.07363  0.23910  0.85714  1.0000
  S   S174      1.0  0.12858  0.26761  0.78860  1.0000
  C   C535      1.0  0.19746  0.28610  0.77249  1.0000
  C   C536      1.0  0.19626  0.28505  0.78712  1.0000
  C   C537      1.0  0.18440  0.28094  0.79725  1.0000
  C   C538      1.0  0.17399  0.27735  0.79281  1.0000
  C   C539      1.0  0.17517  0.27841  0.77819  1.0000
  H   H906      1.0  0.00548  0.19985  0.78786  1.0000
  H   H907      1.0  0.20456  0.28736  0.79052  1.0000
  H   H908      1.0  0.16477  0.27423  0.80059  1.0000
  H   H909      1.0  0.01535  0.08202  0.73305  1.0000
  C   C540      1.0  0.11051  0.26691  0.79189  1.0000
  C   C541      1.0  0.10458  0.25786  0.80438  1.0000
  C   C542      1.0  0.09050  0.25636  0.80668  1.0000
  C   C543      1.0  0.08223  0.26405  0.79656  1.0000
  C   C544      1.0  0.08787  0.27370  0.78448  1.0000
  C   C545      1.0  0.10202  0.27504  0.78210  1.0000
  H   H910      1.0  0.11091  0.25188  0.81219  1.0000
  H   H911      1.0  0.08602  0.24933  0.81632  1.0000
  H   H912      1.0  0.08142  0.27990  0.77678  1.0000
  H   H913      1.0  0.10628  0.28244  0.77272  1.0000
  C   C546      1.0  0.05259  0.16922  0.78668  1.0000
  N   N37       1.0  0.18980  0.02215  0.75308  1.0000
  C   C547      1.0  0.07415  0.17873  0.77814  1.0000
  C   C548      1.0  0.07043  0.18508  0.79003  1.0000
  C   C549      1.0  0.05778  0.18348  0.80022  1.0000
  C   C550      1.0  0.04904  0.17535  0.79868  1.0000
  S   S175      1.0  0.02205  0.21347  0.83806  1.0000
  H   H914      1.0  0.05082  0.20419  0.73803  1.0000
  H   H915      1.0  0.05485  0.18830  0.80945  1.0000
  H   H916      1.0  0.03944  0.17394  0.80679  1.0000
  H   H917      1.0  0.18203  0.04814  0.86022  1.0000
  C   C551      1.0  0.20122  0.06092  0.83797  1.0000
  H   H918      1.0  0.11279  0.11591  0.77262  1.0000
  C   C552      1.0  0.18674  0.28310  0.76801  1.0000
  N   N38       1.0  0.20412  0.23530  0.77489  1.0000
  C   C553      1.0  0.04466  0.20230  0.76153  1.0000
  C   C554      1.0  0.15958  0.02994  0.79516  1.0000
  H   H919      1.0  0.16697  0.33683  0.73604  1.0000
  Fe  Fe88      1.0  0.04059  0.15818  0.76279  1.0000
  C   C555      1.0  0.18641  0.11180  0.82562  1.0000
  C   C556      1.0  0.11562  0.10138  0.75844  1.0000
  H   H920      1.0  0.01117  0.16836  0.79350  1.0000
  H   H921      1.0  0.09587  0.99254  0.77957  1.0000
  H   H922      1.0  0.23230  0.13910  0.83027  1.0000
  H   H923      1.0  0.16820  0.23239  0.78467  1.0000
  H   H924      1.0  0.08398  0.17984  0.77028  1.0000
  C   C557      1.0  0.22162  0.11540  0.76977  1.0000
  C   C558      1.0  0.20737  0.21072  0.94549  1.0000
  H   H925      1.0  0.10392  0.03005  0.78468  1.0000
  C   C559      1.0  0.15661  0.08401  0.75447  1.0000
  C   C560      1.0  0.15435  0.08396  0.74116  1.0000
  H   H926      1.0  0.21359  0.11123  0.77854  1.0000
  H   H927      1.0  0.14888  0.09779  0.85083  1.0000
  C   C561      1.0  0.14444  0.06440  0.76573  1.0000
  C   C562      1.0  0.15189  0.07402  0.76670  1.0000
  H   H928      1.0  0.12831  0.22854  0.73485  1.0000
  C   C563      1.0  0.11980  0.11340  0.76239  1.0000
  H   H929      1.0  0.07614  0.13051  0.76289  1.0000
  H   H930      1.0  0.15357  0.07403  0.77701  1.0000
  H   H931      1.0  0.20899  0.26099  0.85450  1.0000
  H   H932      1.0  0.19465  0.25464  0.76116  1.0000
  N   N39       1.0  0.17349  0.06599  0.84449  1.0000
  C   C564      1.0  0.18684  0.07199  0.83937  1.0000
  C   C565      1.0  0.16095  0.07856  0.84310  1.0000
  H   H933      1.0  0.18322  0.17264  0.96905  1.0000
  C   C566      1.0  0.17305  0.05773  0.85979  1.0000
  H   H934      1.0  0.19786  0.24011  0.84575  1.0000
  C   C567      1.0  0.15867  0.08942  0.85244  1.0000
  H   H935      1.0  0.21924  0.21196  0.86079  1.0000
  C   C568      1.0  0.15950  0.05193  0.86792  1.0000
  H   H936      1.0  0.18685  0.07940  0.82866  1.0000
  H   H937      1.0  0.19447  0.99206  0.76901  1.0000
  H   H938      1.0  0.15071  0.07512  0.84569  1.0000
  H   H939      1.0  0.16199  0.08458  0.83169  1.0000
  H   H940      1.0  0.00287  0.22233  0.74519  1.0000
  C   C569      1.0  0.16032  0.05348  0.83378  1.0000
  H   H941      1.0  0.22763  0.18124  0.91835  1.0000
  H   H942      1.0  0.17509  0.06401  0.86643  1.0000
  S   S176      1.0  0.21099  0.14106  0.91286  1.0000
  H   H943      1.0  0.10421  0.07680  0.76492  1.0000
  H   H944      1.0  0.22811  0.11701  0.80332  1.0000
  C   C570      1.0  0.10538  0.09237  0.74397  1.0000
  C   C571      1.0  0.22878  0.26115  0.85875  1.0000
  C   C572      1.0  0.16215  0.02815  0.75823  1.0000
  H   H945      1.0  0.18710  0.22344  0.94178  1.0000
  H   H946      1.0  0.16046  0.04112  0.86612  1.0000
  H   H947      1.0  0.17555  0.17531  0.95367  1.0000
  C   C573      1.0  0.22083  0.21484  0.76287  1.0000
  H   H948      1.0  0.14952  0.05910  0.86525  1.0000
  H   H949      1.0  0.15811  0.05103  0.87962  1.0000
  H   H950      1.0  0.09958  0.09518  0.73513  1.0000
  H   H951      1.0  0.16707  0.27563  0.77485  1.0000
  Fe  Fe89      1.0  0.13723  0.27891  0.76596  1.0000
  C   C574      1.0  0.98806  0.16375  0.78781  1.0000
  S   S177      1.0  0.18798  0.10443  0.77687  1.0000
  H   H952      1.0  0.14327  0.00579  0.75828  1.0000
  H   H953      1.0  0.10323  0.23839  0.73947  1.0000
  C   C575      1.0  0.18450  0.01578  0.80505  1.0000
  C   C576      1.0  0.23130  0.36416  0.78052  1.0000
  H   H954      1.0  0.13236  0.02308  0.75114  1.0000
  C   C577      1.0  0.20863  0.10535  0.83384  1.0000
  H   H955      1.0  0.14042  0.05698  0.77531  1.0000
  H   H956      1.0  0.20560  0.03427  0.77335  1.0000
  H   H957      1.0  0.17876  0.22531  0.96461  1.0000
  C   C578      1.0  0.20415  0.24561  0.76049  1.0000
  H   H958      1.0  0.10398  0.00431  0.79758  1.0000
  C   C579      1.0  0.18983  0.12465  0.84176  1.0000
  C   C580      1.0  0.02609  0.08752  0.74620  1.0000
  C   C581      1.0  0.14711  0.07411  0.74013  1.0000
  C   C582      1.0  0.13596  0.01157  0.75092  1.0000
  H   H959      1.0  0.14985  0.03544  0.79145  1.0000
  Fe  Fe90      1.0  0.18283  0.09435  0.80038  1.0000
  C   C583      1.0  0.06516  0.17095  0.77637  1.0000
  H   H960      1.0  0.10031  0.20260  0.76224  1.0000
  H   H961      1.0  0.04734  0.18921  0.91354  1.0000
  S   S178      1.0  0.14652  0.29803  0.76224  1.0000
  C   C584      1.0  0.02275  0.21139  0.77781  1.0000
  H   H962      1.0  0.21641  0.20826  0.82217  1.0000
  H   H963      1.0  0.01992  0.23382  0.81089  1.0000
  C   C585      1.0  0.20065  0.24945  0.83723  1.0000
  C   C586      1.0  0.20024  0.10343  0.82550  1.0000
  H   H964      1.0  0.05029  0.20113  0.77015  1.0000
  H   H965      1.0  0.16514  0.04951  0.79505  1.0000
  H   H966      1.0  0.08483  0.20575  0.75533  1.0000
  H   H967      1.0  0.99211  0.13717  0.78499  1.0000
  S   S179      1.0  0.23608  0.15223  0.75512  1.0000
  C   C587      1.0  0.16355  0.01490  0.79765  1.0000
  N   N40       1.0  0.13854  0.22575  0.83399  1.0000
  C   C588      1.0  0.12358  0.22466  0.83455  1.0000
  C   C589      1.0  0.13838  0.22895  0.84804  1.0000
  C   C590      1.0  0.14818  0.21122  0.83290  1.0000
  C   C591      1.0  0.14294  0.23727  0.82112  1.0000
  C   C592      1.0  0.12144  0.22039  0.82160  1.0000
  C   C593      1.0  0.12750  0.24253  0.85182  1.0000
  C   C594      1.0  0.16421  0.20979  0.83161  1.0000
  C   C595      1.0  0.15430  0.24477  0.82186  1.0000
  H   H968      1.0  0.11979  0.21674  0.84434  1.0000
  H   H969      1.0  0.11586  0.23506  0.83536  1.0000
  H   H970      1.0  0.14903  0.23002  0.84843  1.0000
  H   H971      1.0  0.13590  0.21981  0.85714  1.0000
  H   H972      1.0  0.14457  0.20285  0.84238  1.0000
  H   H973      1.0  0.14767  0.20787  0.82331  1.0000
  H   H974      1.0  0.14696  0.23289  0.81121  1.0000
  H   H975      1.0  0.13355  0.24609  0.81897  1.0000
  H   H976      1.0  0.12617  0.22675  0.81114  1.0000
  H   H977      1.0  0.12562  0.20874  0.82200  1.0000
  H   H978      1.0  0.10979  0.22242  0.82219  1.0000
  H   H979      1.0  0.13005  0.24530  0.86078  1.0000
  H   H980      1.0  0.12749  0.25189  0.84267  1.0000
  H   H981      1.0  0.11652  0.24061  0.85564  1.0000
  H   H982      1.0  0.16958  0.19824  0.83286  1.0000
  H   H983      1.0  0.16644  0.21356  0.84009  1.0000
  H   H984      1.0  0.16928  0.21522  0.82077  1.0000
  H   H985      1.0  0.15021  0.25160  0.82987  1.0000
  H   H986      1.0  0.15719  0.25202  0.81127  1.0000
  H   H987      1.0  0.16426  0.23731  0.82423  1.0000
  N   N41       1.0  0.17042  0.33381  0.76348  1.0000
  C   C596      1.0  0.18032  0.34415  0.75727  1.0000
  C   C597      1.0  0.17538  0.32240  0.75476  1.0000
  C   C598      1.0  0.17223  0.32680  0.77865  1.0000
  C   C599      1.0  0.15528  0.34209  0.76316  1.0000
  C   C600      1.0  0.17647  0.35743  0.76397  1.0000
  H   H988      1.0  0.22070  0.26932  0.83942  1.0000
  C   C601      1.0  0.16279  0.31608  0.78749  1.0000
  C   C602      1.0  0.14445  0.33370  0.76301  1.0000
  H   H989      1.0  0.19153  0.33849  0.75796  1.0000
  H   H990      1.0  0.07567  0.26678  0.76056  1.0000
  H   H991      1.0  0.16854  0.31443  0.75871  1.0000
  H   H992      1.0  0.18625  0.31602  0.75600  1.0000
  H   H993      1.0  0.18358  0.32107  0.77862  1.0000
  H   H994      1.0  0.16995  0.33487  0.78523  1.0000
  H   H995      1.0  0.15075  0.34742  0.77243  1.0000
  H   H996      1.0  0.15508  0.35092  0.75334  1.0000
  H   H997      1.0  0.18485  0.36377  0.75887  1.0000
  H   H998      1.0  0.16615  0.36457  0.76204  1.0000
  H   H999      1.0  0.17625  0.35470  0.77561  1.0000
  H   H1000     1.0  0.03287  0.18106  0.91581  1.0000
  C   C603      1.0  0.00733  0.22228  0.75429  1.0000
  C   C604      1.0  0.23376  0.37164  0.76612  1.0000
  H   H1001     1.0  0.16692  0.31000  0.79725  1.0000
  H   H1002     1.0  0.16286  0.30799  0.78175  1.0000
  H   H1003     1.0  0.15171  0.32179  0.79135  1.0000
  H   H1004     1.0  0.14738  0.32952  0.75312  1.0000
  H   H1005     1.0  0.13381  0.34109  0.76301  1.0000
  H   H1006     1.0  0.14304  0.32473  0.77236  1.0000
  H   H1007     1.0  0.19676  0.13493  0.74528  1.0000
  C   C605      1.0  0.19978  0.23564  0.80180  1.0000
  H   H1008     1.0  0.03991  0.23157  0.74729  1.0000
  C   C606      1.0  0.07930  0.25628  0.75733  1.0000
  H   H1009     1.0  0.12075  0.02666  0.77231  1.0000
  C   C607      1.0  0.01217  0.22727  0.81320  1.0000
  S   S180      1.0  0.19177  0.04049  0.80499  1.0000
  H   H1010     1.0  0.23246  0.27767  0.81369  1.0000
  C   C608      1.0  0.10908  0.02885  0.77350  1.0000
  C   C609      1.0  0.09707  0.26863  0.97409  1.0000
  H   H1011     1.0  0.01425  0.14592  0.78672  1.0000
  S   S181      1.0  0.23524  0.22325  0.79964  1.0000
  H   H1012     1.0  0.12873  0.00442  0.77965  1.0000
  N   N42       1.0  0.12786  0.29828  0.83870  1.0000
  C   C610      1.0  0.11176  0.30079  0.84330  1.0000
  C   C611      1.0  0.13191  0.29707  0.82319  1.0000
  C   C612      1.0  0.13220  0.31119  0.84003  1.0000
  C   C613      1.0  0.13398  0.28486  0.84866  1.0000
  C   C614      1.0  0.10521  0.30358  0.85860  1.0000
  C   C615      1.0  0.12794  0.28445  0.82013  1.0000
  C   C616      1.0  0.14700  0.31377  0.83131  1.0000
  C   C617      1.0  0.15008  0.27828  0.84460  1.0000
  H   H1013     1.0  0.10666  0.31007  0.83570  1.0000
  H   H1014     1.0  0.10790  0.29139  0.84305  1.0000
  H   H1015     1.0  0.14354  0.29608  0.81868  1.0000
  H   H1016     1.0  0.12684  0.30713  0.81639  1.0000
  H   H1017     1.0  0.12444  0.32127  0.83661  1.0000
  H   H1018     1.0  0.13189  0.31072  0.85142  1.0000
  H   H1019     1.0  0.13220  0.28695  0.85953  1.0000
  H   H1020     1.0  0.12812  0.27620  0.85064  1.0000
  H   H1021     1.0  0.10855  0.29416  0.86703  1.0000
  H   H1022     1.0  0.10770  0.31322  0.86006  1.0000
  H   H1023     1.0  0.09339  0.30552  0.86057  1.0000
  H   H1024     1.0  0.11624  0.28601  0.82144  1.0000
  H   H1025     1.0  0.13281  0.28379  0.80874  1.0000
  H   H1026     1.0  0.13215  0.27406  0.82688  1.0000
  H   H1027     1.0  0.15572  0.30422  0.83301  1.0000
  H   H1028     1.0  0.14944  0.32242  0.83472  1.0000
  H   H1029     1.0  0.14712  0.31761  0.81967  1.0000
  H   H1030     1.0  0.15644  0.28307  0.84881  1.0000
  H   H1031     1.0  0.15428  0.27895  0.83298  1.0000
  H   H1032     1.0  0.15200  0.26658  0.84944  1.0000
  N   N43       1.0  0.16263  0.29956  0.91053  1.0000
  C   C618      1.0  0.16063  0.31361  0.89961  1.0000
  C   C619      1.0  0.14812  0.29590  0.91656  1.0000
  C   C620      1.0  0.17233  0.28822  0.90268  1.0000
  C   C621      1.0  0.16915  0.30137  0.92178  1.0000
  C   C622      1.0  0.17434  0.31858  0.89036  1.0000
  C   C623      1.0  0.13647  0.30712  0.92383  1.0000
  C   C624      1.0  0.17605  0.27295  0.91182  1.0000
  C   C625      1.0  0.16703  0.29085  0.93665  1.0000
  H   H1033     1.0  0.15447  0.31315  0.89208  1.0000
  H   H1034     1.0  0.15415  0.32256  0.90491  1.0000
  H   H1035     1.0  0.14854  0.28555  0.92442  1.0000
  H   H1036     1.0  0.14398  0.29433  0.90789  1.0000
  H   H1037     1.0  0.16764  0.28752  0.89399  1.0000
  H   H1038     1.0  0.18285  0.29104  0.89726  1.0000
  H   H1039     1.0  0.18084  0.30070  0.91765  1.0000
  H   H1040     1.0  0.16466  0.31233  0.92401  1.0000
  H   H1041     1.0  0.17981  0.31226  0.88197  1.0000
  H   H1042     1.0  0.17135  0.32987  0.88444  1.0000
  H   H1043     1.0  0.18184  0.31828  0.89689  1.0000
  H   H1044     1.0  0.13268  0.31666  0.91573  1.0000
  H   H1045     1.0  0.12704  0.30238  0.92969  1.0000
  H   H1046     1.0  0.14011  0.31051  0.93170  1.0000
  H   H1047     1.0  0.18217  0.26558  0.90452  1.0000
  H   H1048     1.0  0.16653  0.26863  0.91814  1.0000
  H   H1049     1.0  0.18306  0.27242  0.91896  1.0000
  H   H1050     1.0  0.17709  0.28776  0.94060  1.0000
  H   H1051     1.0  0.16432  0.28073  0.93694  1.0000
  H   H1052     1.0  0.15887  0.29628  0.94476  1.0000
  N   N44       1.0  0.11327  0.00348  0.76824  1.0000
  C   C626      1.0  0.10438  0.99288  0.76956  1.0000
  C   C627      1.0  0.10329  0.01780  0.76961  1.0000
  C   C628      1.0  0.09681  0.99563  0.75710  1.0000
  C   C629      1.0  0.22478  0.17099  0.92354  1.0000
  C   C630      1.0  0.12162  0.99751  0.77994  1.0000
  H   H1053     1.0  0.21535  0.13394  0.94162  1.0000
  H   H1054     1.0  0.09933  0.02307  0.75959  1.0000
  H   H1055     1.0  0.09348  0.01621  0.77805  1.0000
  C   C631      1.0  0.22262  0.23374  0.85541  1.0000
  H   H1056     1.0  0.10799  0.98528  0.79781  1.0000
  H   H1057     1.0  0.13404  0.10925  0.73282  1.0000
  H   H1058     1.0  0.23234  0.16794  0.81874  1.0000
  C   C632      1.0  0.20433  0.03436  0.76254  1.0000
  H   H1059     1.0  0.17920  0.99623  0.80462  1.0000
  N   N45       1.0  0.05012  0.19882  0.88231  1.0000
  C   C633      1.0  0.04369  0.20724  0.86954  1.0000
  C   C634      1.0  0.06117  0.18611  0.87779  1.0000
  C   C635      1.0  0.05710  0.20855  0.88619  1.0000
  C   C636      1.0  0.03819  0.19428  0.89449  1.0000
  C   C637      1.0  0.03302  0.22157  0.87138  1.0000
  C   C638      1.0  0.05571  0.17553  0.87293  1.0000
  C   C639      1.0  0.07024  0.20146  0.89301  1.0000
  C   C640      1.0  0.04260  0.18400  0.90806  1.0000
  H   H1060     1.0  0.05232  0.20976  0.85997  1.0000
  H   H1061     1.0  0.03779  0.20092  0.86654  1.0000
  H   H1062     1.0  0.06671  0.17960  0.88653  1.0000
  H   H1063     1.0  0.06976  0.18988  0.86875  1.0000
  H   H1064     1.0  0.06107  0.21643  0.87644  1.0000
  H   H1065     1.0  0.04920  0.21519  0.89347  1.0000
  H   H1066     1.0  0.03063  0.20377  0.89817  1.0000
  H   H1067     1.0  0.03171  0.18911  0.89078  1.0000
  H   H1068     1.0  0.02935  0.22675  0.86117  1.0000
  H   H1069     1.0  0.02329  0.21993  0.87980  1.0000
  H   H1070     1.0  0.03794  0.22925  0.87356  1.0000
  H   H1071     1.0  0.02073  0.14934  0.81275  1.0000
  H   H1072     1.0  0.06470  0.16631  0.87081  1.0000
  H   H1073     1.0  0.04713  0.17109  0.88129  1.0000
  H   H1074     1.0  0.06835  0.19280  0.90261  1.0000
  H   H1075     1.0  0.07337  0.20977  0.89631  1.0000
  H   H1076     1.0  0.07960  0.19715  0.88508  1.0000
  H   H1077     1.0  0.04990  0.17383  0.90583  1.0000
  H   H1078     1.0  0.99976  0.19991  0.83835  1.0000
  H   H1079     1.0  0.17058  0.12894  0.83395  1.0000
  C   C641      1.0  0.99292  0.14023  0.74224  1.0000
  C   C642      1.0  0.20355  0.99756  0.76501  1.0000
  H   H1080     1.0  0.21600  0.25993  0.74366  1.0000
  H   H1081     1.0  0.15396  0.21933  0.93544  1.0000
  H   H1082     1.0  0.19184  0.21956  0.78841  1.0000
  C   C643      1.0  0.17222  0.21709  0.96964  1.0000
  H   H1083     1.0  0.17509  0.24460  0.78969  1.0000
  C   C644      1.0  0.20342  0.24351  0.78586  1.0000
  H   H1084     1.0  0.06806  0.16612  0.76716  1.0000
  C   C645      1.0  0.09065  0.11203  0.75535  1.0000
  C   C646      1.0  0.11074  0.11605  0.73450  1.0000
  C   C647      1.0  0.19305  0.18674  0.94951  1.0000
  H   H1085     1.0  0.21774  0.16952  0.90534  1.0000
  C   C648      1.0  0.19143  0.22847  0.77872  1.0000
  H   H1086     1.0  0.18181  0.03917  0.76489  1.0000
  S   S182      1.0  0.01995  0.16892  0.75590  1.0000
  H   H1087     1.0  0.05646  0.11644  0.73912  1.0000
  C   C649      1.0  0.14198  0.06446  0.75249  1.0000
  C   C650      1.0  0.21612  0.15078  0.92244  1.0000
  C   C651      1.0  0.17608  0.00782  0.80258  1.0000
  C   C652      1.0  0.22722  0.12697  0.80684  1.0000
  C   C653      1.0  0.05550  0.20402  0.74700  1.0000
  H   H1088     1.0  0.00371  0.23861  0.79440  1.0000
  H   H1089     1.0  0.03917  0.22980  0.77913  1.0000
  H   H1090     1.0  0.17316  0.19730  0.93656  1.0000
  H   H1091     1.0  0.99105  0.20588  0.73497  1.0000
  C   C654      1.0  0.18430  0.38857  0.73217  1.0000
  H   H1092     1.0  0.99377  0.18488  0.78074  1.0000
  C   C655      1.0  0.21782  0.14438  0.93658  1.0000
  H   H1093     1.0  0.19412  0.01024  0.80897  1.0000
  H   H1094     1.0  0.22056  0.12618  0.73344  1.0000
  C   C656      1.0  0.20351  0.11600  0.84195  1.0000
  C   C657      1.0  0.22666  0.36974  0.75670  1.0000
  C   C658      1.0  0.98862  0.19501  0.73857  1.0000
  Fe  Fe91      1.0  0.02239  0.14911  0.74806  1.0000
  H   H1095     1.0  0.18845  0.23958  0.80683  1.0000
  H   H1096     1.0  0.21374  0.24673  0.78407  1.0000
  H   H1097     1.0  0.05883  0.09083  0.73949  1.0000
  H   H1098     1.0  0.01577  0.16627  0.81748  1.0000
  C   C659      1.0  0.22688  0.16438  0.93752  1.0000
  S   S183      1.0  0.21022  0.15886  0.84803  1.0000
  H   H1099     1.0  0.21643  0.13596  0.77542  1.0000
  H   H1100     1.0  0.18057  0.34870  0.74565  1.0000
  C   C660      1.0  0.17663  0.23872  0.78123  1.0000
  S   S184      1.0  0.21004  0.17042  0.87642  1.0000
  H   H1101     1.0  0.19532  0.25371  0.78454  1.0000
  H   H1102     1.0  0.08151  0.24303  0.77821  1.0000
  C   C661      1.0  0.09852  0.08104  0.75597  1.0000
  C   C662      1.0  0.01139  0.15796  0.81563  1.0000
  Fe  Fe92      1.0  0.14694  0.27737  0.73446  1.0000
  C   C663      1.0  0.22334  0.12937  0.76808  1.0000
  C   C664      1.0  0.21223  0.09696  0.73076  1.0000
  C   C665      1.0  0.18007  0.20235  0.96624  1.0000
  H   H1103     1.0  0.20604  0.21085  0.95691  1.0000
  H   H1104     1.0  0.05494  0.22278  0.76663  1.0000
  H   H1105     1.0  0.16287  0.04499  0.82758  1.0000
  H   H1106     1.0  0.07882  0.22266  0.77022  1.0000
  C   C666      1.0  0.21923  0.16434  0.91611  1.0000
  H   H1107     1.0  0.01881  0.19136  0.77479  1.0000
  H   H1108     1.0  0.20444  0.09533  0.81916  1.0000
  C   C667      1.0  0.03481  0.22859  0.75890  1.0000
  H   H1109     1.0  0.22043  0.34856  0.79638  1.0000
  H   H1110     1.0  0.11981  0.12338  0.75401  1.0000
  H   H1111     1.0  0.12010  0.22117  0.78672  1.0000
  H   H1112     1.0  0.11969  0.23618  0.77156  1.0000
  Fe  Fe93      1.0  0.22618  0.16022  0.85934  1.0000
  H   H1113     1.0  0.02487  0.23704  0.76048  1.0000
  C   C668      1.0  0.20236  0.10969  0.73702  1.0000
  H   H1114     1.0  0.21178  0.08701  0.73932  1.0000
  H   H1115     1.0  0.15405  0.06318  0.82772  1.0000
  S   S185      1.0  0.15684  0.26665  0.75345  1.0000
  H   H1116     1.0  0.20239  0.22380  0.80361  1.0000
  H   H1117     1.0  0.17163  0.13221  0.73416  1.0000
  C   C669      1.0  0.06487  0.11131  0.73147  1.0000
  N   N46       1.0  0.09739  0.23211  0.76260  1.0000
  H   H1118     1.0  0.21217  0.35863  0.75407  1.0000
  S   S186      1.0  0.20265  0.07679  0.79953  1.0000
  C   C670      1.0  0.17617  0.01663  0.75811  1.0000
  H   H1119     1.0  0.11139  0.21261  0.77173  1.0000
  H   H1120     1.0  0.99502  0.16137  0.77746  1.0000
  H   H1121     1.0  0.08131  0.23181  0.75181  1.0000
  Fe  Fe94      1.0  0.20686  0.08602  0.77583  1.0000
  C   C671      1.0  0.18550  0.17416  0.95720  1.0000
  C   C672      1.0  0.04450  0.23051  0.76763  1.0000
  C   C673      1.0  0.08868  0.24567  0.76745  1.0000
  Fe  Fe95      1.0  0.21022  0.14788  0.88908  1.0000
  H   H1122     1.0  0.21921  0.09863  0.83390  1.0000
  H   H1123     1.0  0.23130  0.20719  0.76320  1.0000
  C   C674      1.0  0.22968  0.19014  0.83342  1.0000
  C   C675      1.0  0.10429  0.22259  0.77468  1.0000
  H   H1124     1.0  0.08770  0.10565  0.76648  1.0000
  S   S187      1.0  0.00362  0.13847  0.75436  1.0000
  H   H1125     1.0  0.09574  0.25191  0.76878  1.0000
  H   H1126     1.0  0.09386  0.27520  0.96398  1.0000
  H   H1127     1.0  0.21521  0.17584  0.81461  1.0000
  H   H1128     1.0  0.22807  0.37584  0.74577  1.0000
  C   C676      1.0  0.17675  0.13313  0.74235  1.0000
  H   H1129     1.0  0.08288  0.11139  0.74950  1.0000
  C   C677      1.0  0.21757  0.22367  0.77441  1.0000
  H   H1130     1.0  0.15364  0.04967  0.84434  1.0000
  C   C678      1.0  0.17092  0.20373  0.94485  1.0000
  S   S188      1.0  0.21447  0.11787  0.85234  1.0000
  C   C679      1.0  0.09366  0.21062  0.75513  1.0000
  C   C680      1.0  0.01713  0.19737  0.78317  1.0000
  C   C681      1.0  0.00292  0.23001  0.80389  1.0000
  H   H1131     1.0  0.17604  0.00943  0.75134  1.0000
  C   C682      1.0  0.00326  0.16489  0.80338  1.0000
  C   C683      1.0  0.22215  0.35445  0.78532  1.0000
  S   S189      1.0  0.18741  0.28578  0.74972  1.0000
  H   H1132     1.0  0.21728  0.21581  0.78489  1.0000
  H   H1133     1.0  0.19156  0.39047  0.73780  1.0000
  S   S190      1.0  0.12644  0.28819  0.74730  1.0000
  H   H1134     1.0  0.13583  0.23764  0.97544  1.0000
  H   H1135     1.0  0.04679  0.24142  0.76344  1.0000
  H   H1136     1.0  0.16252  0.22723  0.94382  1.0000
  H   H1137     1.0  0.10580  0.23659  0.78762  1.0000
  H   H1138     1.0  0.01135  0.13630  0.80489  1.0000
  C   C684      1.0  0.00069  0.20829  0.82869  1.0000
  C   C685      1.0  0.12229  0.22490  0.74593  1.0000
  H   H1139     1.0  0.22179  0.22161  0.75184  1.0000
  H   H1140     1.0  0.99915  0.18735  0.73801  1.0000
  H   H1141     1.0  0.16219  0.19971  0.95351  1.0000
  H   H1142     1.0  0.18150  0.04558  0.83787  1.0000
  H   H1143     1.0  0.11017  0.12669  0.73635  1.0000
  C   C686      1.0  0.13786  0.35408  0.72893  1.0000
  C   C687      1.0  0.19051  0.02939  0.76429  1.0000
  H   H1144     1.0  0.09933  0.07174  0.75139  1.0000
  H   H1145     1.0  0.20605  0.23846  0.80786  1.0000
  H   H1146     1.0  0.22074  0.18650  0.84127  1.0000
  S   S191      1.0  0.05419  0.16714  0.74195  1.0000
  H   H1147     1.0  0.06465  0.19462  0.74744  1.0000
  C   C688      1.0  0.99938  0.13192  0.79250  1.0000
  H   H1148     1.0  0.15297  0.02293  0.76354  1.0000
  H   H1149     1.0  0.19547  0.25953  0.84105  1.0000
  C   C689      1.0  0.21719  0.25261  0.75418  1.0000
  S   S192      1.0  0.22761  0.13784  0.87256  1.0000
  H   H1150     1.0  0.08734  0.13529  0.74580  1.0000
  C   C690      1.0  0.22554  0.21887  0.85194  1.0000
  C   C691      1.0  0.00573  0.14265  0.79616  1.0000
  H   H1151     1.0  0.21961  0.16034  0.79732  1.0000
  H   H1152     1.0  0.17475  0.24652  0.77120  1.0000
  C   C692      1.0  0.22724  0.20245  0.82258  1.0000
  H   H1153     1.0  0.00550  0.09620  0.74177  1.0000
  H   H1154     1.0  0.17951  0.06078  0.82352  1.0000
  H   H1155     1.0  0.09428  0.13009  0.76199  1.0000
  H   H1156     1.0  0.12070  0.21414  0.74664  1.0000
  H   H1157     1.0  0.19158  0.10716  0.74041  1.0000
  Fe  Fe96      1.0  0.05390  0.14745  0.73521  1.0000
  H   H1158     1.0  0.00438  0.15390  0.82592  1.0000
  H   H1159     1.0  0.12903  0.98717  0.77828  1.0000
  C   C693      1.0  0.02298  0.21379  0.75211  1.0000
  H   H1160     1.0  0.09806  0.25722  0.97406  1.0000
  H   H1161     1.0  0.12926  0.22400  0.75323  1.0000
  C   C694      1.0  0.21696  0.24789  0.83170  1.0000
  Fe  Fe97      1.0  0.03366  0.17620  0.73448  1.0000
  N   N47       1.0  0.18412  0.20157  0.95061  1.0000
  C   C695      1.0  0.99162  0.21082  0.81916  1.0000
  H   H1162     1.0  0.21245  0.01246  0.74689  1.0000
  H   H1163     1.0  0.16076  0.03374  0.74720  1.0000
  H   H1164     1.0  0.22944  0.23231  0.86307  1.0000
  H   H1165     1.0  0.22470  0.14593  0.95486  1.0000
  H   H1166     1.0  0.19158  0.22337  0.77001  1.0000
  H   H1167     1.0  0.09976  0.21254  0.74383  1.0000
  C   C696      1.0  0.08721  0.12786  0.75648  1.0000
  H   H1168     1.0  0.20283  0.05386  0.84847  1.0000
  H   H1169     1.0  0.01350  0.22053  0.77932  1.0000
  H   H1170     1.0  0.17133  0.22255  0.92670  1.0000
  H   H1171     1.0  0.22190  0.21924  0.84231  1.0000
  C   C697      1.0  0.22309  0.15117  0.94413  1.0000
  H   H1172     1.0  0.16128  0.03610  0.76447  1.0000
  H   H1173     1.0  0.21217  0.21997  0.93897  1.0000
  H   H1174     1.0  0.19582  0.25005  0.82822  1.0000
  H   H1175     1.0  0.16168  0.22077  0.96670  1.0000
  N   N48       1.0  0.99511  0.15573  0.80037  1.0000
  S   S193      1.0  0.12740  0.32969  0.73691  1.0000
  H   H1176     1.0  0.19721  0.18602  0.93802  1.0000
  H   H1177     1.0  0.21625  0.13342  0.80637  1.0000
  H   H1178     1.0  0.08697  0.08512  0.76006  1.0000
  H   H1179     1.0  0.22065  0.23880  0.82619  1.0000
  H   H1180     1.0  0.00639  0.23362  0.75442  1.0000
  H   H1181     1.0  0.11096  0.09474  0.76882  1.0000
  S   S194      1.0  0.22800  0.08961  0.76175  1.0000
  H   H1182     1.0  0.15708  0.08432  0.86405  1.0000
  H   H1183     1.0  0.11129  0.24614  0.74830  1.0000
  H   H1184     1.0  0.17299  0.19485  0.97263  1.0000
  H   H1185     1.0  0.22709  0.22816  0.77281  1.0000
  C   C698      1.0  0.17601  0.32783  0.73847  1.0000
  H   H1186     1.0  0.20315  0.24042  0.75234  1.0000
  H   H1187     1.0  0.04196  0.19169  0.76345  1.0000
  H   H1188     1.0  0.21419  0.02722  0.75803  1.0000
  N   N49       1.0  0.10571  0.10575  0.74820  1.0000
  H   H1189     1.0  0.18725  0.07855  0.84662  1.0000
  H   H1190     1.0  0.18619  0.33123  0.73277  1.0000
  C   C699      1.0  0.22632  0.17057  0.81016  1.0000
  H   H1191     1.0  0.21005  0.03886  0.73436  1.0000
  H   H1192     1.0  0.00822  0.12418  0.78722  1.0000
  H   H1193     1.0  0.21878  0.25747  0.82292  1.0000
  C   C700      1.0  0.22032  0.25974  0.84851  1.0000
  H   H1194     1.0  0.05992  0.21371  0.74457  1.0000
  H   H1195     1.0  0.21953  0.15085  0.81514  1.0000
  Fe  Fe98      1.0  0.12751  0.05284  0.73098  1.0000
  C   C701      1.0  0.99266  0.22177  0.80673  1.0000
  H   H1196     1.0  0.19278  0.16408  0.95458  1.0000
  H   H1197     1.0  0.18225  0.04331  0.74058  1.0000
  C   C702      1.0  0.23392  0.13479  0.75693  1.0000
  H   H1198     1.0  0.12926  0.35776  0.73739  1.0000
  C   C703      1.0  0.11258  0.99487  0.79542  1.0000
  H   H1199     1.0  0.23582  0.13800  0.78594  1.0000
  C   C704      1.0  0.20352  0.03563  0.72899  1.0000
  Fe  Fe99      1.0  0.23266  0.17072  0.96973  1.0000
  S   S195      1.0  0.11010  0.04177  0.73312  1.0000
  H   H1200     1.0  0.18413  0.02900  0.73226  1.0000
  H   H1201     1.0  0.02828  0.21821  0.74090  1.0000
  H   H1202     1.0  0.10769  0.27018  0.97384  1.0000
  H   H1203     1.0  0.19642  0.36754  0.73113  1.0000
  H   H1204     1.0  0.02035  0.11861  0.73281  1.0000
  H   H1205     1.0  0.22849  0.12368  0.81807  1.0000
  H   H1206     1.0  0.99358  0.12561  0.80236  1.0000
  H   H1207     1.0  0.03741  0.08357  0.74138  1.0000
  H   H1208     1.0  0.20088  0.00417  0.74311  1.0000
  S   S196      1.0  0.23545  0.17239  0.94568  1.0000
  H   H1209     1.0  0.23071  0.17857  0.80092  1.0000
  H   H1210     1.0  0.17616  0.12371  0.75148  1.0000
  N   N50       1.0  0.22532  0.24612  0.84288  1.0000
  H   H1211     1.0  0.22790  0.25282  0.86885  1.0000
  C   C705      1.0  0.01626  0.09202  0.73540  1.0000
  C   C706      1.0  0.19226  0.13511  0.73609  1.0000
  H   H1212     1.0  0.15808  0.09164  0.73167  1.0000
  H   H1213     1.0  0.02519  0.09650  0.75124  1.0000
  H   H1214     1.0  0.21328  0.98914  0.76248  1.0000
  H   H1215     1.0  0.11959  0.99270  0.80308  1.0000
  H   H1216     1.0  0.02262  0.07865  0.75502  1.0000
  C   C707      1.0  0.06616  0.09684  0.73162  1.0000
  H   H1217     1.0  0.23526  0.32351  0.78353  1.0000
  H   H1218     1.0  0.23668  0.36566  0.78789  1.0000
  H   H1219     1.0  0.19136  0.14625  0.72948  1.0000
  H   H1220     1.0  0.23703  0.33282  0.75846  1.0000
  S   S197      1.0  0.23673  0.18997  0.97440  1.0000
  H   H1221     1.0  0.23704  0.21353  0.85078  1.0000
  H   H1222     1.0  0.03729  0.10742  0.72801  1.0000
  S   S198      1.0  0.23736  0.29317  0.83181  1.0000
  S   S199      1.0  0.15726  0.29617  0.72809  1.0000
  Fe  Fe100     1.0  0.04698  0.85216  0.13537  1.0000
  S   S200      1.0  0.06814  0.85023  0.11963  1.0000
  Fe  Fe101     1.0  0.06023  0.83267  0.16006  1.0000
  S   S201      1.0  0.08218  0.82843  0.14611  1.0000
  S   S202      1.0  0.05320  0.82300  0.18348  1.0000
  Fe  Fe102     1.0  0.07740  0.85223  0.13712  1.0000
  S   S203      1.0  0.09554  0.86403  0.13163  1.0000
  Fe  Fe103     1.0  0.07113  0.82681  0.12996  1.0000
  S   S204      1.0  0.07966  0.81064  0.11585  1.0000
  S   S205      1.0  0.05580  0.85663  0.15194  1.0000
  S   S206      1.0  0.04968  0.82866  0.14491  1.0000
  Fe  Fe104     1.0  0.04853  0.78694  0.04500  1.0000
  S   S207      1.0  0.04474  0.76562  0.04498  1.0000
  S   S208      1.0  0.05851  0.80250  0.02629  1.0000
  Fe  Fe105     1.0  0.03823  0.78359  0.07722  1.0000
  S   S209      1.0  0.03372  0.76207  0.07994  1.0000
  S   S210      1.0  0.03243  0.79342  0.09658  1.0000
  Fe  Fe106     1.0  0.05453  0.75781  0.06436  1.0000
  S   S211      1.0  0.07052  0.73702  0.06851  1.0000
  Fe  Fe107     1.0  0.02397  0.77177  0.06052  1.0000
  S   S212      1.0  0.00261  0.76554  0.06453  1.0000
  S   S213      1.0  0.05990  0.77861  0.06312  1.0000
  S   S214      1.0  0.02700  0.79382  0.05902  1.0000
  Fe  Fe108     1.0  0.14552  0.70413  0.13355  1.0000
  S   S215      1.0  0.12176  0.70940  0.14050  1.0000
  S   S216      1.0  0.15871  0.70939  0.14527  1.0000
  Fe  Fe109     1.0  0.14531  0.69157  0.10956  1.0000
  S   S217      1.0  0.12147  0.69560  0.11413  1.0000
  S   S218      1.0  0.15972  0.68323  0.09067  1.0000
  Fe  Fe110     1.0  0.12215  0.71695  0.11699  1.0000
  S   S219      1.0  0.10744  0.73797  0.11029  1.0000
  Fe  Fe111     1.0  0.12309  0.68765  0.13724  1.0000
  S   S220      1.0  0.10736  0.67525  0.15280  1.0000
  S   S221      1.0  0.14593  0.71372  0.11035  1.0000
  S   S222      1.0  0.14704  0.68156  0.13240  1.0000
  Fe  Fe112     1.0  0.12743  0.90459  0.17018  1.0000
  S   S223      1.0  0.14923  0.89045  0.16980  1.0000
  S   S224      1.0  0.10869  0.89414  0.17387  1.0000
  Fe  Fe113     1.0  0.15059  0.90114  0.18630  1.0000
  S   S225      1.0  0.15912  0.88877  0.20602  1.0000
  C   C708      1.0  0.13607  0.93463  0.21085  1.0000
  C   C709      1.0  0.00490  0.83325  0.13442  1.0000
  S   S226      1.0  0.18333  0.84640  0.01051  1.0000
  Fe  Fe114     1.0  0.16521  0.64325  0.22120  1.0000
  S   S227      1.0  0.21248  0.83951  0.19033  1.0000
  C   C710      1.0  0.00178  0.77433  0.10779  1.0000
  S   S228      1.0  0.18912  0.88674  0.99367  1.0000
  C   C711      1.0  0.99925  0.86317  0.12810  1.0000
  H   H1223     1.0  0.17467  0.72927  0.11748  1.0000
  C   C712      1.0  0.14998  0.74476  0.16090  1.0000
  S   S229      1.0  0.22614  0.93253  0.07774  1.0000
  C   C713      1.0  0.13260  0.83510  0.19403  1.0000
  S   S230      1.0  0.12818  0.91412  0.18801  1.0000
  C   C714      1.0  0.21967  0.73322  0.21466  1.0000
  H   H1224     1.0  0.22207  0.82971  0.01680  1.0000
  H   H1225     1.0  0.23339  0.80332  0.16328  1.0000
  H   H1226     1.0  0.02250  0.85074  0.15884  1.0000
  H   H1227     1.0  0.15820  0.73403  0.98863  1.0000
  S   S231      1.0  0.12234  0.77651  0.99770  1.0000
  Fe  Fe115     1.0  0.14758  0.62819  0.21249  1.0000
  S   S232      1.0  0.23277  0.68751  0.16204  1.0000
  H   H1228     1.0  0.09593  0.92417  0.15821  1.0000
  H   H1229     1.0  0.18220  0.66346  0.15729  1.0000
  Fe  Fe116     1.0  0.18317  0.74527  0.04985  1.0000
  S   S233      1.0  0.20344  0.73697  0.03526  1.0000
  S   S234      1.0  0.16183  0.74306  0.04874  1.0000
  C   C715      1.0  0.23707  0.70107  0.06958  1.0000
  H   H1230     1.0  0.99635  0.82341  0.16347  1.0000
  S   S235      1.0  0.18808  0.76659  0.04700  1.0000
  H   H1231     1.0  0.00719  0.82164  0.13682  1.0000
  C   C716      1.0  0.17625  0.79139  0.20162  1.0000
  C   C717      1.0  0.18937  0.77520  0.99106  1.0000
  C   C718      1.0  0.19619  0.77373  0.00216  1.0000
  C   C719      1.0  0.21113  0.77034  0.99964  1.0000
  H   H1232     1.0  0.18744  0.80586  0.99283  1.0000
  H   H1233     1.0  0.04134  0.82024  0.05481  1.0000
  H   H1234     1.0  0.17790  0.77825  0.99296  1.0000
  H   H1235     1.0  0.18993  0.77563  0.01252  1.0000
  H   H1236     1.0  0.11450  0.75924  0.12895  1.0000
  H   H1237     1.0  0.18325  0.88659  0.07413  1.0000
  C   C720      1.0  0.16782  0.83239  0.00214  1.0000
  C   C721      1.0  0.16082  0.83033  0.99259  1.0000
  H   H1238     1.0  0.16829  0.82480  0.01228  1.0000
  H   H1239     1.0  0.15589  0.82122  0.99544  1.0000
  C   C722      1.0  0.14144  0.75198  0.13886  1.0000
  H   H1240     1.0  0.13696  0.76034  0.13069  1.0000
  S   S236      1.0  0.02643  0.86460  0.12811  1.0000
  C   C723      1.0  0.18565  0.94459  0.10287  1.0000
  H   H1241     1.0  0.23074  0.76530  0.98427  1.0000
  S   S237      1.0  0.16154  0.79921  0.19359  1.0000
  C   C724      1.0  0.15986  0.84029  0.97959  1.0000
  C   C725      1.0  0.23346  0.78191  0.04502  1.0000
  C   C726      1.0  0.06615  0.81066  0.19237  1.0000
  Fe  Fe117     1.0  0.19698  0.86300  0.00117  1.0000
  H   H1242     1.0  0.16285  0.95227  0.10557  1.0000
  H   H1243     1.0  0.15828  0.70023  0.18339  1.0000
  H   H1244     1.0  0.21516  0.73802  0.12760  1.0000
  C   C727      1.0  0.12889  0.67356  0.19861  1.0000
  C   C728      1.0  0.19664  0.93370  0.10774  1.0000
  C   C729      1.0  0.19347  0.92151  0.11806  1.0000
  H   H1245     1.0  0.20761  0.93459  0.10352  1.0000
  H   H1246     1.0  0.20205  0.91286  0.12126  1.0000
  C   C730      1.0  0.17452  0.87556  0.20180  1.0000
  C   C731      1.0  0.17987  0.87401  0.18761  1.0000
  C   C732      1.0  0.19147  0.86287  0.18431  1.0000
  C   C733      1.0  0.19797  0.85327  0.19513  1.0000
  C   C734      1.0  0.19281  0.85487  0.20935  1.0000
  H   H1247     1.0  0.16299  0.94329  0.20493  1.0000
  H   H1248     1.0  0.17504  0.88138  0.17914  1.0000
  H   H1249     1.0  0.19532  0.86159  0.17332  1.0000
  S   S238      1.0  0.19937  0.61612  0.18562  1.0000
  H   H1250     1.0  0.18695  0.74620  0.99835  1.0000
  C   C735      1.0  0.15989  0.69865  0.07683  1.0000
  C   C736      1.0  0.14728  0.70915  0.07595  1.0000
  C   C737      1.0  0.14768  0.72252  0.06647  1.0000
  C   C738      1.0  0.16079  0.72555  0.05829  1.0000
  C   C739      1.0  0.17331  0.71486  0.05870  1.0000
  C   C740      1.0  0.17282  0.70132  0.06781  1.0000
  H   H1251     1.0  0.13726  0.70709  0.08290  1.0000
  H   H1252     1.0  0.13799  0.73071  0.06613  1.0000
  H   H1253     1.0  0.18346  0.71712  0.05233  1.0000
  H   H1254     1.0  0.18259  0.69327  0.06843  1.0000
  C   C741      1.0  0.20162  0.63161  0.17231  1.0000
  C   C742      1.0  0.21531  0.63435  0.16645  1.0000
  H   H1255     1.0  0.07778  0.78589  0.13957  1.0000
  S   S239      1.0  0.20652  0.67615  0.14658  1.0000
  C   C743      1.0  0.12768  0.65807  0.16821  1.0000
  C   C744      1.0  0.11317  0.66290  0.16773  1.0000
  H   H1256     1.0  0.03313  0.80365  0.17602  1.0000
  H   H1257     1.0  0.13571  0.66174  0.15912  1.0000
  H   H1258     1.0  0.11315  0.67937  0.21796  1.0000
  C   C745      1.0  0.18509  0.97533  0.11940  1.0000
  Fe  Fe118     1.0  0.15700  0.90916  0.15402  1.0000
  C   C746      1.0  0.17881  0.73895  0.11111  1.0000
  H   H1259     1.0  0.18112  0.70321  0.21821  1.0000
  C   C747      1.0  0.08626  0.79087  0.20733  1.0000
  N   N51       1.0  0.22427  0.73660  0.19850  1.0000
  C   C748      1.0  0.15488  0.95883  0.17764  1.0000
  C   C749      1.0  0.98763  0.71311  0.02919  1.0000
  C   C750      1.0  0.07609  0.79521  0.01799  1.0000
  C   C751      1.0  0.08449  0.80426  0.00783  1.0000
  C   C752      1.0  0.09866  0.79863  0.00136  1.0000
  C   C753      1.0  0.10445  0.78392  0.00499  1.0000
  C   C754      1.0  0.09601  0.77486  0.01504  1.0000
  C   C755      1.0  0.08189  0.78048  0.02157  1.0000
  H   H1260     1.0  0.08004  0.81565  0.00500  1.0000
  H   H1261     1.0  0.10510  0.80569  0.99363  1.0000
  H   H1262     1.0  0.10040  0.76345  0.01782  1.0000
  H   H1263     1.0  0.07548  0.77341  0.02934  1.0000
  C   C756      1.0  0.08103  0.73756  0.07976  1.0000
  C   C757      1.0  0.07701  0.74842  0.08745  1.0000
  C   C758      1.0  0.08541  0.74869  0.09653  1.0000
  C   C759      1.0  0.09766  0.73790  0.09820  1.0000
  C   C760      1.0  0.10172  0.72706  0.09050  1.0000
  C   C761      1.0  0.09342  0.72690  0.08126  1.0000
  H   H1264     1.0  0.06726  0.75644  0.08667  1.0000
  H   H1265     1.0  0.08220  0.75707  0.10253  1.0000
  H   H1266     1.0  0.11135  0.71891  0.09151  1.0000
  H   H1267     1.0  0.09663  0.71856  0.07524  1.0000
  C   C762      1.0  0.09981  0.87128  0.14391  1.0000
  C   C763      1.0  0.09193  0.87044  0.15805  1.0000
  C   C764      1.0  0.09512  0.87709  0.16724  1.0000
  C   C765      1.0  0.10632  0.88447  0.16246  1.0000
  C   C766      1.0  0.11456  0.88483  0.14849  1.0000
  C   C767      1.0  0.11124  0.87835  0.13923  1.0000
  H   H1268     1.0  0.08315  0.86497  0.16181  1.0000
  H   H1269     1.0  0.08870  0.87673  0.17805  1.0000
  H   H1270     1.0  0.12318  0.89051  0.14466  1.0000
  H   H1271     1.0  0.11741  0.87903  0.12830  1.0000
  C   C768      1.0  0.06668  0.80517  0.11087  1.0000
  C   C769      1.0  0.07056  0.79881  0.09897  1.0000
  C   C770      1.0  0.06025  0.79468  0.09470  1.0000
  C   C771      1.0  0.04603  0.79688  0.10235  1.0000
  C   C772      1.0  0.04227  0.80283  0.11447  1.0000
  C   C773      1.0  0.05255  0.80697  0.11868  1.0000
  H   H1272     1.0  0.08150  0.79727  0.09292  1.0000
  H   H1273     1.0  0.06328  0.79005  0.08538  1.0000
  H   H1274     1.0  0.03131  0.80449  0.12048  1.0000
  H   H1275     1.0  0.04946  0.81150  0.12800  1.0000
  C   C774      1.0  0.15202  0.72699  0.14762  1.0000
  C   C775      1.0  0.14537  0.73764  0.13748  1.0000
  Fe  Fe119     1.0  0.13783  0.93108  0.17076  1.0000
  H   H1276     1.0  0.14382  0.73494  0.12828  1.0000
  H   H1277     1.0  0.17068  0.75043  0.12784  1.0000
  H   H1278     1.0  0.00125  0.77935  0.08528  1.0000
  C   C776      1.0  0.08020  0.80617  0.18503  1.0000
  H   H1279     1.0  0.08333  0.81032  0.17366  1.0000
  H   H1280     1.0  0.15978  0.72247  0.16694  1.0000
  N   N52       1.0  0.12995  0.82715  0.14680  1.0000
  C   C777      1.0  0.11456  0.82795  0.15482  1.0000
  C   C778      1.0  0.13041  0.82835  0.13119  1.0000
  C   C779      1.0  0.13438  0.83994  0.14820  1.0000
  C   C780      1.0  0.13898  0.81321  0.15336  1.0000
  C   C781      1.0  0.11119  0.82899  0.17070  1.0000
  C   C782      1.0  0.12395  0.81730  0.12822  1.0000
  C   C783      1.0  0.14972  0.84162  0.14066  1.0000
  C   C784      1.0  0.15293  0.80680  0.14357  1.0000
  H   H1281     1.0  0.10742  0.83734  0.14933  1.0000
  H   H1282     1.0  0.11089  0.81833  0.15491  1.0000
  H   H1283     1.0  0.14148  0.82736  0.12465  1.0000
  H   H1284     1.0  0.12457  0.83923  0.12647  1.0000
  H   H1285     1.0  0.12701  0.85003  0.14410  1.0000
  H   H1286     1.0  0.13354  0.83976  0.15964  1.0000
  H   H1287     1.0  0.14190  0.81430  0.16300  1.0000
  H   H1288     1.0  0.13281  0.80458  0.15734  1.0000
  H   H1289     1.0  0.11893  0.82112  0.17671  1.0000
  H   H1290     1.0  0.11073  0.84002  0.17158  1.0000
  H   H1291     1.0  0.10043  0.82674  0.17606  1.0000
  H   H1292     1.0  0.12768  0.81682  0.11669  1.0000
  H   H1293     1.0  0.12701  0.80632  0.13470  1.0000
  H   H1294     1.0  0.11212  0.82062  0.13031  1.0000
  H   H1295     1.0  0.15083  0.85228  0.14117  1.0000
  H   H1296     1.0  0.15241  0.84134  0.12913  1.0000
  H   H1297     1.0  0.15759  0.83354  0.14640  1.0000
  H   H1298     1.0  0.15076  0.80255  0.13536  1.0000
  H   H1299     1.0  0.15899  0.79747  0.15028  1.0000
  H   H1300     1.0  0.16006  0.81435  0.13816  1.0000
  N   N53       1.0  0.07175  0.70212  0.11975  1.0000
  C   C785      1.0  0.06612  0.70610  0.10617  1.0000
  C   C786      1.0  0.08668  0.69314  0.11657  1.0000
  C   C787      1.0  0.07208  0.71582  0.12334  1.0000
  C   C788      1.0  0.06179  0.69404  0.13153  1.0000
  C   C789      1.0  0.05215  0.71774  0.10586  1.0000
  C   C790      1.0  0.08797  0.67874  0.11278  1.0000
  C   C791      1.0  0.08239  0.71482  0.13282  1.0000
  C   C792      1.0  0.06624  0.68739  0.14608  1.0000
  H   H1301     1.0  0.07420  0.71002  0.09664  1.0000
  H   H1302     1.0  0.06407  0.69657  0.10393  1.0000
  H   H1303     1.0  0.09203  0.69045  0.12568  1.0000
  H   H1304     1.0  0.09351  0.69937  0.10748  1.0000
  H   H1305     1.0  0.07526  0.72376  0.11332  1.0000
  H   H1306     1.0  0.06122  0.72102  0.12863  1.0000
  H   H1307     1.0  0.05111  0.70121  0.13405  1.0000
  H   H1308     1.0  0.05943  0.68542  0.12798  1.0000
  H   H1309     1.0  0.04901  0.71922  0.09555  1.0000
  H   H1310     1.0  0.04317  0.71468  0.11465  1.0000
  H   H1311     1.0  0.05360  0.72836  0.10605  1.0000
  H   H1312     1.0  0.08188  0.67165  0.12158  1.0000
  H   H1313     1.0  0.08473  0.68027  0.10254  1.0000
  H   H1314     1.0  0.09938  0.67299  0.11124  1.0000
  H   H1315     1.0  0.08115  0.70664  0.14295  1.0000
  H   H1316     1.0  0.08041  0.72535  0.13568  1.0000
  H   H1317     1.0  0.09365  0.71272  0.12682  1.0000
  H   H1318     1.0  0.06240  0.69520  0.15317  1.0000
  H   H1319     1.0  0.07785  0.68313  0.14516  1.0000
  H   H1320     1.0  0.06147  0.67788  0.15155  1.0000
  C   C793      1.0  0.18930  0.74760  0.14179  1.0000
  H   H1321     1.0  0.17314  0.84296  0.19029  1.0000
  C   C794      1.0  0.22365  0.92564  0.97852  1.0000
  H   H1322     1.0  0.19024  0.76100  0.22384  1.0000
  C   C795      1.0  0.06702  0.92453  0.17434  1.0000
  C   C796      1.0  0.15373  0.67660  0.17213  1.0000
  C   C797      1.0  0.11960  0.93876  0.21445  1.0000
  H   H1323     1.0  0.13277  0.83518  0.21578  1.0000
  H   H1324     1.0  0.07719  0.94170  0.14601  1.0000
  S   S240      1.0  0.12910  0.75560  0.19356  1.0000
  H   H1325     1.0  0.19006  0.67015  0.19787  1.0000
  H   H1326     1.0  0.06382  0.90701  0.16806  1.0000
  C   C798      1.0  0.17767  0.77749  0.21022  1.0000
  H   H1327     1.0  0.15200  0.86606  0.19566  1.0000
  H   H1328     1.0  0.07931  0.91424  0.12803  1.0000
  H   H1329     1.0  0.19417  0.71819  0.12789  1.0000
  C   C799      1.0  0.99282  0.82504  0.17468  1.0000
  H   H1330     1.0  0.17338  0.72120  0.99321  1.0000
  H   H1331     1.0  0.18723  0.71573  0.01762  1.0000
  H   H1332     1.0  0.20172  0.66507  0.18174  1.0000
  C   C800      1.0  0.15707  0.84130  0.21498  1.0000
  C   C801      1.0  0.98919  0.77223  0.05438  1.0000
  H   H1333     1.0  0.23067  0.89561  0.01718  1.0000
  S   S241      1.0  0.22567  0.70634  0.05755  1.0000
  H   H1334     1.0  0.21533  0.79895  0.06652  1.0000
  H   H1335     1.0  0.19940  0.75636  0.18717  1.0000
  N   N54       1.0  0.22550  0.88542  0.15463  1.0000
  H   H1336     1.0  0.99978  0.85299  0.08957  1.0000
  C   C802      1.0  0.18733  0.76409  0.13773  1.0000
  H   H1337     1.0  0.18369  0.75774  0.11363  1.0000
  H   H1338     1.0  0.20756  0.75287  0.11595  1.0000
  H   H1339     1.0  0.19720  0.76745  0.13091  1.0000
  H   H1340     1.0  0.17819  0.76948  0.13246  1.0000
  H   H1341     1.0  0.18492  0.76809  0.14772  1.0000
  H   H1342     1.0  0.21139  0.71732  0.14370  1.0000
  H   H1343     1.0  0.15161  0.84572  0.17214  1.0000
  H   H1344     1.0  0.02072  0.80698  0.19214  1.0000
  H   H1345     1.0  0.00279  0.83506  0.08663  1.0000
  S   S242      1.0  0.13503  0.92277  0.15287  1.0000
  C   C803      1.0  0.01307  0.85538  0.12950  1.0000
  H   H1346     1.0  0.99861  0.80408  0.10950  1.0000
  C   C804      1.0  0.17927  0.92051  0.12414  1.0000
  H   H1347     1.0  0.02653  0.83424  0.13285  1.0000
  C   C805      1.0  0.15435  0.73059  0.15927  1.0000
  C   C806      1.0  0.16880  0.73295  0.99095  1.0000
  H   H1348     1.0  0.18583  0.80980  0.19264  1.0000
  H   H1349     1.0  0.17924  0.63951  0.17234  1.0000
  H   H1350     1.0  0.08488  0.74457  0.16217  1.0000
  H   H1351     1.0  0.11501  0.77881  0.13864  1.0000
  C   C807      1.0  0.16341  0.83993  0.18966  1.0000
  H   H1352     1.0  0.04385  0.94221  0.13168  1.0000
  H   H1353     1.0  0.15194  0.74734  0.16992  1.0000
  C   C808      1.0  0.12193  0.67041  0.21480  1.0000
  S   S243      1.0  0.18969  0.95859  0.08819  1.0000
  C   C809      1.0  0.13181  0.64812  0.18037  1.0000
  S   S244      1.0  0.16032  0.91868  0.17051  1.0000
  S   S245      1.0  0.16305  0.64205  0.19980  1.0000
  S   S246      1.0  0.17562  0.90457  0.13594  1.0000
  C   C810      1.0  0.19154  0.72368  0.00826  1.0000
  C   C811      1.0  0.09023  0.79621  0.19248  1.0000
  H   H1354     1.0  0.10115  0.73600  0.16784  1.0000
  C   C812      1.0  0.23476  0.70820  0.08061  1.0000
  H   H1355     1.0  0.15719  0.93108  0.12466  1.0000
  C   C813      1.0  0.01791  0.82398  0.17271  1.0000
  H   H1356     1.0  0.17940  0.74521  0.14970  1.0000
  C   C814      1.0  0.18129  0.74747  0.12070  1.0000
  H   H1357     1.0  0.09842  0.75474  0.13013  1.0000
  Fe  Fe120     1.0  0.22158  0.82220  0.20766  1.0000
  C   C815      1.0  0.22924  0.77382  0.08766  1.0000
  N   N55       1.0  0.19247  0.74014  0.12953  1.0000
  C   C816      1.0  0.08047  0.77474  0.14597  1.0000
  N   N56       1.0  0.11355  0.77565  0.05138  1.0000
  C   C817      1.0  0.09900  0.78264  0.04798  1.0000
  C   C818      1.0  0.11939  0.76282  0.04452  1.0000
  C   C819      1.0  0.12289  0.78643  0.04436  1.0000
  C   C820      1.0  0.11194  0.77171  0.06750  1.0000
  C   C821      1.0  0.09106  0.79645  0.05349  1.0000
  C   C822      1.0  0.11038  0.75124  0.04977  1.0000
  C   C823      1.0  0.13858  0.78161  0.04577  1.0000
  C   C824      1.0  0.12387  0.75979  0.07354  1.0000
  H   H1358     1.0  0.09984  0.78542  0.03616  1.0000
  H   H1359     1.0  0.09161  0.77514  0.05256  1.0000
  H   H1360     1.0  0.13027  0.75724  0.04610  1.0000
  H   H1361     1.0  0.12059  0.76633  0.03262  1.0000
  H   H1362     1.0  0.12298  0.79007  0.03263  1.0000
  H   H1363     1.0  0.11861  0.79620  0.04889  1.0000
  H   H1364     1.0  0.11088  0.78135  0.07165  1.0000
  H   H1365     1.0  0.10182  0.76789  0.07273  1.0000
  H   H1366     1.0  0.09624  0.80560  0.04769  1.0000
  H   H1367     1.0  0.08015  0.79969  0.05126  1.0000
  H   H1368     1.0  0.08975  0.79483  0.06526  1.0000
  H   H1369     1.0  0.11684  0.74130  0.04619  1.0000
  H   H1370     1.0  0.10708  0.74843  0.06161  1.0000
  H   H1371     1.0  0.10077  0.75461  0.04507  1.0000
  H   H1372     1.0  0.13950  0.77996  0.05702  1.0000
  H   H1373     1.0  0.14425  0.79030  0.03938  1.0000
  H   H1374     1.0  0.14437  0.77199  0.04138  1.0000
  H   H1375     1.0  0.12560  0.76241  0.08302  1.0000
  H   H1376     1.0  0.13438  0.75814  0.06607  1.0000
  H   H1377     1.0  0.12044  0.74942  0.07774  1.0000
  N   N57       1.0  0.03073  0.84085  0.08142  1.0000
  C   C825      1.0  0.01962  0.83852  0.09523  1.0000
  C   C826      1.0  0.04517  0.83647  0.08527  1.0000
  C   C827      1.0  0.02986  0.83149  0.07207  1.0000
  C   C828      1.0  0.02738  0.85652  0.07418  1.0000
  H   H1378     1.0  0.02576  0.82183  0.07878  1.0000
  C   C829      1.0  0.04725  0.84415  0.09583  1.0000
  H   H1379     1.0  0.17701  0.86723  0.22369  1.0000
  H   H1380     1.0  0.19859  0.64762  0.21298  1.0000
  H   H1381     1.0  0.02228  0.82730  0.10152  1.0000
  H   H1382     1.0  0.01935  0.84563  0.10222  1.0000
  H   H1383     1.0  0.05392  0.83794  0.07560  1.0000
  H   H1384     1.0  0.04749  0.82482  0.09011  1.0000
  H   H1385     1.0  0.99715  0.75150  0.02827  1.0000
  S   S247      1.0  0.23388  0.80235  0.19949  1.0000
  H   H1386     1.0  0.08182  0.90689  0.16553  1.0000
  C   C830      1.0  0.13885  0.95515  0.21785  1.0000
  H   H1387     1.0  0.13912  0.82827  0.18634  1.0000
  H   H1388     1.0  0.01702  0.85939  0.07081  1.0000
  C   C831      1.0  0.99096  0.84100  0.13364  1.0000
  H   H1389     1.0  0.12256  0.83127  0.19939  1.0000
  H   H1390     1.0  0.04096  0.84090  0.10686  1.0000
  H   H1391     1.0  0.05863  0.84083  0.09665  1.0000
  C   C832      1.0  0.18111  0.86608  0.21267  1.0000
  H   H1392     1.0  0.21015  0.72389  0.19740  1.0000
  H   H1393     1.0  0.18874  0.78437  0.10411  1.0000
  H   H1394     1.0  0.04907  0.92267  0.15217  1.0000
  H   H1395     1.0  0.13907  0.92293  0.21137  1.0000
  H   H1396     1.0  0.00288  0.77908  0.03400  1.0000
  N   N58       1.0  0.20132  0.67476  0.10724  1.0000
  C   C833      1.0  0.18794  0.67299  0.11872  1.0000
  C   C834      1.0  0.20303  0.68987  0.10522  1.0000
  C   C835      1.0  0.21389  0.66395  0.11239  1.0000
  C   C836      1.0  0.19941  0.67201  0.09378  1.0000
  C   C837      1.0  0.18515  0.65764  0.12414  1.0000
  C   C838      1.0  0.19090  0.70200  0.09999  1.0000
  C   C839      1.0  0.14071  0.83402  0.20556  1.0000
  C   C840      1.0  0.21148  0.67404  0.08030  1.0000
  H   H1397     1.0  0.18800  0.67668  0.12832  1.0000
  H   H1398     1.0  0.17825  0.67981  0.11485  1.0000
  H   H1399     1.0  0.21300  0.69195  0.09744  1.0000
  H   H1400     1.0  0.20409  0.69154  0.11550  1.0000
  H   H1401     1.0  0.21226  0.66200  0.12425  1.0000
  H   H1402     1.0  0.21483  0.65330  0.11018  1.0000
  H   H1403     1.0  0.19833  0.66077  0.09558  1.0000
  H   H1404     1.0  0.18914  0.67841  0.09095  1.0000
  H   H1405     1.0  0.18299  0.65383  0.11563  1.0000
  H   H1406     1.0  0.19393  0.64981  0.12875  1.0000
  H   H1407     1.0  0.17542  0.65776  0.13295  1.0000
  H   H1408     1.0  0.18071  0.70242  0.10815  1.0000
  H   H1409     1.0  0.19393  0.71241  0.09808  1.0000
  H   H1410     1.0  0.18929  0.70129  0.08963  1.0000
  H   H1411     1.0  0.17299  0.93708  0.97885  1.0000
  H   H1412     1.0  0.20621  0.90411  0.08847  1.0000
  C   C841      1.0  0.14397  0.85935  0.19824  1.0000
  H   H1413     1.0  0.20647  0.80164  0.98820  1.0000
  H   H1414     1.0  0.21607  0.68327  0.07914  1.0000
  H   H1415     1.0  0.20706  0.67658  0.07055  1.0000
  H   H1416     1.0  0.15434  0.67403  0.20039  1.0000
  Fe  Fe121     1.0  0.20930  0.75741  0.03418  1.0000
  C   C842      1.0  0.09661  0.74349  0.15878  1.0000
  C   C843      1.0  0.10289  0.65778  0.17941  1.0000
  C   C844      1.0  0.14056  0.68810  0.17693  1.0000
  H   H1417     1.0  0.13954  0.96038  0.20628  1.0000
  H   H1418     1.0  0.13969  0.93948  0.19928  1.0000
  H   H1419     1.0  0.19116  0.90165  0.17125  1.0000
  H   H1420     1.0  0.17061  0.84194  0.16657  1.0000
  C   C845      1.0  0.19692  0.81002  0.98593  1.0000
  N   N59       1.0  0.00293  0.83203  0.17788  1.0000
  H   H1421     1.0  0.19556  0.72044  0.15770  1.0000
  H   H1422     1.0  0.07698  0.75476  0.14204  1.0000
  C   C846      1.0  0.22953  0.65390  0.18867  1.0000
  H   H1423     1.0  0.06146  0.76634  0.14973  1.0000
  C   C847      1.0  0.16145  0.84702  0.17419  1.0000
  H   H1424     1.0  0.13965  0.86215  0.18843  1.0000
  H   H1425     1.0  0.17798  0.82624  0.21067  1.0000
  H   H1426     1.0  0.20183  0.89077  0.08291  1.0000
  H   H1427     1.0  0.99744  0.71244  0.03269  1.0000
  C   C848      1.0  0.19143  0.65537  0.15989  1.0000
  H   H1428     1.0  0.06920  0.77155  0.13132  1.0000
  H   H1429     1.0  0.01987  0.82432  0.16102  1.0000
  H   H1430     1.0  0.09596  0.76171  0.16633  1.0000
  C   C849      1.0  0.17140  0.94378  0.10920  1.0000
  C   C850      1.0  0.20497  0.65857  0.15521  1.0000
  S   S248      1.0  0.19137  0.73537  0.07003  1.0000
  H   H1431     1.0  0.10737  0.78291  0.11313  1.0000
  H   H1432     1.0  0.14365  0.69846  0.17166  1.0000
  N   N60       1.0  0.16697  0.73912  0.00375  1.0000
  H   H1433     1.0  0.10096  0.79261  0.18673  1.0000
  C   C851      1.0  0.15928  0.75465  0.00066  1.0000
  H   H1434     1.0  0.00702  0.79186  0.09060  1.0000
  C   C852      1.0  0.15864  0.73039  0.01665  1.0000
  H   H1435     1.0  0.19804  0.74356  0.14783  1.0000
  C   C853      1.0  0.15413  0.76192  0.01358  1.0000
  H   H1436     1.0  0.19634  0.91985  0.98708  1.0000
  C   C854      1.0  0.14320  0.73076  0.01615  1.0000
  H   H1437     1.0  0.10111  0.73828  0.14948  1.0000
  H   H1438     1.0  0.17957  0.74194  0.01696  1.0000
  H   H1439     1.0  0.14997  0.75610  0.99592  1.0000
  H   H1440     1.0  0.16626  0.76119  0.99220  1.0000
  S   S249      1.0  0.13835  0.77319  0.15295  1.0000
  C   C855      1.0  0.14361  0.75550  0.15068  1.0000
  H   H1441     1.0  0.16413  0.71886  0.01827  1.0000
  H   H1442     1.0  0.15843  0.73315  0.02681  1.0000
  H   H1443     1.0  0.21024  0.72354  0.10983  1.0000
  C   C856      1.0  0.15620  0.69614  0.19515  1.0000
  C   C857      1.0  0.20722  0.74143  0.12075  1.0000
  H   H1444     1.0  0.14843  0.77316  0.01013  1.0000
  H   H1445     1.0  0.14643  0.75659  0.02232  1.0000
  H   H1446     1.0  0.16315  0.76235  0.01779  1.0000
  S   S250      1.0  0.21406  0.77228  0.22337  1.0000
  C   C858      1.0  0.23170  0.92191  0.03286  1.0000
  H   H1447     1.0  0.21613  0.75935  0.19768  1.0000
  H   H1448     1.0  0.14304  0.72266  0.01046  1.0000
  H   H1449     1.0  0.13747  0.74139  0.01110  1.0000
  H   H1450     1.0  0.13682  0.72843  0.02733  1.0000
  C   C859      1.0  0.17867  0.91296  0.08904  1.0000
  H   H1451     1.0  0.11303  0.69825  0.19498  1.0000
  H   H1452     1.0  0.19893  0.88841  0.06001  1.0000
  H   H1453     1.0  0.12285  0.85902  0.21301  1.0000
  C   C860      1.0  0.17341  0.85404  0.98552  1.0000
  H   H1454     1.0  0.00936  0.82976  0.21121  1.0000
  H   H1455     1.0  0.16293  0.92069  0.20008  1.0000
  H   H1456     1.0  0.23050  0.63159  0.18772  1.0000
  C   C861      1.0  0.06218  0.80515  0.20714  1.0000
  H   H1457     1.0  0.21478  0.90230  0.05644  1.0000
  S   S251      1.0  0.21216  0.86567  0.01291  1.0000
  C   C862      1.0  0.06711  0.89919  0.14266  1.0000
  H   H1458     1.0  0.23165  0.67053  0.09458  1.0000
  C   C863      1.0  0.22357  0.80630  0.02113  1.0000
  H   H1459     1.0  0.23700  0.65832  0.11008  1.0000
  S   S252      1.0  0.15330  0.79629  0.98416  1.0000
  Fe  Fe122     1.0  0.17967  0.62157  0.20247  1.0000
  C   C864      1.0  0.18134  0.93984  0.06652  1.0000
  C   C865      1.0  0.00078  0.84747  0.16962  1.0000
  H   H1460     1.0  0.10242  0.91540  0.14318  1.0000
  H   H1461     1.0  0.15133  0.70522  0.20065  1.0000
  H   H1462     1.0  0.07214  0.89137  0.13561  1.0000
  C   C866      1.0  0.22874  0.66774  0.10645  1.0000
  H   H1463     1.0  0.20565  0.66949  0.21520  1.0000
  H   H1464     1.0  0.00387  0.73274  0.02798  1.0000
  C   C867      1.0  0.07707  0.90959  0.13980  1.0000
  H   H1465     1.0  0.10353  0.93354  0.14090  1.0000
  H   H1466     1.0  0.21094  0.67661  0.19676  1.0000
  H   H1467     1.0  0.02613  0.82904  0.17358  1.0000
  H   H1468     1.0  0.08951  0.78003  0.11617  1.0000
  C   C868      1.0  0.15545  0.98052  0.18448  1.0000
  C   C869      1.0  0.07191  0.76615  0.14194  1.0000
  H   H1469     1.0  0.22945  0.67664  0.11078  1.0000
  H   H1470     1.0  0.99235  0.77111  0.11563  1.0000
  C   C870      1.0  0.19945  0.77957  0.21510  1.0000
  C   C871      1.0  0.98821  0.85601  0.13015  1.0000
  H   H1471     1.0  0.16500  0.93535  0.22282  1.0000
  H   H1472     1.0  0.18095  0.97563  0.14175  1.0000
  S   S253      1.0  0.16036  0.72803  0.20864  1.0000
  H   H1473     1.0  0.19916  0.97350  0.13307  1.0000
  H   H1474     1.0  0.19403  0.74661  0.20541  1.0000
  S   S254      1.0  0.22306  0.96397  0.05565  1.0000
  C   C872      1.0  0.01589  0.84039  0.13233  1.0000
  C   C873      1.0  0.07148  0.91424  0.16393  1.0000
  H   H1475     1.0  0.18017  0.72430  0.14133  1.0000
  C   C874      1.0  0.19805  0.79339  0.20640  1.0000
  H   H1476     1.0  0.01534  0.80152  0.17873  1.0000
  Fe  Fe123     1.0  0.21226  0.72873  0.05519  1.0000
  C   C875      1.0  0.10316  0.78186  0.14202  1.0000
  C   C876      1.0  0.17425  0.84418  0.99857  1.0000
  H   H1477     1.0  0.22454  0.62615  0.16886  1.0000
  C   C877      1.0  0.18117  0.73849  0.00677  1.0000
  C   C878      1.0  0.10086  0.77474  0.11581  1.0000
  H   H1478     1.0  0.02074  0.83371  0.19436  1.0000
  H   H1479     1.0  0.19817  0.80715  0.01437  1.0000
  C   C879      1.0  0.15945  0.93515  0.21459  1.0000
  H   H1480     1.0  0.11664  0.72285  0.19147  1.0000
  H   H1481     1.0  0.16164  0.85858  0.17156  1.0000
  H   H1482     1.0  0.22298  0.76311  0.07493  1.0000
  N   N61       1.0  0.19023  0.91247  0.07553  1.0000
  C   C880      1.0  0.20840  0.92535  0.02757  1.0000
  H   H1483     1.0  0.18575  0.94959  0.06109  1.0000
  C   C881      1.0  0.21771  0.92985  0.03298  1.0000
  S   S255      1.0  0.20059  0.90733  0.01590  1.0000
  H   H1484     1.0  0.09971  0.79107  0.13343  1.0000
  H   H1485     1.0  0.13189  0.68809  0.17186  1.0000
  H   H1486     1.0  0.21745  0.89782  0.13557  1.0000
  C   C882      1.0  0.21337  0.73380  0.10806  1.0000
  H   H1487     1.0  0.08749  0.90281  0.14192  1.0000
  C   C883      1.0  0.18750  0.89325  0.06370  1.0000
  H   H1488     1.0  0.11257  0.75562  0.15501  1.0000
  Fe  Fe124     1.0  0.21329  0.95474  0.07852  1.0000
  C   C884      1.0  0.10077  0.75797  0.15611  1.0000
  H   H1489     1.0  0.16738  0.89613  0.09116  1.0000
  C   C885      1.0  0.19138  0.72474  0.13605  1.0000
  C   C886      1.0  0.20011  0.71658  0.14755  1.0000
  H   H1490     1.0  0.19759  0.93156  0.02777  1.0000
  H   H1491     1.0  0.21410  0.93951  0.03716  1.0000
  H   H1492     1.0  0.15998  0.94806  0.17618  1.0000
  H   H1493     1.0  0.19969  0.70508  0.15025  1.0000
  H   H1494     1.0  0.09169  0.66136  0.17909  1.0000
  C   C887      1.0  0.16820  0.93182  0.12000  1.0000
  H   H1495     1.0  0.22600  0.71742  0.08158  1.0000
  Fe  Fe125     1.0  0.20582  0.88937  0.00368  1.0000
  H   H1496     1.0  0.07586  0.77546  0.15740  1.0000
  C   C888      1.0  0.18974  0.64190  0.16853  1.0000
  C   C889      1.0  0.20351  0.90190  0.07922  1.0000
  C   C890      1.0  0.10284  0.76380  0.12994  1.0000
  S   S256      1.0  0.13001  0.78981  0.18643  1.0000
  H   H1497     1.0  0.21665  0.73488  0.18062  1.0000
  Fe  Fe126     1.0  0.19821  0.75611  0.06594  1.0000
  C   C891      1.0  0.22699  0.67404  0.20817  1.0000
  H   H1498     1.0  0.19050  0.74203  0.19081  1.0000
  C   C892      1.0  0.16594  0.92066  0.21004  1.0000
  Fe  Fe127     1.0  0.13944  0.77137  0.17562  1.0000
  H   H1499     1.0  0.14300  0.64408  0.18059  1.0000
  H   H1500     1.0  0.13528  0.86462  0.21963  1.0000
  H   H1501     1.0  0.10367  0.79803  0.15263  1.0000
  C   C893      1.0  0.19400  0.80247  0.02575  1.0000
  N   N62       1.0  0.09651  0.76944  0.14349  1.0000
  C   C894      1.0  0.21296  0.91291  0.02194  1.0000
  H   H1502     1.0  0.22011  0.66419  0.08017  1.0000
  C   C895      1.0  0.21358  0.89120  0.16612  1.0000
  H   H1503     1.0  0.10451  0.76907  0.10681  1.0000
  H   H1504     1.0  0.21047  0.74166  0.21833  1.0000
  H   H1505     1.0  0.99366  0.81335  0.08327  1.0000
  H   H1506     1.0  0.10527  0.78060  0.16393  1.0000
  H   H1507     1.0  0.08804  0.79074  0.16006  1.0000
  H   H1508     1.0  0.06995  0.93504  0.16937  1.0000
  C   C896      1.0  0.09969  0.78801  0.15556  1.0000
  H   H1509     1.0  0.21398  0.82432  0.04029  1.0000
  H   H1510     1.0  0.22520  0.73094  0.10636  1.0000
  C   C897      1.0  0.21769  0.81266  0.04458  1.0000
  H   H1511     1.0  0.05741  0.92830  0.12482  1.0000
  Fe  Fe128     1.0  0.14969  0.78250  0.19533  1.0000
  C   C898      1.0  0.21091  0.80989  0.06083  1.0000
  S   S257      1.0  0.16008  0.76539  0.18279  1.0000
  C   C899      1.0  0.20563  0.64969  0.20214  1.0000
  C   C900      1.0  0.18516  0.90921  0.06402  1.0000
  C   C901      1.0  0.99870  0.74044  0.03502  1.0000
  H   H1512     1.0  0.08411  0.93441  0.13062  1.0000
  H   H1513     1.0  0.22213  0.91062  0.06580  1.0000
  Fe  Fe129     1.0  0.13537  0.79009  0.97931  1.0000
  H   H1514     1.0  0.12064  0.67416  0.19270  1.0000
  H   H1515     1.0  0.09892  0.64429  0.20060  1.0000
  H   H1516     1.0  0.21054  0.74098  0.09801  1.0000
  C   C902      1.0  0.18927  0.77160  0.21700  1.0000
  H   H1517     1.0  0.16634  0.82814  0.19050  1.0000
  H   H1518     1.0  0.19227  0.80486  0.04693  1.0000
  S   S258      1.0  0.18331  0.62411  0.22278  1.0000
  H   H1519     1.0  0.11715  0.66089  0.21732  1.0000
  S   S259      1.0  0.09853  0.77866  0.21718  1.0000
  C   C903      1.0  0.21697  0.64794  0.15810  1.0000
  H   H1520     1.0  0.05089  0.81667  0.06859  1.0000
  H   H1521     1.0  0.16880  0.92092  0.08681  1.0000
  H   H1522     1.0  0.19050  0.91436  0.05310  1.0000
  Fe  Fe130     1.0  0.22406  0.79057  0.22102  1.0000
  C   C904      1.0  0.22226  0.87223  0.15261  1.0000
  C   C905      1.0  0.21933  0.76949  0.08298  1.0000
  H   H1523     1.0  0.17592  0.93800  0.05905  1.0000
  H   H1524     1.0  0.18840  0.73603  0.10286  1.0000
  S   S260      1.0  0.22796  0.96038  0.08848  1.0000
  H   H1525     1.0  0.17050  0.74587  0.10519  1.0000
  H   H1526     1.0  0.22447  0.66015  0.17954  1.0000
  H   H1527     1.0  0.99696  0.87478  0.12578  1.0000
  C   C906      1.0  0.08199  0.93133  0.14257  1.0000
  S   S261      1.0  0.19183  0.76844  0.08340  1.0000
  H   H1528     1.0  0.19981  0.90854  0.15330  1.0000
  C   C907      1.0  0.12515  0.71448  0.18677  1.0000
  C   C908      1.0  0.19880  0.80836  0.03604  1.0000
  C   C909      1.0  0.18658  0.79923  0.19957  1.0000
  N   N63       1.0  0.13520  0.68675  0.19293  1.0000
  H   H1529     1.0  0.22347  0.91447  0.15086  1.0000
  Fe  Fe131     1.0  0.14902  0.75109  0.20189  1.0000
  C   C910      1.0  0.20993  0.78521  0.10455  1.0000
  H   H1530     1.0  0.22938  0.81097  0.04342  1.0000
  H   H1531     1.0  0.20579  0.79967  0.20483  1.0000
  H   H1532     1.0  0.20625  0.79123  0.11293  1.0000
  C   C911      1.0  0.21703  0.90165  0.06695  1.0000
  H   H1533     1.0  0.20158  0.72480  0.01021  1.0000
  H   H1534     1.0  0.12906  0.84620  0.18818  1.0000
  H   H1535     1.0  0.13713  0.66375  0.19685  1.0000
  S   S262      1.0  0.21983  0.76947  0.01301  1.0000
  H   H1536     1.0  0.19720  0.79068  0.02745  1.0000
  S   S263      1.0  0.16687  0.66385  0.22506  1.0000
  H   H1537     1.0  0.22815  0.82216  0.00132  1.0000
  H   H1538     1.0  0.21136  0.88243  0.17571  1.0000
  Fe  Fe132     1.0  0.12126  0.77367  0.20505  1.0000
  H   H1539     1.0  0.07271  0.91970  0.18330  1.0000
  H   H1540     1.0  0.18190  0.89253  0.05576  1.0000
  N   N64       1.0  0.07188  0.92119  0.14831  1.0000
  C   C912      1.0  0.23636  0.90968  0.02690  1.0000
  C   C913      1.0  0.18829  0.97978  0.13171  1.0000
  H   H1541     1.0  0.19529  0.82028  0.03330  1.0000
  S   S264      1.0  0.13067  0.95469  0.17193  1.0000
  H   H1542     1.0  0.17346  0.94244  0.07631  1.0000
  C   C914      1.0  0.22669  0.89619  0.14048  1.0000
  H   H1543     1.0  0.02201  0.83725  0.06518  1.0000
  H   H1544     1.0  0.16324  0.67694  0.17563  1.0000
  H   H1545     1.0  0.18217  0.80538  0.02761  1.0000
  S   S265      1.0  0.22002  0.74856  0.05291  1.0000
  C   C915      1.0  0.09674  0.92560  0.14654  1.0000
  C   C916      1.0  0.18114  0.71164  0.22312  1.0000
  H   H1546     1.0  0.12381  0.71570  0.17571  1.0000
  H   H1547     1.0  0.19911  0.81175  0.06304  1.0000
  C   C917      1.0  0.12142  0.64329  0.19217  1.0000
  C   C918      1.0  0.03835  0.86155  0.06064  1.0000
  H   H1548     1.0  0.12692  0.87636  0.20572  1.0000
  H   H1549     1.0  0.05134  0.80855  0.21289  1.0000
  C   C919      1.0  0.19594  0.66098  0.19272  1.0000
  H   H1550     1.0  0.19786  0.92967  0.07841  1.0000
  C   C920      1.0  0.21282  0.73460  0.19238  1.0000
  H   H1551     1.0  0.19446  0.97488  0.11020  1.0000
  H   H1552     1.0  0.99888  0.84828  0.15887  1.0000
  H   H1553     1.0  0.16275  0.84987  0.21378  1.0000
  H   H1554     1.0  0.22503  0.89156  0.06948  1.0000
  H   H1555     1.0  0.16694  0.69115  0.19756  1.0000
  H   H1556     1.0  0.18260  0.88986  0.09987  1.0000
  C   C921      1.0  0.10699  0.64808  0.19157  1.0000
  C   C922      1.0  0.13156  0.86491  0.20999  1.0000
  H   H1557     1.0  0.21060  0.78555  0.05368  1.0000
  H   H1558     1.0  0.20965  0.82497  0.00976  1.0000
  H   H1559     1.0  0.23046  0.70755  0.19353  1.0000
  H   H1560     1.0  0.19668  0.81982  0.98933  1.0000
  C   C923      1.0  0.19845  0.74563  0.19413  1.0000
  C   C924      1.0  0.14702  0.68475  0.20047  1.0000
  H   H1561     1.0  0.02594  0.86340  0.08184  1.0000
  C   C925      1.0  0.07219  0.79534  0.21459  1.0000
  C   C926      1.0  0.20470  0.77342  0.08883  1.0000
  H   H1562     1.0  0.21247  0.87515  0.14823  1.0000
  C   C927      1.0  0.13458  0.97887  0.17738  1.0000
  H   H1563     1.0  0.05531  0.92641  0.17884  1.0000
  H   H1564     1.0  0.15172  0.66565  0.17579  1.0000
  H   H1565     1.0  0.03458  0.87322  0.05646  1.0000
  S   S266      1.0  0.14021  0.76782  0.21526  1.0000
  H   H1566     1.0  0.19458  0.71949  0.99834  1.0000
  H   H1567     1.0  0.21621  0.78158  0.03653  1.0000
  C   C928      1.0  0.22573  0.75200  0.19278  1.0000
  N   N65       1.0  0.21450  0.80386  0.03617  1.0000
  H   H1568     1.0  0.05659  0.90470  0.14001  1.0000
  C   C929      1.0  0.20004  0.78134  0.09955  1.0000
  C   C930      1.0  0.16206  0.96666  0.18210  1.0000
  H   H1569     1.0  0.22252  0.68071  0.21637  1.0000
  H   H1570     1.0  0.22623  0.75512  0.18098  1.0000
  H   H1571     1.0  0.21349  0.81745  0.06564  1.0000
  C   C931      1.0  0.22051  0.82169  0.01191  1.0000
  C   C932      1.0  0.19917  0.89856  0.16172  1.0000
  H   H1572     1.0  0.17356  0.91400  0.06472  1.0000
  C   C933      1.0  0.01308  0.85523  0.16658  1.0000
  C   C934      1.0  0.21919  0.76799  0.98620  1.0000
  S   S267      1.0  0.22276  0.88899  0.98335  1.0000
  H   H1573     1.0  0.16646  0.90067  0.10752  1.0000
  H   H1574     1.0  0.05363  0.93840  0.15271  1.0000
  C   C935      1.0  0.14092  0.96476  0.17563  1.0000
  S   S268      1.0  0.12583  0.63158  0.20802  1.0000
  H   H1575     1.0  0.16308  0.91140  0.21851  1.0000
  C   C936      1.0  0.99215  0.77789  0.03956  1.0000
  C   C937      1.0  0.22704  0.90515  0.02152  1.0000
  H   H1576     1.0  0.12166  0.70024  0.20753  1.0000
  C   C938      1.0  0.17374  0.89893  0.09711  1.0000
  H   H1577     1.0  0.15655  0.67881  0.16021  1.0000
  H   H1578     1.0  0.17266  0.96182  0.18408  1.0000
  H   H1579     1.0  0.00953  0.86666  0.16135  1.0000
  H   H1580     1.0  0.00791  0.77827  0.11311  1.0000
  C   C939      1.0  0.12339  0.69953  0.19614  1.0000
  H   H1581     1.0  0.14263  0.68453  0.21210  1.0000
  H   H1582     1.0  0.04477  0.85600  0.09222  1.0000
  C   C940      1.0  0.21796  0.78809  0.04304  1.0000
  H   H1583     1.0  0.04997  0.83347  0.05546  1.0000
  H   H1584     1.0  0.19677  0.95665  0.98867  1.0000
  H   H1585     1.0  0.18772  0.65602  0.19163  1.0000
  H   H1586     1.0  0.18218  0.91664  0.09684  1.0000
  H   H1587     1.0  0.03929  0.85614  0.05196  1.0000
  H   H1588     1.0  0.06563  0.89278  0.15385  1.0000
  H   H1589     1.0  0.20830  0.63948  0.19846  1.0000
  C   C941      1.0  0.05705  0.92951  0.14688  1.0000
  C   C942      1.0  0.21489  0.66853  0.20590  1.0000
  S   S269      1.0  0.23326  0.72802  0.14655  1.0000
  N   N66       1.0  0.14342  0.93900  0.21984  1.0000
  C   C943      1.0  0.02173  0.80813  0.18048  1.0000
  C   C944      1.0  0.05515  0.93640  0.13136  1.0000
  H   H1590     1.0  0.13547  0.71691  0.18619  1.0000
  C   C945      1.0  0.00940  0.83595  0.19999  1.0000
  C   C946      1.0  0.22545  0.64259  0.21447  1.0000
  H   H1591     1.0  0.20235  0.92758  0.06044  1.0000
  C   C947      1.0  0.19372  0.92716  0.07029  1.0000
  H   H1592     1.0  0.21669  0.89889  0.17034  1.0000
  H   H1593     1.0  0.14634  0.82258  0.20800  1.0000
  H   H1594     1.0  0.11557  0.95056  0.21179  1.0000
  H   H1595     1.0  0.00630  0.73985  0.04162  1.0000
  N   N67       1.0  0.21891  0.65371  0.20287  1.0000
  N   N68       1.0  0.15110  0.84368  0.20186  1.0000
  H   H1596     1.0  0.23507  0.80383  0.02139  1.0000
  H   H1597     1.0  0.22577  0.63158  0.21350  1.0000
  H   H1598     1.0  0.06186  0.94441  0.12589  1.0000
  Fe  Fe133     1.0  0.22783  0.68041  0.14481  1.0000
  H   H1599     1.0  0.21974  0.86461  0.16308  1.0000
  C   C948      1.0  0.99931  0.83117  0.19385  1.0000
  H   H1600     1.0  0.21537  0.72329  0.21851  1.0000
  H   H1601     1.0  0.16977  0.77134  0.21180  1.0000
  C   C949      1.0  0.00406  0.84142  0.09358  1.0000
  H   H1602     1.0  0.19499  0.89130  0.15804  1.0000
  H   H1603     1.0  0.18188  0.94914  0.99130  1.0000
  H   H1604     1.0  0.17778  0.91888  0.20751  1.0000
  H   H1605     1.0  0.01637  0.85510  0.17635  1.0000
  H   H1606     1.0  0.19783  0.84749  0.21776  1.0000
  H   H1607     1.0  0.23467  0.77046  0.05056  1.0000
  H   H1608     1.0  0.22272  0.79878  0.01507  1.0000
  C   C950      1.0  0.99877  0.78533  0.09387  1.0000
  C   C951      1.0  0.22451  0.78159  0.09856  1.0000
  Fe  Fe134     1.0  0.22790  0.86527  0.99182  1.0000
  H   H1609     1.0  0.99278  0.81414  0.18167  1.0000
  H   H1610     1.0  0.00888  0.76432  0.10485  1.0000
  H   H1611     1.0  0.04896  0.86019  0.06293  1.0000
  C   C952      1.0  0.04389  0.82529  0.06220  1.0000
  H   H1612     1.0  0.12993  0.66755  0.22153  1.0000
  S   S270      1.0  0.23326  0.69927  0.12777  1.0000
  H   H1613     1.0  0.23562  0.66544  0.21215  1.0000
  S   S271      1.0  0.16402  0.60738  0.21352  1.0000
  C   C953      1.0  0.17215  0.73609  0.22621  1.0000
  H   H1614     1.0  0.22384  0.91934  0.13228  1.0000
  H   H1615     1.0  0.22748  0.65024  0.15417  1.0000
  H   H1616     1.0  0.14260  0.97413  0.22174  1.0000
  H   H1617     1.0  0.00582  0.84755  0.20013  1.0000
  C   C954      1.0  0.22874  0.91100  0.14067  1.0000
  H   H1618     1.0  0.99819  0.82017  0.20007  1.0000
  H   H1619     1.0  0.06904  0.79123  0.22604  1.0000
  H   H1620     1.0  0.23385  0.75531  0.15037  1.0000
  H   H1621     1.0  0.99627  0.79695  0.06534  1.0000
  H   H1622     1.0  0.19903  0.93774  0.99360  1.0000
  H   H1623     1.0  0.99100  0.85416  0.17515  1.0000
  H   H1624     1.0  0.18291  0.96435  0.12322  1.0000
  H   H1625     1.0  0.98853  0.83789  0.19711  1.0000
  H   H1626     1.0  0.23195  0.68066  0.19796  1.0000
  H   H1627     1.0  0.23751  0.86076  0.17384  1.0000
  H   H1628     1.0  0.15863  0.96129  0.21771  1.0000
  C   C955      1.0  0.17211  0.72517  0.21992  1.0000
  H   H1629     1.0  0.17810  0.86329  0.98282  1.0000
  H   H1630     1.0  0.11546  0.93435  0.20769  1.0000
  H   H1631     1.0  0.99719  0.83833  0.10435  1.0000
  H   H1632     1.0  0.23026  0.85429  0.14200  1.0000
  H   H1633     1.0  0.23681  0.64288  0.21320  1.0000
  C   C956      1.0  0.19360  0.94749  0.98694  1.0000
  H   H1634     1.0  0.23649  0.78731  0.05174  1.0000
  C   C957      1.0  0.16767  0.82686  0.21868  1.0000
  H   H1635     1.0  0.17328  0.91859  0.98720  1.0000
  H   H1636     1.0  0.23551  0.70696  0.20998  1.0000
  H   H1637     1.0  0.18424  0.98208  0.15965  1.0000
  H   H1638     1.0  0.11504  0.93422  0.22581  1.0000
  H   H1639     1.0  0.21846  0.91825  0.98776  1.0000
  C   C958      1.0  0.23094  0.73141  0.22340  1.0000
  H   H1640     1.0  0.16518  0.74650  0.22387  1.0000
  H   H1641     1.0  0.99142  0.81609  0.05970  1.0000
  H   H1642     1.0  0.23321  0.87533  0.18289  1.0000
  H   H1643     1.0  0.22271  0.93589  0.98148  1.0000
  H   H1644     1.0  0.98855  0.71837  0.01765  1.0000
  S   S272      1.0  0.21345  0.86057  0.98093  1.0000
  C   C959      1.0  0.23401  0.86365  0.14249  1.0000
  H   H1645     1.0  0.16326  0.81742  0.21984  1.0000
  C   C960      1.0  0.14729  0.96240  0.22359  1.0000
  H   H1646     1.0  0.12743  0.95846  0.22315  1.0000
  S   S273      1.0  0.23660  0.78680  0.10493  1.0000
  H   H1647     1.0  0.14834  0.84202  0.22476  1.0000
  C   C961      1.0  0.98788  0.80657  0.06736  1.0000
  H   H1648     1.0  0.23603  0.89203  0.13240  1.0000
  Fe  Fe135     1.0  0.23720  0.94186  0.05567  1.0000
  H   H1649     1.0  0.23633  0.87004  0.13135  1.0000
  Fe  Fe136     1.0  0.22960  0.80931  0.23694  1.0000
  H   H1650     1.0  0.22604  0.71838  0.30208  1.0000
  S   S274      1.0  0.22555  0.63680  0.36542  1.0000
  H   H1651     1.0  0.22732  0.59038  0.41287  1.0000
  H   H1652     1.0  0.20633  0.74718  0.24768  1.0000
  C   C962      1.0  0.23294  0.61152  0.40228  1.0000
  C   C963      1.0  0.21135  0.57992  0.23895  1.0000
  H   H1653     1.0  0.17025  0.82598  0.22912  1.0000
  H   H1654     1.0  0.15140  0.71735  0.28013  1.0000
  H   H1655     1.0  0.20871  0.61470  0.25666  1.0000
  C   C964      1.0  0.23009  0.48561  0.28522  1.0000
  H   H1656     1.0  0.13357  0.91309  0.25030  1.0000
  H   H1657     1.0  0.23064  0.66908  0.41131  1.0000
  H   H1658     1.0  0.13974  0.91089  0.23254  1.0000
  C   C965      1.0  0.14150  0.91604  0.24025  1.0000
  Fe  Fe137     1.0  0.21677  0.68071  0.29075  1.0000
  S   S275      1.0  0.22900  0.66011  0.28425  1.0000
  S   S276      1.0  0.21350  0.68667  0.31181  1.0000
  Fe  Fe138     1.0  0.21184  0.69548  0.26075  1.0000
  S   S277      1.0  0.22401  0.67634  0.25128  1.0000
  S   S278      1.0  0.20177  0.71768  0.25019  1.0000
  Fe  Fe139     1.0  0.21227  0.66406  0.27174  1.0000
  S   S279      1.0  0.20279  0.64584  0.27257  1.0000
  H   H1659     1.0  0.22354  0.51890  0.23956  1.0000
  H   H1660     1.0  0.21034  0.72311  0.29519  1.0000
  S   S280      1.0  0.19883  0.68342  0.28010  1.0000
  S   S281      1.0  0.22875  0.69437  0.27209  1.0000
  C   C966      1.0  0.23099  0.74598  0.25601  1.0000
  H   H1661     1.0  0.22331  0.63445  0.23755  1.0000
  Fe  Fe140     1.0  0.16635  0.61153  0.23377  1.0000
  H   H1662     1.0  0.22603  0.75429  0.24773  1.0000
  S   S282      1.0  0.16921  0.59443  0.25378  1.0000
  C   C967      1.0  0.21571  0.57072  0.25119  1.0000
  C   C968      1.0  0.20030  0.75088  0.25768  1.0000
  C   C969      1.0  0.22342  0.60762  0.27103  1.0000
  H   H1663     1.0  0.17979  0.53108  0.29120  1.0000
  H   H1664     1.0  0.19503  0.48412  0.29215  1.0000
  C   C970      1.0  0.20721  0.74230  0.27052  1.0000
  H   H1665     1.0  0.14145  0.71490  0.23646  1.0000
  C   C971      1.0  0.15753  0.71925  0.26890  1.0000
  S   S283      1.0  0.14838  0.63103  0.23392  1.0000
  C   C972      1.0  0.20154  0.61315  0.41601  1.0000
  C   C973      1.0  0.20581  0.56897  0.26432  1.0000
  C   C974      1.0  0.21962  0.63554  0.40570  1.0000
  H   H1666     1.0  0.21068  0.49747  0.29629  1.0000
  H   H1667     1.0  0.19907  0.76259  0.25579  1.0000
  C   C975      1.0  0.21526  0.48931  0.29004  1.0000
  H   H1668     1.0  0.21328  0.63550  0.39808  1.0000
  S   S284      1.0  0.22578  0.53615  0.29041  1.0000
  C   C976      1.0  0.14057  0.70351  0.23979  1.0000
  H   H1669     1.0  0.23239  0.72268  0.27568  1.0000
  H   H1670     1.0  0.21519  0.73603  0.30179  1.0000
  S   S285      1.0  0.21044  0.81025  0.22867  1.0000
  H   H1671     1.0  0.21788  0.78121  0.26939  1.0000
  H   H1672     1.0  0.18335  0.67895  0.23256  1.0000
  H   H1673     1.0  0.20675  0.62150  0.43107  1.0000
  H   H1674     1.0  0.23122  0.68751  0.40494  1.0000
  H   H1675     1.0  0.21645  0.60386  0.43014  1.0000
  H   H1676     1.0  0.21019  0.59637  0.26567  1.0000
  H   H1677     1.0  0.20067  0.52145  0.23852  1.0000
  H   H1678     1.0  0.20542  0.60557  0.31980  1.0000
  H   H1679     1.0  0.18281  0.52480  0.24841  1.0000
  H   H1680     1.0  0.20285  0.58537  0.28870  1.0000
  H   H1681     1.0  0.18943  0.74883  0.25981  1.0000
  H   H1682     1.0  0.19574  0.62381  0.41102  1.0000
  H   H1683     1.0  0.21890  0.58113  0.22873  1.0000
  H   H1684     1.0  0.17688  0.54711  0.23571  1.0000
  H   H1685     1.0  0.23045  0.72177  0.23233  1.0000
  H   H1686     1.0  0.17007  0.66700  0.28053  1.0000
  H   H1687     1.0  0.22896  0.75866  0.27945  1.0000
  H   H1688     1.0  0.19368  0.59383  0.23011  1.0000
  H   H1689     1.0  0.21210  0.64191  0.41342  1.0000
  H   H1690     1.0  0.21372  0.53866  0.26133  1.0000
  H   H1691     1.0  0.21120  0.75747  0.28708  1.0000
  C   C977      1.0  0.21199  0.52996  0.25736  1.0000
  C   C978      1.0  0.19707  0.58721  0.23974  1.0000
  C   C979      1.0  0.18714  0.58551  0.25282  1.0000
  C   C980      1.0  0.19152  0.57640  0.26513  1.0000
  H   H1692     1.0  0.23166  0.56629  0.34235  1.0000
  H   H1693     1.0  0.20875  0.68638  0.34154  1.0000
  H   H1694     1.0  0.23224  0.60305  0.26279  1.0000
  H   H1695     1.0  0.18381  0.57505  0.27525  1.0000
  H   H1696     1.0  0.12695  0.70548  0.26727  1.0000
  H   H1697     1.0  0.19269  0.51712  0.28373  1.0000
  H   H1698     1.0  0.17549  0.53569  0.26770  1.0000
  S   S286      1.0  0.23335  0.56084  0.24950  1.0000
  H   H1699     1.0  0.20660  0.64241  0.23252  1.0000
  C   C981      1.0  0.21908  0.75816  0.27662  1.0000
  C   C982      1.0  0.18611  0.53715  0.26786  1.0000
  H   H1700     1.0  0.14506  0.93561  0.24184  1.0000
  S   S287      1.0  0.23421  0.55262  0.31938  1.0000
  H   H1701     1.0  0.17241  0.68903  0.26205  1.0000
  H   H1702     1.0  0.15683  0.73100  0.26512  1.0000
  C   C983      1.0  0.19196  0.65127  0.26007  1.0000
  C   C984      1.0  0.19136  0.66477  0.25072  1.0000
  C   C985      1.0  0.18342  0.66873  0.24008  1.0000
  C   C986      1.0  0.17597  0.65927  0.23890  1.0000
  C   C987      1.0  0.17621  0.64596  0.24851  1.0000
  C   C988      1.0  0.18416  0.64199  0.25914  1.0000
  H   H1703     1.0  0.19711  0.67211  0.25157  1.0000
  H   H1704     1.0  0.12849  0.71228  0.28727  1.0000
  H   H1705     1.0  0.17024  0.63870  0.24779  1.0000
  H   H1706     1.0  0.18422  0.63172  0.26659  1.0000
  H   H1707     1.0  0.22355  0.60745  0.31405  1.0000
  H   H1708     1.0  0.16060  0.66772  0.26751  1.0000
  C   C989      1.0  0.18948  0.52886  0.28263  1.0000
  N   N69       1.0  0.19712  0.53379  0.25456  1.0000
  N   N70       1.0  0.22519  0.62044  0.41335  1.0000
  H   H1709     1.0  0.23261  0.57755  0.29599  1.0000
  H   H1710     1.0  0.14941  0.68300  0.25166  1.0000
  C   C990      1.0  0.21576  0.60227  0.31242  1.0000
  H   H1711     1.0  0.21821  0.65349  0.23268  1.0000
  C   C991      1.0  0.20969  0.60716  0.26714  1.0000
  C   C992      1.0  0.19659  0.50693  0.25894  1.0000
  H   H1712     1.0  0.15238  0.91122  0.24235  1.0000
  C   C993      1.0  0.15107  0.69410  0.24934  1.0000
  H   H1713     1.0  0.21747  0.77363  0.25556  1.0000
  H   H1714     1.0  0.19984  0.55554  0.24523  1.0000
  H   H1715     1.0  0.20317  0.54509  0.23234  1.0000
  H   H1716     1.0  0.17324  0.55787  0.24893  1.0000
  C   C994      1.0  0.18117  0.73351  0.23566  1.0000
  C   C995      1.0  0.19015  0.72002  0.23892  1.0000
  C   C996      1.0  0.19012  0.70902  0.23270  1.0000
  C   C997      1.0  0.21782  0.64347  0.23010  1.0000
  H   H1717     1.0  0.14155  0.72173  0.25711  1.0000
  H   H1718     1.0  0.18108  0.74199  0.24057  1.0000
  H   H1719     1.0  0.19712  0.69860  0.23510  1.0000
  C   C998      1.0  0.21112  0.57946  0.29494  1.0000
  H   H1720     1.0  0.21323  0.66682  0.36268  1.0000
  C   C999      1.0  0.21931  0.72737  0.29572  1.0000
  C   C1000     1.0  0.13909  0.93254  0.23564  1.0000
  H   H1721     1.0  0.12774  0.93715  0.24018  1.0000
  H   H1722     1.0  0.23027  0.58026  0.27836  1.0000
  H   H1723     1.0  0.20183  0.77602  0.26989  1.0000
  H   H1724     1.0  0.22674  0.61346  0.39391  1.0000
  H   H1725     1.0  0.18182  0.56404  0.23086  1.0000
  C   C1001     1.0  0.22191  0.65037  0.35044  1.0000
  C   C1002     1.0  0.21580  0.66443  0.35215  1.0000
  C   C1003     1.0  0.21326  0.67548  0.34020  1.0000
  C   C1004     1.0  0.21643  0.67245  0.32657  1.0000
  C   C1005     1.0  0.22223  0.65832  0.32491  1.0000
  C   C1006     1.0  0.22521  0.64731  0.33681  1.0000
  S   S288      1.0  0.22937  0.81288  0.25836  1.0000
  H   H1726     1.0  0.22385  0.61912  0.26908  1.0000
  H   H1727     1.0  0.22458  0.65585  0.31449  1.0000
  C   C1007     1.0  0.21273  0.61453  0.42334  1.0000
  C   C1008     1.0  0.19410  0.52217  0.24948  1.0000
  H   H1728     1.0  0.18911  0.50624  0.26954  1.0000
  H   H1729     1.0  0.22629  0.64114  0.42827  1.0000
  H   H1730     1.0  0.14188  0.69657  0.29255  1.0000
  H   H1731     1.0  0.23459  0.52344  0.24822  1.0000
  C   C1009     1.0  0.16063  0.67308  0.27588  1.0000
  H   H1732     1.0  0.21353  0.52018  0.26604  1.0000
  H   H1733     1.0  0.20623  0.60653  0.40783  1.0000
  H   H1734     1.0  0.16199  0.69389  0.24242  1.0000
  C   C1010     1.0  0.18107  0.55423  0.23957  1.0000
  N   N71       1.0  0.22535  0.59989  0.28601  1.0000
  C   C1011     1.0  0.22554  0.58412  0.28854  1.0000
  C   C1012     1.0  0.21384  0.60729  0.29672  1.0000
  C   C1013     1.0  0.23105  0.64413  0.39674  1.0000
  H   H1735     1.0  0.16904  0.71423  0.26850  1.0000
  H   H1736     1.0  0.15106  0.67203  0.28470  1.0000
  H   H1737     1.0  0.19445  0.49945  0.25369  1.0000
  H   H1738     1.0  0.12936  0.70275  0.24502  1.0000
  H   H1739     1.0  0.22572  0.65474  0.39109  1.0000
  H   H1740     1.0  0.14325  0.69953  0.22974  1.0000
  C   C1014     1.0  0.22442  0.52730  0.24443  1.0000
  H   H1741     1.0  0.20308  0.60614  0.29681  1.0000
  H   H1742     1.0  0.21318  0.61911  0.29362  1.0000
  H   H1743     1.0  0.19909  0.74425  0.28045  1.0000
  H   H1744     1.0  0.12431  0.69479  0.29489  1.0000
  C   C1015     1.0  0.19609  0.54719  0.24273  1.0000
  H   H1745     1.0  0.20843  0.73080  0.27050  1.0000
  H   H1746     1.0  0.21284  0.56790  0.29505  1.0000
  H   H1747     1.0  0.20910  0.56178  0.27376  1.0000
  N   N72       1.0  0.22130  0.74504  0.27076  1.0000
  H   H1748     1.0  0.18439  0.54866  0.26816  1.0000
  H   H1749     1.0  0.14668  0.95845  0.23529  1.0000
  H   H1750     1.0  0.20690  0.58042  0.30628  1.0000
  C   C1016     1.0  0.22850  0.73222  0.28066  1.0000
  H   H1751     1.0  0.19990  0.61054  0.27504  1.0000
  C   C1017     1.0  0.21368  0.77292  0.26726  1.0000
  H   H1752     1.0  0.19798  0.53262  0.28485  1.0000
  H   H1753     1.0  0.23304  0.73575  0.25248  1.0000
  H   H1754     1.0  0.19343  0.60782  0.42429  1.0000
  N   N73       1.0  0.14998  0.69872  0.26296  1.0000
  H   H1755     1.0  0.22140  0.62585  0.44202  1.0000
  C   C1018     1.0  0.16193  0.68886  0.26984  1.0000
  C   C1019     1.0  0.15178  0.71407  0.25876  1.0000
  C   C1020     1.0  0.13544  0.69767  0.27242  1.0000
  H   H1756     1.0  0.20780  0.50285  0.26018  1.0000
  H   H1757     1.0  0.21937  0.59046  0.31564  1.0000
  H   H1758     1.0  0.22543  0.53735  0.23619  1.0000
  C   C1021     1.0  0.13251  0.70063  0.28753  1.0000
  H   H1759     1.0  0.13294  0.68710  0.27354  1.0000
  H   H1760     1.0  0.15939  0.71596  0.24825  1.0000
  H   H1761     1.0  0.16308  0.69246  0.27899  1.0000
  C   C1022     1.0  0.23555  0.62011  0.42204  1.0000
  C   C1023     1.0  0.22999  0.62969  0.43315  1.0000
  H   H1762     1.0  0.22983  0.63641  0.33548  1.0000
  H   H1763     1.0  0.23662  0.67568  0.39249  1.0000
  C   C1024     1.0  0.23688  0.67661  0.40328  1.0000
  H   H1764     1.0  0.22854  0.74084  0.22824  1.0000
  C   C1025     1.0  0.23685  0.59514  0.40816  1.0000
  H   H1765     1.0  0.23727  0.64606  0.40341  1.0000
  H   H1766     1.0  0.18241  0.95214  0.70590  1.0000
  S   S289      1.0  0.13812  0.68738  0.68275  1.0000
  Fe  Fe141     1.0  0.23193  0.61215  0.69183  1.0000
  S   S290      1.0  0.22352  0.63092  0.67555  1.0000
  H   H1767     1.0  0.18225  0.78750  0.62812  1.0000
  C   C1026     1.0  0.21408  0.73029  0.70880  1.0000
  H   H1768     1.0  0.06102  0.71100  0.72696  1.0000
  C   C1027     1.0  0.15822  0.91900  0.71697  1.0000
  H   H1769     1.0  0.09124  0.84023  0.72068  1.0000
  S   S291      1.0  0.19827  0.80884  0.66287  1.0000
  Fe  Fe142     1.0  0.22437  0.61425  0.66396  1.0000
  S   S292      1.0  0.20532  0.61325  0.65690  1.0000
  C   C1028     1.0  0.19360  0.76748  0.63954  1.0000
  S   S293      1.0  0.23117  0.59542  0.68105  1.0000
  Fe  Fe143     1.0  0.11766  0.75798  0.64375  1.0000
  S   S294      1.0  0.12419  0.77689  0.62673  1.0000
  S   S295      1.0  0.10617  0.74137  0.64390  1.0000
  Fe  Fe144     1.0  0.13130  0.76199  0.66525  1.0000
  S   S296      1.0  0.13935  0.78099  0.65064  1.0000
  S   S297      1.0  0.13407  0.75217  0.68773  1.0000
  Fe  Fe145     1.0  0.11772  0.78802  0.64528  1.0000
  S   S298      1.0  0.10766  0.81135  0.64540  1.0000
  Fe  Fe146     1.0  0.14535  0.76861  0.63333  1.0000
  S   S299      1.0  0.16784  0.76626  0.62001  1.0000
  S   S300      1.0  0.10921  0.76991  0.66148  1.0000
  S   S301      1.0  0.13949  0.74892  0.64850  1.0000
  Fe  Fe147     1.0  0.03236  0.84528  0.68304  1.0000
  S   S302      1.0  0.02780  0.86670  0.66815  1.0000
  S   S303      1.0  0.04249  0.82401  0.67683  1.0000
  Fe  Fe148     1.0  0.03275  0.87559  0.68442  1.0000
  S   S304      1.0  0.04882  0.88989  0.67786  1.0000
  S   S305      1.0  0.03918  0.85381  0.69803  1.0000
  S   S306      1.0  0.00971  0.84673  0.69547  1.0000
  H   H1770     1.0  0.23173  0.82417  0.65383  1.0000
  H   H1771     1.0  0.15546  0.86595  0.63740  1.0000
  H   H1772     1.0  0.18161  0.78823  0.53638  1.0000
  H   H1773     1.0  0.21411  0.74050  0.57611  1.0000
  H   H1774     1.0  0.02127  0.86337  0.63087  1.0000
  S   S307      1.0  0.19128  0.65778  0.60108  1.0000
  H   H1775     1.0  0.23013  0.60979  0.56006  1.0000
  H   H1776     1.0  0.22359  0.66250  0.63178  1.0000
  H   H1777     1.0  0.19449  0.77619  0.66362  1.0000
  S   S308      1.0  0.18933  0.72441  0.57728  1.0000
  C   C1029     1.0  0.20127  0.68917  0.65823  1.0000
  C   C1030     1.0  0.18536  0.95812  0.71223  1.0000
  Fe  Fe149     1.0  0.11778  0.91941  0.69937  1.0000
  S   S309      1.0  0.10989  0.90458  0.71984  1.0000
  S   S310      1.0  0.13440  0.91034  0.68185  1.0000
  H   H1778     1.0  0.21011  0.69006  0.70824  1.0000
  H   H1779     1.0  0.23643  0.77332  0.69388  1.0000
  H   H1780     1.0  0.19194  0.94976  0.71926  1.0000
  Fe  Fe150     1.0  0.08842  0.91913  0.71828  1.0000
  H   H1781     1.0  0.11306  0.84485  0.67318  1.0000
  Fe  Fe151     1.0  0.16146  0.83290  0.67681  1.0000
  S   S311      1.0  0.17586  0.81938  0.69151  1.0000
  S   S312      1.0  0.13934  0.84444  0.68611  1.0000
  Fe  Fe152     1.0  0.18206  0.82321  0.65049  1.0000
  Fe  Fe153     1.0  0.20597  0.70403  0.58121  1.0000
  H   H1782     1.0  0.20155  0.71084  0.64442  1.0000
  Fe  Fe154     1.0  0.17932  0.80247  0.67947  1.0000
  S   S313      1.0  0.18050  0.78039  0.69347  1.0000
  Fe  Fe155     1.0  0.19347  0.82699  0.67396  1.0000
  H   H1783     1.0  0.18679  0.79014  0.55850  1.0000
  S   S314      1.0  0.16341  0.81526  0.66603  1.0000
  S   S315      1.0  0.17889  0.84206  0.66011  1.0000
  H   H1784     1.0  0.21118  0.79047  0.55502  1.0000
  H   H1785     1.0  0.08173  0.90784  0.69377  1.0000
  H   H1786     1.0  0.12086  0.72523  0.70918  1.0000
  H   H1787     1.0  0.19449  0.90055  0.72026  1.0000
  H   H1788     1.0  0.23193  0.73174  0.60831  1.0000
  C   C1031     1.0  0.19400  0.81910  0.61419  1.0000
  H   H1789     1.0  0.21605  0.68606  0.68435  1.0000
  H   H1790     1.0  0.22180  0.71735  0.67856  1.0000
  H   H1791     1.0  0.18536  0.83856  0.69928  1.0000
  H   H1792     1.0  0.07814  0.71744  0.69428  1.0000
  C   C1032     1.0  0.02606  0.95951  0.71236  1.0000
  H   H1793     1.0  0.11327  0.70713  0.70287  1.0000
  C   C1033     1.0  0.13540  0.89214  0.68295  1.0000
  C   C1034     1.0  0.14814  0.88393  0.67650  1.0000
  C   C1035     1.0  0.14948  0.86924  0.67773  1.0000
  C   C1036     1.0  0.13794  0.86276  0.68500  1.0000
  C   C1037     1.0  0.12506  0.87102  0.69125  1.0000
  C   C1038     1.0  0.12383  0.88568  0.69034  1.0000
  H   H1794     1.0  0.15704  0.88891  0.67064  1.0000
  H   H1795     1.0  0.15944  0.86303  0.67295  1.0000
  H   H1796     1.0  0.11606  0.86611  0.69680  1.0000
  H   H1797     1.0  0.11384  0.89203  0.69509  1.0000
  C   C1039     1.0  0.20695  0.63786  0.71212  1.0000
  H   H1798     1.0  0.18134  0.77403  0.56021  1.0000
  H   H1799     1.0  0.21128  0.77078  0.65248  1.0000
  C   C1040     1.0  0.22192  0.72614  0.69603  1.0000
  H   H1800     1.0  0.22124  0.63645  0.52174  1.0000
  C   C1041     1.0  0.19901  0.76824  0.57745  1.0000
  C   C1042     1.0  0.22374  0.67750  0.64377  1.0000
  H   H1801     1.0  0.13672  0.87032  0.64083  1.0000
  H   H1802     1.0  0.16077  0.90559  0.68875  1.0000
  H   H1803     1.0  0.16966  0.97353  0.69190  1.0000
  C   C1043     1.0  0.19226  0.78310  0.53899  1.0000
  C   C1044     1.0  0.16455  0.97948  0.71298  1.0000
  H   H1804     1.0  0.23007  0.78567  0.67123  1.0000
  H   H1805     1.0  0.11901  0.86569  0.63609  1.0000
  C   C1045     1.0  0.15238  0.64412  0.71554  1.0000
  H   H1806     1.0  0.19903  0.79108  0.53375  1.0000
  C   C1046     1.0  0.19047  0.77955  0.55542  1.0000
  H   H1807     1.0  0.07376  0.89988  0.67621  1.0000
  C   C1047     1.0  0.14586  0.86138  0.64293  1.0000
  C   C1048     1.0  0.05382  0.89613  0.69044  1.0000
  C   C1049     1.0  0.06696  0.90033  0.68675  1.0000
  C   C1050     1.0  0.07150  0.90484  0.69669  1.0000
  C   C1051     1.0  0.06282  0.90539  0.71036  1.0000
  C   C1052     1.0  0.04956  0.90148  0.71395  1.0000
  C   C1053     1.0  0.04509  0.89683  0.70407  1.0000
  H   H1808     1.0  0.15576  0.81839  0.63754  1.0000
  H   H1809     1.0  0.03486  0.89384  0.70696  1.0000
  C   C1054     1.0  0.14563  0.76033  0.69144  1.0000
  C   C1055     1.0  0.14500  0.77497  0.68586  1.0000
  C   C1056     1.0  0.15514  0.78133  0.68743  1.0000
  C   C1057     1.0  0.16634  0.77299  0.69396  1.0000
  C   C1058     1.0  0.16657  0.75850  0.70024  1.0000
  C   C1059     1.0  0.15609  0.75218  0.69913  1.0000
  H   H1810     1.0  0.13680  0.78139  0.68016  1.0000
  H   H1811     1.0  0.15440  0.79260  0.68333  1.0000
  H   H1812     1.0  0.17503  0.75207  0.70562  1.0000
  H   H1813     1.0  0.15647  0.74087  0.70368  1.0000
  C   C1060     1.0  0.17296  0.75342  0.60946  1.0000
  C   C1061     1.0  0.18584  0.74316  0.60988  1.0000
  C   C1062     1.0  0.19066  0.73365  0.60051  1.0000
  C   C1063     1.0  0.18288  0.73481  0.59034  1.0000
  C   C1064     1.0  0.17004  0.74507  0.58995  1.0000
  C   C1065     1.0  0.16492  0.75415  0.59969  1.0000
  H   H1814     1.0  0.19217  0.74270  0.61731  1.0000
  H   H1815     1.0  0.20067  0.72586  0.60075  1.0000
  H   H1816     1.0  0.16406  0.74606  0.58201  1.0000
  H   H1817     1.0  0.15509  0.76217  0.59921  1.0000
  C   C1066     1.0  0.08954  0.81491  0.65409  1.0000
  C   C1067     1.0  0.08144  0.80451  0.65755  1.0000
  C   C1068     1.0  0.06700  0.80748  0.66449  1.0000
  C   C1069     1.0  0.06059  0.82083  0.66808  1.0000
  C   C1070     1.0  0.06868  0.83125  0.66474  1.0000
  C   C1071     1.0  0.08314  0.82830  0.65767  1.0000
  H   H1818     1.0  0.08621  0.79428  0.65459  1.0000
  H   H1819     1.0  0.06075  0.79942  0.66703  1.0000
  H   H1820     1.0  0.06376  0.84159  0.66746  1.0000
  H   H1821     1.0  0.08936  0.83641  0.65497  1.0000
  H   H1822     1.0  0.20056  0.89670  0.70294  1.0000
  C   C1072     1.0  0.23263  0.63687  0.54520  1.0000
  C   C1073     1.0  0.16212  0.88170  0.70963  1.0000
  C   C1074     1.0  0.11615  0.85027  0.66172  1.0000
  C   C1075     1.0  0.20104  0.62645  0.64202  1.0000
  C   C1076     1.0  0.20903  0.63698  0.63530  1.0000
  C   C1077     1.0  0.20574  0.64706  0.62293  1.0000
  C   C1078     1.0  0.19459  0.64642  0.61730  1.0000
  C   C1079     1.0  0.18644  0.63608  0.62425  1.0000
  C   C1080     1.0  0.18965  0.62612  0.63662  1.0000
  H   H1823     1.0  0.21800  0.63703  0.63936  1.0000
  H   H1824     1.0  0.21215  0.65495  0.61743  1.0000
  H   H1825     1.0  0.17784  0.63556  0.61988  1.0000
  H   H1826     1.0  0.18350  0.61793  0.64181  1.0000
  H   H1827     1.0  0.15364  0.83918  0.64327  1.0000
  H   H1828     1.0  0.13913  0.81321  0.64775  1.0000
  H   H1829     1.0  0.09077  0.74153  0.68206  1.0000
  H   H1830     1.0  0.21170  0.75720  0.54559  1.0000
  Fe  Fe156     1.0  0.14904  0.69367  0.69649  1.0000
  H   H1831     1.0  0.08463  0.74252  0.70044  1.0000
  S   S316      1.0  0.09619  0.93309  0.69702  1.0000
  H   H1832     1.0  0.23409  0.81653  0.71244  1.0000
  H   H1833     1.0  0.06785  0.87591  0.72580  1.0000
  C   C1081     1.0  0.12786  0.70215  0.67292  1.0000
  C   C1082     1.0  0.12101  0.70024  0.66323  1.0000
  C   C1083     1.0  0.11352  0.71224  0.65477  1.0000
  C   C1084     1.0  0.11283  0.72609  0.65613  1.0000
  C   C1085     1.0  0.11870  0.72777  0.66662  1.0000
  C   C1086     1.0  0.12647  0.71591  0.67471  1.0000
  H   H1834     1.0  0.12176  0.68955  0.66203  1.0000
  H   H1835     1.0  0.10870  0.71085  0.64688  1.0000
  H   H1836     1.0  0.11745  0.73830  0.66843  1.0000
  H   H1837     1.0  0.13132  0.71753  0.68237  1.0000
  C   C1087     1.0  0.17279  0.74867  0.65940  1.0000
  H   H1838     1.0  0.03516  0.97132  0.69185  1.0000
  C   C1088     1.0  0.18049  0.89014  0.71515  1.0000
  C   C1089     1.0  0.21784  0.68795  0.71513  1.0000
  H   H1839     1.0  0.19364  0.65927  0.71006  1.0000
  H   H1840     1.0  0.21447  0.64041  0.70211  1.0000
  Fe  Fe157     1.0  0.01607  0.85714  0.70928  1.0000
  Fe  Fe158     1.0  0.00531  0.86875  0.68164  1.0000
  C   C1090     1.0  0.19704  0.70143  0.64568  1.0000
  H   H1841     1.0  0.03906  0.94887  0.68604  1.0000
  H   H1842     1.0  0.19553  0.96736  0.69017  1.0000
  H   H1843     1.0  0.15364  0.84954  0.62599  1.0000
  S   S317      1.0  0.17186  0.68237  0.69632  1.0000
  C   C1091     1.0  0.23026  0.63698  0.56121  1.0000
  C   C1092     1.0  0.20135  0.84998  0.71874  1.0000
  H   H1844     1.0  0.14867  0.78152  0.72066  1.0000
  Fe  Fe159     1.0  0.20626  0.67271  0.59189  1.0000
  H   H1845     1.0  0.10310  0.73409  0.71552  1.0000
  H   H1846     1.0  0.07258  0.74159  0.69048  1.0000
  H   H1847     1.0  0.19739  0.79071  0.57829  1.0000
  C   C1093     1.0  0.05435  0.94325  0.70031  1.0000
  H   H1848     1.0  0.05012  0.81025  0.72104  1.0000
  C   C1094     1.0  0.22493  0.59143  0.62908  1.0000
  H   H1849     1.0  0.13867  0.86725  0.61337  1.0000
  H   H1850     1.0  0.22596  0.74977  0.64660  1.0000
  H   H1851     1.0  0.22297  0.73583  0.55926  1.0000
  S   S318      1.0  0.18234  0.82856  0.62698  1.0000
  H   H1852     1.0  0.22499  0.64807  0.56270  1.0000
  H   H1853     1.0  0.18050  0.78525  0.58344  1.0000
  H   H1854     1.0  0.20613  0.80297  0.62846  1.0000
  S   S319      1.0  0.00983  0.87963  0.69666  1.0000
  C   C1095     1.0  0.16041  0.97841  0.69950  1.0000
  C   C1096     1.0  0.22845  0.79215  0.67925  1.0000
  S   S320      1.0  0.22713  0.87950  0.71337  1.0000
  C   C1097     1.0  0.08361  0.73747  0.69231  1.0000
  H   H1855     1.0  0.19295  0.97882  0.70223  1.0000
  C   C1098     1.0  0.06966  0.85933  0.70895  1.0000
  N   N74       1.0  0.17185  0.63526  0.69452  1.0000
  C   C1099     1.0  0.16412  0.64748  0.70198  1.0000
  C   C1100     1.0  0.18388  0.64025  0.68277  1.0000
  H   H1856     1.0  0.22763  0.63112  0.59454  1.0000
  C   C1101     1.0  0.16117  0.63165  0.68866  1.0000
  H   H1857     1.0  0.19203  0.88824  0.68704  1.0000
  C   C1102     1.0  0.17954  0.65331  0.67090  1.0000
  C   C1103     1.0  0.19166  0.61216  0.70013  1.0000
  C   C1104     1.0  0.16718  0.62092  0.67876  1.0000
  H   H1858     1.0  0.02628  0.78254  0.72675  1.0000
  H   H1859     1.0  0.22264  0.58905  0.64102  1.0000
  H   H1860     1.0  0.19037  0.63160  0.67713  1.0000
  H   H1861     1.0  0.19143  0.64296  0.68753  1.0000
  C   C1105     1.0  0.21806  0.84386  0.69727  1.0000
  H   H1862     1.0  0.06678  0.85133  0.70493  1.0000
  H   H1863     1.0  0.15298  0.62705  0.69755  1.0000
  H   H1864     1.0  0.15512  0.64156  0.68258  1.0000
  H   H1865     1.0  0.20374  0.77061  0.63296  1.0000
  C   C1106     1.0  0.19540  0.96754  0.70135  1.0000
  H   H1866     1.0  0.18524  0.70513  0.64811  1.0000
  H   H1867     1.0  0.17211  0.65147  0.66546  1.0000
  H   H1868     1.0  0.17488  0.66329  0.67500  1.0000
  H   H1869     1.0  0.18928  0.65515  0.66251  1.0000
  H   H1870     1.0  0.19140  0.60808  0.69096  1.0000
  H   H1871     1.0  0.03995  0.86794  0.72093  1.0000
  H   H1872     1.0  0.08553  0.78227  0.72318  1.0000
  H   H1873     1.0  0.17498  0.62478  0.66904  1.0000
  H   H1874     1.0  0.15828  0.61958  0.67492  1.0000
  H   H1875     1.0  0.17193  0.61017  0.68451  1.0000
  N   N75       1.0  0.09669  0.79362  0.70289  1.0000
  C   C1107     1.0  0.10782  0.80261  0.69845  1.0000
  C   C1108     1.0  0.09336  0.78930  0.71908  1.0000
  C   C1109     1.0  0.08340  0.80298  0.69802  1.0000
  C   C1110     1.0  0.10242  0.78091  0.69586  1.0000
  C   C1111     1.0  0.11202  0.80915  0.68221  1.0000
  H   H1876     1.0  0.22205  0.79897  0.71941  1.0000
  C   C1112     1.0  0.07082  0.79573  0.70086  1.0000
  C   C1113     1.0  0.09689  0.76707  0.70370  1.0000
  H   H1877     1.0  0.10428  0.81162  0.70417  1.0000
  H   H1878     1.0  0.11801  0.79612  0.70152  1.0000
  H   H1879     1.0  0.02944  0.95014  0.72071  1.0000
  C   C1114     1.0  0.17774  0.62260  0.70551  1.0000
  H   H1880     1.0  0.07940  0.81250  0.70303  1.0000
  H   H1881     1.0  0.08569  0.80731  0.68622  1.0000
  H   H1882     1.0  0.10036  0.78395  0.68484  1.0000
  H   H1883     1.0  0.11422  0.77757  0.69432  1.0000
  H   H1884     1.0  0.10368  0.81851  0.67866  1.0000
  H   H1885     1.0  0.12192  0.81317  0.68004  1.0000
  H   H1886     1.0  0.11431  0.80118  0.67552  1.0000
  H   H1887     1.0  0.15178  0.97246  0.70227  1.0000
  H   H1888     1.0  0.21528  0.59898  0.62582  1.0000
  H   H1889     1.0  0.08989  0.69237  0.72485  1.0000
  H   H1890     1.0  0.06139  0.80409  0.69809  1.0000
  H   H1891     1.0  0.05945  0.96963  0.71348  1.0000
  H   H1892     1.0  0.07316  0.78818  0.69370  1.0000
  H   H1893     1.0  0.10128  0.76158  0.71342  1.0000
  H   H1894     1.0  0.10079  0.75948  0.69639  1.0000
  H   H1895     1.0  0.08513  0.76875  0.70669  1.0000
  N   N76       1.0  0.00908  0.83757  0.64658  1.0000
  H   H1896     1.0  0.05827  0.96520  0.67768  1.0000
  H   H1897     1.0  0.21697  0.83693  0.63861  1.0000
  C   C1115     1.0  0.02449  0.83370  0.63887  1.0000
  H   H1898     1.0  0.18715  0.87997  0.71215  1.0000
  H   H1899     1.0  0.21865  0.82093  0.63238  1.0000
  H   H1900     1.0  0.20260  0.67581  0.68910  1.0000
  C   C1116     1.0  0.03266  0.81821  0.64361  1.0000
  C   C1117     1.0  0.00807  0.83701  0.66220  1.0000
  H   H1901     1.0  0.18258  0.80829  0.72216  1.0000
  H   H1902     1.0  0.22861  0.84316  0.69038  1.0000
  H   H1903     1.0  0.14920  0.80625  0.71530  1.0000
  H   H1904     1.0  0.16056  0.92584  0.70606  1.0000
  H   H1905     1.0  0.02529  0.83572  0.62707  1.0000
  H   H1906     1.0  0.03087  0.84058  0.64030  1.0000
  H   H1907     1.0  0.01713  0.84076  0.66340  1.0000
  Fe  Fe160     1.0  0.16498  0.67891  0.72026  1.0000
  H   H1908     1.0  0.08580  0.87260  0.70069  1.0000
  C   C1118     1.0  0.10310  0.98123  0.70851  1.0000
  H   H1909     1.0  0.22573  0.69477  0.70948  1.0000
  C   C1119     1.0  0.19337  0.72398  0.70601  1.0000
  C   C1120     1.0  0.00732  0.82240  0.67290  1.0000
  H   H1910     1.0  0.19121  0.76115  0.63322  1.0000
  H   H1911     1.0  0.03402  0.81603  0.65477  1.0000
  H   H1912     1.0  0.04365  0.81686  0.63677  1.0000
  H   H1913     1.0  0.02779  0.81007  0.64223  1.0000
  H   H1914     1.0  0.23559  0.60821  0.62712  1.0000
  H   H1915     1.0  0.20305  0.78863  0.70980  1.0000
  C   C1121     1.0  0.21412  0.67554  0.68474  1.0000
  H   H1916     1.0  0.17792  0.88453  0.68141  1.0000
  C   C1122     1.0  0.20747  0.83985  0.69351  1.0000
  C   C1123     1.0  0.21546  0.77869  0.55616  1.0000
  C   C1124     1.0  0.19072  0.84599  0.71501  1.0000
  Fe  Fe161     1.0  0.22904  0.68453  0.59637  1.0000
  H   H1917     1.0  0.20831  0.76259  0.58247  1.0000
  H   H1918     1.0  0.17455  0.76678  0.66651  1.0000
  H   H1919     1.0  0.12148  0.85871  0.66151  1.0000
  H   H1920     1.0  0.16831  0.79256  0.72147  1.0000
  Fe  Fe162     1.0  0.10023  0.94640  0.70998  1.0000
  H   H1921     1.0  0.21559  0.83815  0.62077  1.0000
  C   C1125     1.0  0.98881  0.81694  0.72523  1.0000
  S   S321      1.0  0.19373  0.71268  0.68358  1.0000
  H   H1922     1.0  0.22877  0.70948  0.60411  1.0000
  H   H1923     1.0  0.22594  0.73278  0.64385  1.0000
  C   C1126     1.0  0.20910  0.62400  0.72083  1.0000
  H   H1924     1.0  0.22802  0.74931  0.56438  1.0000
  C   C1127     1.0  0.03254  0.82727  0.72671  1.0000
  C   C1128     1.0  0.17066  0.90216  0.69301  1.0000
  H   H1925     1.0  0.19134  0.76107  0.58159  1.0000
  N   N77       1.0  0.16748  0.89483  0.70869  1.0000
  H   H1926     1.0  0.13391  0.83231  0.65956  1.0000
  S   S322      1.0  0.22319  0.61010  0.71550  1.0000
  C   C1129     1.0  0.23667  0.70891  0.60993  1.0000
  S   S323      1.0  0.09325  0.97072  0.70493  1.0000
  C   C1130     1.0  0.19199  0.78170  0.58381  1.0000
  N   N78       1.0  0.20341  0.77076  0.56127  1.0000
  C   C1131     1.0  0.20756  0.75631  0.55731  1.0000
  C   C1132     1.0  0.10636  0.78159  0.72596  1.0000
  C   C1133     1.0  0.08724  0.72083  0.69588  1.0000
  C   C1134     1.0  0.19373  0.84112  0.70230  1.0000
  S   S324      1.0  0.20571  0.68718  0.57021  1.0000
  N   N79       1.0  0.05315  0.95854  0.70099  1.0000
  H   H1927     1.0  0.22234  0.79096  0.60890  1.0000
  C   C1135     1.0  0.22620  0.77634  0.54199  1.0000
  H   H1928     1.0  0.19965  0.73843  0.64787  1.0000
  C   C1136     1.0  0.20233  0.76654  0.66054  1.0000
  H   H1929     1.0  0.99283  0.82465  0.71542  1.0000
  C   C1137     1.0  0.12894  0.86329  0.61464  1.0000
  S   S325      1.0  0.22992  0.70069  0.57545  1.0000
  C   C1138     1.0  0.21883  0.74496  0.56476  1.0000
  N   N80       1.0  0.17208  0.96562  0.72128  1.0000
  H   H1930     1.0  0.18394  0.83351  0.59742  1.0000
  H   H1931     1.0  0.04272  0.90200  0.72446  1.0000
  H   H1932     1.0  0.99831  0.84465  0.66629  1.0000
  H   H1933     1.0  0.19981  0.82168  0.57824  1.0000
  H   H1934     1.0  0.02055  0.80164  0.72280  1.0000
  H   H1935     1.0  0.13507  0.82018  0.72040  1.0000
  H   H1936     1.0  0.11882  0.83179  0.65365  1.0000
  H   H1937     1.0  0.20654  0.96283  0.70276  1.0000
  H   H1938     1.0  0.17067  0.87378  0.70427  1.0000
  N   N81       1.0  0.15272  0.70562  0.62017  1.0000
  C   C1139     1.0  0.14617  0.71901  0.61048  1.0000
  C   C1140     1.0  0.16727  0.69954  0.61190  1.0000
  C   C1141     1.0  0.15435  0.70881  0.63354  1.0000
  C   C1142     1.0  0.14306  0.69516  0.62464  1.0000
  C   C1143     1.0  0.13238  0.72834  0.61760  1.0000
  C   C1144     1.0  0.16731  0.69280  0.59964  1.0000
  C   C1145     1.0  0.16316  0.72014  0.63099  1.0000
  C   C1146     1.0  0.14843  0.68042  0.63410  1.0000
  H   H1939     1.0  0.15389  0.72606  0.60518  1.0000
  H   H1940     1.0  0.14354  0.71629  0.60151  1.0000
  H   H1941     1.0  0.17380  0.69139  0.61911  1.0000
  H   H1942     1.0  0.17355  0.70804  0.60686  1.0000
  H   H1943     1.0  0.14374  0.71232  0.64047  1.0000
  H   H1944     1.0  0.15960  0.69892  0.64035  1.0000
  H   H1945     1.0  0.13253  0.69969  0.63102  1.0000
  H   H1946     1.0  0.14025  0.69341  0.61525  1.0000
  H   H1947     1.0  0.12860  0.73769  0.60931  1.0000
  H   H1948     1.0  0.12361  0.72249  0.62232  1.0000
  H   H1949     1.0  0.13417  0.73282  0.62584  1.0000
  H   H1950     1.0  0.17848  0.68974  0.59369  1.0000
  H   H1951     1.0  0.16316  0.68282  0.60379  1.0000
  H   H1952     1.0  0.16135  0.70041  0.59170  1.0000
  H   H1953     1.0  0.15848  0.73065  0.62473  1.0000
  H   H1954     1.0  0.17442  0.71653  0.62559  1.0000
  H   H1955     1.0  0.16322  0.72193  0.64153  1.0000
  H   H1956     1.0  0.14539  0.68085  0.64565  1.0000
  H   H1957     1.0  0.16011  0.67636  0.63117  1.0000
  H   H1958     1.0  0.14367  0.67224  0.63254  1.0000
  H   H1959     1.0  0.21716  0.67465  0.51765  1.0000
  H   H1960     1.0  0.09036  0.87638  0.72553  1.0000
  H   H1961     1.0  0.22210  0.77579  0.56430  1.0000
  H   H1962     1.0  0.19639  0.69331  0.66815  1.0000
  H   H1963     1.0  0.20608  0.67025  0.64045  1.0000
  H   H1964     1.0  0.14836  0.92505  0.72302  1.0000
  H   H1965     1.0  0.21190  0.62349  0.60083  1.0000
  H   H1966     1.0  0.15879  0.65683  0.69465  1.0000
  H   H1967     1.0  0.18487  0.90012  0.67227  1.0000
  H   H1968     1.0  0.22593  0.61745  0.52150  1.0000
  S   S326      1.0  0.12272  0.93409  0.71001  1.0000
  C   C1147     1.0  0.21279  0.78434  0.71434  1.0000
  S   S327      1.0  0.21771  0.91896  0.71815  1.0000
  H   H1969     1.0  0.19563  0.68054  0.65951  1.0000
  H   H1970     1.0  0.19249  0.77905  0.59533  1.0000
  C   C1148     1.0  0.11486  0.97482  0.71486  1.0000
  C   C1149     1.0  0.18206  0.89310  0.68304  1.0000
  H   H1971     1.0  0.19799  0.75158  0.55992  1.0000
  C   C1150     1.0  0.22420  0.69516  0.65630  1.0000
  C   C1151     1.0  0.08344  0.86316  0.69866  1.0000
  Fe  Fe163     1.0  0.22957  0.68232  0.56665  1.0000
  H   H1972     1.0  0.22108  0.77830  0.53289  1.0000
  C   C1152     1.0  0.18208  0.78153  0.63943  1.0000
  H   H1973     1.0  0.17122  0.77936  0.64399  1.0000
  C   C1153     1.0  0.20476  0.74408  0.65263  1.0000
  C   C1154     1.0  0.13663  0.83238  0.62992  1.0000
  H   H1974     1.0  0.22191  0.62302  0.61309  1.0000
  C   C1155     1.0  0.09919  0.68842  0.70362  1.0000
  C   C1156     1.0  0.21908  0.67129  0.67004  1.0000
  C   C1157     1.0  0.21724  0.66601  0.64181  1.0000
  H   H1975     1.0  0.09642  0.71736  0.68732  1.0000
  H   H1976     1.0  0.17184  0.65144  0.70529  1.0000
  C   C1158     1.0  0.19524  0.64855  0.71664  1.0000
  C   C1159     1.0  0.23199  0.60748  0.59910  1.0000
  C   C1160     1.0  0.21559  0.72075  0.68833  1.0000
  C   C1161     1.0  0.16161  0.95584  0.72706  1.0000
  C   C1162     1.0  0.05964  0.95853  0.71303  1.0000
  H   H1977     1.0  0.21165  0.76531  0.67834  1.0000
  C   C1163     1.0  0.01086  0.86429  0.63871  1.0000
  N   N82       1.0  0.23732  0.79155  0.70154  1.0000
  Fe  Fe164     1.0  0.22400  0.89521  0.72702  1.0000
  H   H1978     1.0  0.20000  0.75332  0.68280  1.0000
  H   H1979     1.0  0.10608  0.85525  0.65787  1.0000
  Fe  Fe165     1.0  0.17503  0.70350  0.69739  1.0000
  C   C1164     1.0  0.14505  0.81777  0.63695  1.0000
  H   H1980     1.0  0.11308  0.85320  0.63088  1.0000
  C   C1165     1.0  0.15551  0.90453  0.71690  1.0000
  H   H1981     1.0  0.02061  0.95627  0.70580  1.0000
  C   C1166     1.0  0.21394  0.80023  0.60647  1.0000
  H   H1982     1.0  0.18219  0.72362  0.70965  1.0000
  H   H1983     1.0  0.14680  0.80997  0.63016  1.0000
  S   S328      1.0  0.22246  0.73671  0.71826  1.0000
  S   S329      1.0  0.22309  0.79805  0.57778  1.0000
  N   N83       1.0  0.19557  0.75862  0.65418  1.0000
  H   H1984     1.0  0.10980  0.73327  0.69668  1.0000
  S   S330      1.0  0.15296  0.71522  0.69524  1.0000
  H   H1985     1.0  0.14317  0.83529  0.61890  1.0000
  H   H1986     1.0  0.21765  0.70223  0.66373  1.0000
  C   C1167     1.0  0.20131  0.71965  0.69332  1.0000
  H   H1987     1.0  0.09959  0.69345  0.69210  1.0000
  H   H1988     1.0  0.23690  0.84510  0.65774  1.0000
  H   H1989     1.0  0.20577  0.73702  0.66331  1.0000
  H   H1990     1.0  0.12671  0.83038  0.62849  1.0000
  H   H1991     1.0  0.22472  0.60014  0.60084  1.0000
  H   H1992     1.0  0.04848  0.93723  0.71028  1.0000
  H   H1993     1.0  0.22029  0.66768  0.69242  1.0000
  C   C1168     1.0  0.22213  0.79571  0.70962  1.0000
  H   H1994     1.0  0.05754  0.94261  0.67763  1.0000
  H   H1995     1.0  0.21766  0.74938  0.67148  1.0000
  H   H1996     1.0  0.06564  0.93719  0.69952  1.0000
  C   C1169     1.0  0.22298  0.62213  0.60202  1.0000
  H   H1997     1.0  0.22322  0.68632  0.63409  1.0000
  H   H1998     1.0  0.22188  0.64038  0.54258  1.0000
  H   H1999     1.0  0.11204  0.78946  0.72659  1.0000
  H   H2000     1.0  0.17413  0.91227  0.69125  1.0000
  H   H2001     1.0  0.17479  0.74999  0.64765  1.0000
  H   H2002     1.0  0.02951  0.82986  0.71651  1.0000
  H   H2003     1.0  0.00428  0.87508  0.63508  1.0000
  S   S331      1.0  0.21177  0.83298  0.67800  1.0000
  C   C1170     1.0  0.20481  0.80701  0.61751  1.0000
  H   H2004     1.0  0.01238  0.86399  0.64940  1.0000
  H   H2005     1.0  0.09562  0.67823  0.70581  1.0000
  C   C1171     1.0  0.18151  0.75648  0.66414  1.0000
  H   H2006     1.0  0.08174  0.86641  0.68749  1.0000
  C   C1172     1.0  0.21505  0.84885  0.70990  1.0000
  C   C1173     1.0  0.12292  0.85669  0.63047  1.0000
  H   H2007     1.0  0.01273  0.81282  0.66837  1.0000
  H   H2008     1.0  0.18319  0.74995  0.67486  1.0000
  H   H2009     1.0  0.23533  0.80500  0.64283  1.0000
  H   H2010     1.0  0.99608  0.82189  0.67837  1.0000
  H   H2011     1.0  0.13114  0.85568  0.60757  1.0000
  S   S332      1.0  0.20516  0.68970  0.60319  1.0000
  H   H2012     1.0  0.12081  0.87270  0.61073  1.0000
  H   H2013     1.0  0.18033  0.62634  0.71389  1.0000
  H   H2014     1.0  0.21805  0.77394  0.71133  1.0000
  C   C1174     1.0  0.19225  0.82421  0.60004  1.0000
  C   C1175     1.0  0.10546  0.71283  0.71092  1.0000
  C   C1176     1.0  0.04926  0.94137  0.68774  1.0000
  H   H2015     1.0  0.19635  0.77348  0.53428  1.0000
  H   H2016     1.0  0.16122  0.75316  0.66294  1.0000
  N   N84       1.0  0.13305  0.84438  0.63780  1.0000
  H   H2017     1.0  0.17500  0.73700  0.66437  1.0000
  H   H2018     1.0  0.16523  0.77008  0.72489  1.0000
  C   C1177     1.0  0.00294  0.85275  0.63940  1.0000
  H   H2019     1.0  0.22510  0.70247  0.64544  1.0000
  H   H2020     1.0  0.22664  0.58115  0.62589  1.0000
  H   H2021     1.0  0.01261  0.82160  0.68165  1.0000
  C   C1178     1.0  0.14686  0.84824  0.63708  1.0000
  C   C1179     1.0  0.12584  0.83897  0.65319  1.0000
  H   H2022     1.0  0.16959  0.61609  0.71148  1.0000
  S   S333      1.0  0.23005  0.66599  0.58732  1.0000
  C   C1180     1.0  0.13935  0.80844  0.72357  1.0000
  C   C1181     1.0  0.06254  0.98116  0.68539  1.0000
  H   H2023     1.0  0.14337  0.64152  0.71304  1.0000
  H   H2024     1.0  0.08805  0.79892  0.72376  1.0000
  C   C1182     1.0  0.20818  0.75796  0.67402  1.0000
  H   H2025     1.0  0.21704  0.79352  0.68485  1.0000
  H   H2026     1.0  0.22300  0.62994  0.56821  1.0000
  H   H2027     1.0  0.14560  0.85824  0.65462  1.0000
  N   N85       1.0  0.21706  0.68330  0.65715  1.0000
  H   H2028     1.0  0.22114  0.68009  0.53908  1.0000
  H   H2029     1.0  0.01767  0.96721  0.71811  1.0000
  H   H2030     1.0  0.03703  0.97697  0.70659  1.0000
  H   H2031     1.0  0.21299  0.66314  0.67097  1.0000
  H   H2032     1.0  0.20901  0.78203  0.72621  1.0000
  C   C1183     1.0  0.21215  0.80560  0.59225  1.0000
  H   H2033     1.0  0.20014  0.69785  0.63540  1.0000
  C   C1184     1.0  0.21986  0.74407  0.64314  1.0000
  H   H2034     1.0  0.11799  0.96327  0.71784  1.0000
  H   H2035     1.0  0.19686  0.97314  0.72562  1.0000
  H   H2036     1.0  0.20095  0.61727  0.69708  1.0000
  H   H2037     1.0  0.22051  0.61569  0.54646  1.0000
  C   C1185     1.0  0.15664  0.87327  0.72491  1.0000
  C   C1186     1.0  0.22994  0.62746  0.51853  1.0000
  C   C1187     1.0  0.23013  0.67569  0.53136  1.0000
  C   C1188     1.0  0.19978  0.72922  0.71383  1.0000
  H   H2038     1.0  0.09670  0.86000  0.71969  1.0000
  H   H2039     1.0  0.23068  0.80275  0.67321  1.0000
  H   H2040     1.0  0.13162  0.97830  0.72238  1.0000
  H   H2041     1.0  0.22907  0.59156  0.54567  1.0000
  H   H2042     1.0  0.18399  0.78869  0.64517  1.0000
  C   C1189     1.0  0.20125  0.81751  0.58917  1.0000
  Fe  Fe166     1.0  0.14781  0.70933  0.71936  1.0000
  H   H2043     1.0  0.21623  0.80551  0.70320  1.0000
  C   C1190     1.0  0.23163  0.61180  0.54820  1.0000
  H   H2044     1.0  0.23532  0.67268  0.64321  1.0000
  H   H2045     1.0  0.21799  0.65632  0.65059  1.0000
  C   C1191     1.0  0.10971  0.72731  0.70791  1.0000
  S   S334      1.0  0.23673  0.66241  0.49450  1.0000
  H   H2046     1.0  0.11408  0.77366  0.72002  1.0000
  H   H2047     1.0  0.23312  0.63017  0.50661  1.0000
  H   H2048     1.0  0.19379  0.60273  0.70903  1.0000
  H   H2049     1.0  0.14561  0.90682  0.71276  1.0000
  S   S335      1.0  0.06811  0.91077  0.72332  1.0000
  H   H2050     1.0  0.04754  0.93029  0.69007  1.0000
  C   C1192     1.0  0.22790  0.67261  0.51925  1.0000
  H   H2051     1.0  0.99175  0.85647  0.64509  1.0000
  H   H2052     1.0  0.07112  0.95299  0.71113  1.0000
  H   H2053     1.0  0.22337  0.85175  0.71280  1.0000
  H   H2054     1.0  0.07783  0.69765  0.71315  1.0000
  H   H2055     1.0  0.23288  0.72709  0.69212  1.0000
  H   H2056     1.0  0.15324  0.88465  0.70386  1.0000
  S   S336      1.0  0.14181  0.68881  0.72051  1.0000
  H   H2057     1.0  0.21951  0.74874  0.63167  1.0000
  C   C1193     1.0  0.22135  0.83161  0.62937  1.0000
  H   H2058     1.0  0.18630  0.91188  0.70615  1.0000
  H   H2059     1.0  0.09277  0.85400  0.69889  1.0000
  H   H2060     1.0  0.19361  0.73260  0.72361  1.0000
  H   H2061     1.0  0.23030  0.66518  0.66883  1.0000
  H   H2062     1.0  0.07342  0.95908  0.68560  1.0000
  C   C1194     1.0  0.19077  0.90058  0.71069  1.0000
  C   C1195     1.0  0.03799  0.96725  0.70258  1.0000
  H   H2063     1.0  0.14791  0.65385  0.72015  1.0000
  C   C1196     1.0  0.06214  0.96533  0.68711  1.0000
  H   H2064     1.0  0.15875  0.95323  0.71817  1.0000
  H   H2065     1.0  0.15660  0.63544  0.72409  1.0000
  H   H2066     1.0  0.23045  0.94118  0.71879  1.0000
  C   C1197     1.0  0.00074  0.82801  0.64453  1.0000
  H   H2067     1.0  0.08161  0.73065  0.72223  1.0000
  C   C1198     1.0  0.08012  0.71995  0.72250  1.0000
  H   H2068     1.0  0.23638  0.60955  0.58732  1.0000
  H   H2069     1.0  0.15477  0.86304  0.72410  1.0000
  N   N86       1.0  0.09033  0.71332  0.71051  1.0000
  H   H2070     1.0  0.00452  0.81658  0.64939  1.0000
  H   H2071     1.0  0.06762  0.79034  0.71226  1.0000
  N   N87       1.0  0.06994  0.85396  0.72468  1.0000
  S   S337      1.0  0.17033  0.69890  0.72140  1.0000
  H   H2072     1.0  0.10776  0.70655  0.72153  1.0000
  H   H2073     1.0  0.13158  0.80268  0.72288  1.0000
  H   H2074     1.0  0.23307  0.84999  0.64033  1.0000
  H   H2075     1.0  0.06087  0.72743  0.71316  1.0000
  C   C1199     1.0  0.06410  0.72155  0.72340  1.0000
  H   H2076     1.0  0.00241  0.85332  0.62818  1.0000
  H   H2077     1.0  0.23312  0.76541  0.54324  1.0000
  H   H2078     1.0  0.07730  0.83203  0.72202  1.0000
  H   H2079     1.0  0.06130  0.86924  0.70722  1.0000
  H   H2080     1.0  0.00240  0.82830  0.63288  1.0000
  H   H2081     1.0  0.17731  0.88760  0.72711  1.0000
  H   H2082     1.0  0.18012  0.84686  0.72181  1.0000
  H   H2083     1.0  0.23608  0.81279  0.68742  1.0000
  H   H2084     1.0  0.16665  0.91745  0.72287  1.0000
  H   H2085     1.0  0.11012  0.68535  0.70572  1.0000
  C   C1200     1.0  0.08872  0.69798  0.71368  1.0000
  H   H2086     1.0  0.22365  0.67665  0.71579  1.0000
  C   C1201     1.0  0.08021  0.83956  0.72667  1.0000
  H   H2087     1.0  0.23345  0.78391  0.53897  1.0000
  H   H2088     1.0  0.16431  0.81762  0.72495  1.0000
  H   H2089     1.0  0.99143  0.80666  0.72187  1.0000
  C   C1202     1.0  0.19868  0.86578  0.92609  1.0000
  Fe  Fe167     1.0  0.20856  0.74037  0.73955  1.0000
  H   H2090     1.0  0.08183  0.83925  0.74860  1.0000
  H   H2091     1.0  0.15678  0.86914  0.92173  1.0000
  C   C1203     1.0  0.20296  0.72610  0.82479  1.0000
  C   C1204     1.0  0.08759  0.81109  0.86667  1.0000
  H   H2092     1.0  0.23730  0.76765  0.77257  1.0000
  H   H2093     1.0  0.09057  0.82301  0.74245  1.0000
  C   C1205     1.0  0.20301  0.66886  0.74149  1.0000
  C   C1206     1.0  0.07441  0.78071  0.86007  1.0000
  H   H2094     1.0  0.11893  0.85319  0.91977  1.0000
  Fe  Fe168     1.0  0.05688  0.76182  0.79223  1.0000
  S   S338      1.0  0.07193  0.76179  0.77085  1.0000
  S   S339      1.0  0.06744  0.75725  0.81114  1.0000
  Fe  Fe169     1.0  0.03082  0.76471  0.77950  1.0000
  S   S340      1.0  0.04426  0.76512  0.75717  1.0000
  Fe  Fe170     1.0  0.05987  0.74733  0.76785  1.0000
  S   S341      1.0  0.07113  0.72752  0.75917  1.0000
  Fe  Fe171     1.0  0.05507  0.77952  0.76228  1.0000
  S   S342      1.0  0.06240  0.79798  0.74556  1.0000
  S   S343      1.0  0.04585  0.74578  0.78998  1.0000
  S   S344      1.0  0.04051  0.78081  0.78384  1.0000
  S   S345      1.0  0.00655  0.76764  0.78384  1.0000
  H   H2095     1.0  0.20373  0.77345  0.82499  1.0000
  C   C1207     1.0  0.21945  0.94820  0.73847  1.0000
  S   S346      1.0  0.17012  0.94370  0.78439  1.0000
  H   H2096     1.0  0.21808  0.79516  0.96104  1.0000
  C   C1208     1.0  0.21725  0.77743  0.76628  1.0000
  S   S347      1.0  0.14519  0.96795  0.79957  1.0000
  H   H2097     1.0  0.20518  0.79231  0.80248  1.0000
  Fe  Fe172     1.0  0.16370  0.95048  0.80546  1.0000
  S   S348      1.0  0.15927  0.93478  0.82643  1.0000
  Fe  Fe173     1.0  0.15299  0.96250  0.77791  1.0000
  H   H2098     1.0  0.15749  0.83714  0.90741  1.0000
  S   S349      1.0  0.17900  0.96515  0.79961  1.0000
  S   S350      1.0  0.18740  0.75583  0.74292  1.0000
  Fe  Fe174     1.0  0.20500  0.86867  0.86221  1.0000
  C   C1209     1.0  0.16799  0.84169  0.92087  1.0000
  H   H2099     1.0  0.18066  0.62901  0.74871  1.0000
  Fe  Fe175     1.0  0.18327  0.84997  0.87418  1.0000
  H   H2100     1.0  0.19350  0.80477  0.94635  1.0000
  S   S351      1.0  0.16217  0.84597  0.87408  1.0000
  H   H2101     1.0  0.13647  0.84114  0.94346  1.0000
  H   H2102     1.0  0.18873  0.82986  0.80545  1.0000
  N   N88       1.0  0.19850  0.82177  0.78599  1.0000
  C   C1210     1.0  0.20592  0.91137  0.78621  1.0000
  S   S352      1.0  0.18515  0.86955  0.87998  1.0000
  C   C1211     1.0  0.13709  0.85183  0.93609  1.0000
  Fe  Fe176     1.0  0.11953  0.79008  0.83325  1.0000
  S   S353      1.0  0.12179  0.76971  0.85012  1.0000
  S   S354      1.0  0.10192  0.79785  0.82065  1.0000
  Fe  Fe177     1.0  0.14627  0.79724  0.83662  1.0000
  S   S355      1.0  0.15082  0.77716  0.85339  1.0000
  S   S356      1.0  0.16199  0.81176  0.82898  1.0000
  Fe  Fe178     1.0  0.14500  0.76644  0.83935  1.0000
  S   S357      1.0  0.15791  0.74509  0.83493  1.0000
  Fe  Fe179     1.0  0.12729  0.78242  0.86266  1.0000
  S   S358      1.0  0.11837  0.77944  0.88668  1.0000
  S   S359      1.0  0.14259  0.78604  0.82163  1.0000
  S   S360      1.0  0.12297  0.80332  0.84670  1.0000
  H   H2103     1.0  0.14534  0.85525  0.93902  1.0000
  C   C1212     1.0  0.20693  0.88659  0.92625  1.0000
  C   C1213     1.0  0.20305  0.68561  0.75600  1.0000
  C   C1214     1.0  0.19585  0.81333  0.97010  1.0000
  S   S361      1.0  0.20217  0.72323  0.75879  1.0000
  H   H2104     1.0  0.18081  0.76887  0.81516  1.0000
  Fe  Fe180     1.0  0.18194  0.73982  0.76341  1.0000
  S   S362      1.0  0.15929  0.73796  0.77338  1.0000
  C   C1215     1.0  0.19602  0.87257  0.94865  1.0000
  C   C1216     1.0  0.20265  0.88401  0.94133  1.0000
  H   H2105     1.0  0.00098  0.78747  0.73507  1.0000
  C   C1217     1.0  0.14277  0.86437  0.90998  1.0000
  S   S363      1.0  0.19734  0.85287  0.91764  1.0000
  C   C1218     1.0  0.18745  0.76141  0.80822  1.0000
  H   H2106     1.0  0.17919  0.73399  0.96841  1.0000
  H   H2107     1.0  0.99666  0.82639  0.76118  1.0000
  H   H2108     1.0  0.17675  0.83206  0.91990  1.0000
  H   H2109     1.0  0.21844  0.94108  0.93554  1.0000
  C   C1219     1.0  0.12923  0.84524  0.91819  1.0000
  H   H2110     1.0  0.12619  0.78427  0.93177  1.0000
  C   C1220     1.0  0.14175  0.80470  0.73904  1.0000
  S   S364      1.0  0.14386  0.80576  0.92316  1.0000
  C   C1221     1.0  0.99937  0.81529  0.76753  1.0000
  H   H2111     1.0  0.16675  0.84351  0.93171  1.0000
  H   H2112     1.0  0.17162  0.85064  0.91236  1.0000
  H   H2113     1.0  0.13306  0.85197  0.89442  1.0000
  H   H2114     1.0  0.12148  0.83968  0.90246  1.0000
  H   H2115     1.0  0.14899  0.86222  0.89929  1.0000
  C   C1222     1.0  0.17964  0.79651  0.86886  1.0000
  H   H2116     1.0  0.21169  0.78856  0.90222  1.0000
  S   S365      1.0  0.21154  0.88646  0.84369  1.0000
  H   H2117     1.0  0.18545  0.81762  0.76526  1.0000
  H   H2118     1.0  0.01575  0.74685  0.76525  1.0000
  H   H2119     1.0  0.19571  0.84212  0.77020  1.0000
  H   H2120     1.0  0.20439  0.67723  0.76594  1.0000
  H   H2121     1.0  0.20816  0.69401  0.75645  1.0000
  S   S366      1.0  0.21002  0.88398  0.74614  1.0000
  C   C1223     1.0  0.18600  0.97826  0.73078  1.0000
  C   C1224     1.0  0.12598  0.78626  0.89680  1.0000
  C   C1225     1.0  0.12299  0.78197  0.91188  1.0000
  C   C1226     1.0  0.12860  0.78760  0.92017  1.0000
  C   C1227     1.0  0.13700  0.79777  0.91342  1.0000
  C   C1228     1.0  0.13997  0.80203  0.89834  1.0000
  C   C1229     1.0  0.13465  0.79619  0.89006  1.0000
  H   H2122     1.0  0.11629  0.77430  0.91718  1.0000
  H   H2123     1.0  0.23158  0.89686  0.76279  1.0000
  H   H2124     1.0  0.14635  0.80998  0.89299  1.0000
  H   H2125     1.0  0.13697  0.79962  0.87847  1.0000
  C   C1230     1.0  0.15675  0.74223  0.81862  1.0000
  C   C1231     1.0  0.16631  0.73075  0.81315  1.0000
  C   C1232     1.0  0.16667  0.72914  0.79947  1.0000
  C   C1233     1.0  0.15723  0.73880  0.79131  1.0000
  C   C1234     1.0  0.14721  0.74993  0.79701  1.0000
  C   C1235     1.0  0.14698  0.75165  0.81066  1.0000
  H   H2126     1.0  0.17376  0.72334  0.81930  1.0000
  H   H2127     1.0  0.17452  0.72061  0.79507  1.0000
  H   H2128     1.0  0.14000  0.75755  0.79073  1.0000
  H   H2129     1.0  0.13940  0.76039  0.81491  1.0000
  H   H2130     1.0  0.12237  0.86437  0.95105  1.0000
  C   C1236     1.0  0.08099  0.83196  0.74236  1.0000
  H   H2131     1.0  0.98973  0.81230  0.77535  1.0000
  H   H2132     1.0  0.00179  0.73586  0.75567  1.0000
  H   H2133     1.0  0.10258  0.77584  0.73716  1.0000
  H   H2134     1.0  0.11104  0.98176  0.77047  1.0000
  S   S367      1.0  0.20186  0.85032  0.85538  1.0000
  S   S368      1.0  0.16720  0.97826  0.76983  1.0000
  C   C1237     1.0  0.21324  0.81433  0.77936  1.0000
  C   C1238     1.0  0.06533  0.78817  0.84871  1.0000
  C   C1239     1.0  0.16242  0.83602  0.86180  1.0000
  C   C1240     1.0  0.15046  0.83057  0.86315  1.0000
  C   C1241     1.0  0.15033  0.82289  0.85326  1.0000
  C   C1242     1.0  0.16203  0.82091  0.84179  1.0000
  C   C1243     1.0  0.17394  0.82642  0.84040  1.0000
  C   C1244     1.0  0.17421  0.83380  0.85045  1.0000
  H   H2135     1.0  0.14128  0.83223  0.87188  1.0000
  H   H2136     1.0  0.14107  0.81869  0.85442  1.0000
  H   H2137     1.0  0.18305  0.82483  0.83163  1.0000
  H   H2138     1.0  0.18348  0.83786  0.84929  1.0000
  H   H2139     1.0  0.17307  0.79453  0.86250  1.0000
  S   S369      1.0  0.21981  0.85477  0.87661  1.0000
  C   C1245     1.0  0.19914  0.82875  0.79747  1.0000
  C   C1246     1.0  0.17428  0.92271  0.83183  1.0000
  C   C1247     1.0  0.18787  0.92204  0.82279  1.0000
  C   C1248     1.0  0.19941  0.91119  0.82681  1.0000
  C   C1249     1.0  0.19733  0.90088  0.83966  1.0000
  C   C1250     1.0  0.18383  0.90189  0.84884  1.0000
  C   C1251     1.0  0.17236  0.91284  0.84499  1.0000
  H   H2140     1.0  0.18942  0.92975  0.81267  1.0000
  H   H2141     1.0  0.20114  0.82469  0.75520  1.0000
  H   H2142     1.0  0.18217  0.89427  0.85891  1.0000
  H   H2143     1.0  0.16190  0.91353  0.85212  1.0000
  H   H2144     1.0  0.20883  0.87915  0.90709  1.0000
  H   H2145     1.0  0.18365  0.83564  0.75542  1.0000
  H   H2146     1.0  0.19303  0.76294  0.90011  1.0000
  C   C1252     1.0  0.15450  0.83897  0.91851  1.0000
  H   H2147     1.0  0.22446  0.78603  0.88606  1.0000
  C   C1253     1.0  0.00420  0.74980  0.76772  1.0000
  C   C1254     1.0  0.05260  0.95165  0.72836  1.0000
  C   C1255     1.0  0.19088  0.83259  0.77500  1.0000
  H   H2148     1.0  0.19386  0.80690  0.90785  1.0000
  H   H2149     1.0  0.21884  0.80712  0.78785  1.0000
  H   H2150     1.0  0.21735  0.93271  0.79511  1.0000
  H   H2151     1.0  0.17464  0.80722  0.87127  1.0000
  H   H2152     1.0  0.15277  0.82861  0.92583  1.0000
  H   H2153     1.0  0.12743  0.83516  0.92621  1.0000
  H   H2154     1.0  0.17968  0.83700  0.78023  1.0000
  C   C1256     1.0  0.07756  0.76849  0.81299  1.0000
  C   C1257     1.0  0.08623  0.76324  0.82315  1.0000
  C   C1258     1.0  0.09439  0.77183  0.82501  1.0000
  C   C1259     1.0  0.09340  0.78604  0.81724  1.0000
  C   C1260     1.0  0.08473  0.79130  0.80709  1.0000
  C   C1261     1.0  0.07703  0.78251  0.80480  1.0000
  H   H2155     1.0  0.08666  0.75244  0.82959  1.0000
  H   H2156     1.0  0.10111  0.76759  0.83276  1.0000
  H   H2157     1.0  0.08386  0.80229  0.80106  1.0000
  H   H2158     1.0  0.07035  0.78670  0.79699  1.0000
  C   C1262     1.0  0.04773  0.81200  0.74271  1.0000
  C   C1263     1.0  0.03972  0.81931  0.75355  1.0000
  C   C1264     1.0  0.02829  0.83092  0.75079  1.0000
  C   C1265     1.0  0.02479  0.83495  0.73729  1.0000
  H   H2159     1.0  0.08207  0.75869  0.88309  1.0000
  C   C1266     1.0  0.23165  0.77643  0.76558  1.0000
  H   H2160     1.0  0.04247  0.81616  0.76397  1.0000
  H   H2161     1.0  0.02225  0.83681  0.75902  1.0000
  H   H2162     1.0  0.23005  0.91766  0.80289  1.0000
  C   C1267     1.0  0.08576  0.78052  0.87893  1.0000
  C   C1268     1.0  0.21705  0.79881  0.74715  1.0000
  H   H2163     1.0  0.09648  0.80535  0.87224  1.0000
  H   H2164     1.0  0.20808  0.76694  0.80319  1.0000
  H   H2165     1.0  0.18844  0.85503  0.94682  1.0000
  H   H2166     1.0  0.13991  0.77870  0.77096  1.0000
  H   H2167     1.0  0.19244  0.87066  0.96018  1.0000
  H   H2168     1.0  0.12167  0.87269  0.93267  1.0000
  H   H2169     1.0  0.06956  0.76967  0.89512  1.0000
  C   C1269     1.0  0.15035  0.77816  0.74326  1.0000
  H   H2170     1.0  0.23170  0.68911  0.75036  1.0000
  C   C1270     1.0  0.14983  0.87438  0.91395  1.0000
  H   H2171     1.0  0.20726  0.82185  0.80371  1.0000
  H   H2172     1.0  0.21274  0.80686  0.77311  1.0000
  C   C1271     1.0  0.19384  0.86367  0.94105  1.0000
  C   C1272     1.0  0.11825  0.72665  0.73925  1.0000
  C   C1273     1.0  0.10865  0.73970  0.74059  1.0000
  C   C1274     1.0  0.09412  0.74005  0.74648  1.0000
  C   C1275     1.0  0.08926  0.72726  0.75164  1.0000
  C   C1276     1.0  0.09892  0.71416  0.75050  1.0000
  C   C1277     1.0  0.11340  0.71386  0.74418  1.0000
  H   H2173     1.0  0.19725  0.91959  0.74520  1.0000
  H   H2174     1.0  0.08666  0.75022  0.74680  1.0000
  H   H2175     1.0  0.09520  0.70423  0.75456  1.0000
  H   H2176     1.0  0.12087  0.70374  0.74340  1.0000
  C   C1278     1.0  0.99625  0.74362  0.76225  1.0000
  H   H2177     1.0  0.13210  0.87089  0.90822  1.0000
  H   H2178     1.0  0.22155  0.91798  0.96102  1.0000
  C   C1279     1.0  0.19035  0.82706  0.76214  1.0000
  C   C1280     1.0  0.17327  0.77059  0.91433  1.0000
  H   H2179     1.0  0.23522  0.92053  0.97635  1.0000
  H   H2180     1.0  0.22680  0.93063  0.77183  1.0000
  C   C1281     1.0  0.21111  0.83065  0.96240  1.0000
  C   C1282     1.0  0.20238  0.84390  0.79255  1.0000
  H   H2181     1.0  0.23415  0.83972  0.79691  1.0000
  C   C1283     1.0  0.17971  0.78473  0.88276  1.0000
  H   H2182     1.0  0.20458  0.84668  0.80170  1.0000
  H   H2183     1.0  0.19304  0.85210  0.78935  1.0000
  H   H2184     1.0  0.01687  0.80772  0.75143  1.0000
  C   C1284     1.0  0.22253  0.83832  0.95156  1.0000
  N   N89       1.0  0.99829  0.80268  0.74831  1.0000
  C   C1285     1.0  0.18471  0.80155  0.91141  1.0000
  C   C1286     1.0  0.20699  0.94612  0.93895  1.0000
  H   H2185     1.0  0.14162  0.88335  0.91792  1.0000
  H   H2186     1.0  0.05532  0.78797  0.88216  1.0000
  C   C1287     1.0  0.23197  0.73933  0.81050  1.0000
  S   S370      1.0  0.22662  0.78821  0.81954  1.0000
  H   H2187     1.0  0.18950  0.80434  0.78546  1.0000
  H   H2188     1.0  0.17829  0.81566  0.79715  1.0000
  C   C1288     1.0  0.14274  0.78901  0.76998  1.0000
  C   C1289     1.0  0.18966  0.81054  0.79315  1.0000
  H   H2189     1.0  0.19858  0.69679  0.72879  1.0000
  C   C1290     1.0  0.19970  0.62095  0.73409  1.0000
  C   C1291     1.0  0.13130  0.84243  0.90312  1.0000
  H   H2190     1.0  0.20670  0.77991  0.87676  1.0000
  C   C1292     1.0  0.19977  0.73899  0.83180  1.0000
  H   H2191     1.0  0.18757  0.94016  0.95159  1.0000
  C   C1293     1.0  0.17799  0.73989  0.97682  1.0000
  H   H2192     1.0  0.19477  0.77204  0.91215  1.0000
  S   S371      1.0  0.12900  0.81126  0.96418  1.0000
  H   H2193     1.0  0.21656  0.76001  0.84453  1.0000
  N   N90       1.0  0.21038  0.67968  0.74274  1.0000
  C   C1294     1.0  0.13673  0.92422  0.76338  1.0000
  H   H2194     1.0  0.20407  0.72907  0.81301  1.0000
  S   S372      1.0  0.13866  0.96463  0.76319  1.0000
  H   H2195     1.0  0.09129  0.82024  0.85846  1.0000
  C   C1295     1.0  0.20439  0.82199  0.94462  1.0000
  H   H2196     1.0  0.98898  0.82539  0.74267  1.0000
  N   N91       1.0  0.16669  0.88021  0.82507  1.0000
  C   C1296     1.0  0.15297  0.87745  0.82392  1.0000
  C   C1297     1.0  0.16625  0.89606  0.81954  1.0000
  C   C1298     1.0  0.16838  0.87601  0.84041  1.0000
  C   C1299     1.0  0.17911  0.87138  0.81640  1.0000
  C   C1300     1.0  0.15056  0.86207  0.83054  1.0000
  C   C1301     1.0  0.16763  0.90170  0.80319  1.0000
  C   C1302     1.0  0.15571  0.88258  0.85136  1.0000
  C   C1303     1.0  0.19415  0.87342  0.81573  1.0000
  H   H2197     1.0  0.14353  0.88491  0.82892  1.0000
  H   H2198     1.0  0.15232  0.87970  0.81247  1.0000
  H   H2199     1.0  0.17466  0.89922  0.82252  1.0000
  H   H2200     1.0  0.15608  0.90256  0.82471  1.0000
  H   H2201     1.0  0.17044  0.86417  0.84433  1.0000
  H   H2202     1.0  0.17802  0.87905  0.84120  1.0000
  H   H2203     1.0  0.17949  0.85973  0.82090  1.0000
  H   H2204     1.0  0.17776  0.87297  0.80525  1.0000
  H   H2205     1.0  0.14004  0.86155  0.82922  1.0000
  H   H2206     1.0  0.15866  0.85401  0.82508  1.0000
  H   H2207     1.0  0.15017  0.85895  0.84222  1.0000
  H   H2208     1.0  0.17816  0.89700  0.79700  1.0000
  H   H2209     1.0  0.15892  0.89993  0.79942  1.0000
  H   H2210     1.0  0.16676  0.91348  0.80068  1.0000
  H   H2211     1.0  0.14605  0.87843  0.85288  1.0000
  H   H2212     1.0  0.15306  0.89445  0.84840  1.0000
  H   H2213     1.0  0.15867  0.87949  0.86198  1.0000
  H   H2214     1.0  0.19925  0.86490  0.82385  1.0000
  H   H2215     1.0  0.19422  0.88387  0.81756  1.0000
  H   H2216     1.0  0.20103  0.87282  0.80488  1.0000
  N   N92       1.0  0.11378  0.73505  0.78805  1.0000
  C   C1304     1.0  0.11856  0.74763  0.77683  1.0000
  C   C1305     1.0  0.12576  0.72202  0.78650  1.0000
  C   C1306     1.0  0.11171  0.73814  0.80261  1.0000
  C   C1307     1.0  0.09995  0.73359  0.78574  1.0000
  C   C1308     1.0  0.10902  0.76262  0.77800  1.0000
  C   C1309     1.0  0.13033  0.71835  0.77156  1.0000
  C   C1310     1.0  0.10690  0.72666  0.81579  1.0000
  C   C1311     1.0  0.09615  0.71864  0.79140  1.0000
  H   H2217     1.0  0.12950  0.74805  0.77704  1.0000
  H   H2218     1.0  0.11929  0.74641  0.76581  1.0000
  H   H2219     1.0  0.12322  0.71224  0.79435  1.0000
  H   H2220     1.0  0.13547  0.72342  0.78896  1.0000
  H   H2221     1.0  0.12172  0.74016  0.80380  1.0000
  H   H2222     1.0  0.10341  0.74803  0.80384  1.0000
  H   H2223     1.0  0.09078  0.74142  0.79057  1.0000
  H   H2224     1.0  0.10007  0.73637  0.77404  1.0000
  H   H2225     1.0  0.09752  0.76283  0.77974  1.0000
  H   H2226     1.0  0.11076  0.76644  0.78676  1.0000
  H   H2227     1.0  0.11194  0.77047  0.76785  1.0000
  H   H2228     1.0  0.12107  0.71798  0.76776  1.0000
  H   H2229     1.0  0.13634  0.72608  0.76353  1.0000
  H   H2230     1.0  0.13768  0.70763  0.77213  1.0000
  H   H2231     1.0  0.09580  0.72593  0.81659  1.0000
  H   H2232     1.0  0.10675  0.73000  0.82563  1.0000
  H   H2233     1.0  0.11430  0.71602  0.81607  1.0000
  H   H2234     1.0  0.08435  0.72016  0.79515  1.0000
  H   H2235     1.0  0.10078  0.71167  0.80051  1.0000
  H   H2236     1.0  0.09890  0.71291  0.78252  1.0000
  H   H2237     1.0  0.22578  0.95606  0.73661  1.0000
  H   H2238     1.0  0.19207  0.93500  0.76260  1.0000
  H   H2239     1.0  0.08762  0.76233  0.89700  1.0000
  H   H2240     1.0  0.19375  0.72077  0.82891  1.0000
  C   C1312     1.0  0.21802  0.92822  0.96485  1.0000
  H   H2241     1.0  0.23079  0.66557  0.73583  1.0000
  C   C1313     1.0  0.16613  0.85218  0.97613  1.0000
  C   C1314     1.0  0.99587  0.81659  0.73734  1.0000
  H   H2242     1.0  0.07161  0.82704  0.74791  1.0000
  H   H2243     1.0  0.05559  0.81253  0.85850  1.0000
  H   H2244     1.0  0.04153  0.80929  0.87367  1.0000
  H   H2245     1.0  0.08506  0.77542  0.85443  1.0000
  H   H2246     1.0  0.21142  0.65002  0.75729  1.0000
  H   H2247     1.0  0.22041  0.84243  0.94062  1.0000
  H   H2248     1.0  0.23309  0.81523  0.93804  1.0000
  H   H2249     1.0  0.05399  0.79200  0.85372  1.0000
  C   C1315     1.0  0.08073  0.76710  0.88902  1.0000
  H   H2250     1.0  0.08714  0.78665  0.88610  1.0000
  H   H2251     1.0  0.22695  0.75723  0.82014  1.0000
  H   H2252     1.0  0.21864  0.76663  0.96508  1.0000
  H   H2253     1.0  0.16713  0.94235  0.74747  1.0000
  H   H2254     1.0  0.18302  0.75167  0.81110  1.0000
  Fe  Fe181     1.0  0.14437  0.80048  0.94689  1.0000
  H   H2255     1.0  0.23202  0.74624  0.79957  1.0000
  Fe  Fe182     1.0  0.18387  0.95985  0.77788  1.0000
  H   H2256     1.0  0.18631  0.76693  0.79709  1.0000
  H   H2257     1.0  0.11565  0.94320  0.73973  1.0000
  S   S373      1.0  0.23111  0.81631  0.86749  1.0000
  H   H2258     1.0  0.14116  0.91327  0.76823  1.0000
  H   H2259     1.0  0.19392  0.66025  0.76434  1.0000
  C   C1316     1.0  0.20342  0.75733  0.80869  1.0000
  H   H2260     1.0  0.13886  0.77827  0.74821  1.0000
  C   C1317     1.0  0.19719  0.94800  0.97059  1.0000
  S   S374      1.0  0.17060  0.65806  0.73567  1.0000
  C   C1318     1.0  0.22127  0.80538  0.95986  1.0000
  C   C1319     1.0  0.18565  0.64530  0.72976  1.0000
  C   C1320     1.0  0.23244  0.90761  0.76338  1.0000
  H   H2261     1.0  0.23215  0.85437  0.81686  1.0000
  H   H2262     1.0  0.15635  0.76912  0.75037  1.0000
  Fe  Fe183     1.0  0.16670  0.78678  0.96552  1.0000
  H   H2263     1.0  0.20298  0.73446  0.84229  1.0000
  H   H2264     1.0  0.17675  0.78541  0.73598  1.0000
  H   H2265     1.0  0.18182  0.80924  0.88986  1.0000
  H   H2266     1.0  0.12088  0.96338  0.74590  1.0000
  C   C1321     1.0  0.22899  0.80788  0.85505  1.0000
  H   H2267     1.0  0.15276  0.89923  0.72846  1.0000
  C   C1322     1.0  0.22733  0.79536  0.83358  1.0000
  C   C1323     1.0  0.16788  0.79397  0.73228  1.0000
  H   H2268     1.0  0.19932  0.77002  0.85107  1.0000
  C   C1324     1.0  0.20106  0.65644  0.75477  1.0000
  H   H2269     1.0  0.16497  0.78319  0.76010  1.0000
  H   H2270     1.0  0.21215  0.82718  0.93588  1.0000
  H   H2271     1.0  0.17550  0.80842  0.91732  1.0000
  H   H2272     1.0  0.13142  0.80271  0.74623  1.0000
  H   H2273     1.0  0.20853  0.74968  0.80152  1.0000
  H   H2274     1.0  0.15859  0.93463  0.73904  1.0000
  N   N93       1.0  0.20213  0.93379  0.96607  1.0000
  H   H2275     1.0  0.18794  0.74257  0.83490  1.0000
  H   H2276     1.0  0.14009  0.83309  0.90107  1.0000
  S   S375      1.0  0.18930  0.77403  0.96363  1.0000
  H   H2277     1.0  0.20095  0.83889  0.96389  1.0000
  N   N94       1.0  0.14106  0.85043  0.92064  1.0000
  C   C1325     1.0  0.13976  0.93570  0.76688  1.0000
  S   S376      1.0  0.12502  0.91258  0.74844  1.0000
  C   C1326     1.0  0.20508  0.87740  0.91864  1.0000
  C   C1327     1.0  0.15558  0.79177  0.75741  1.0000
  H   H2278     1.0  0.11359  0.85740  0.94201  1.0000
  Fe  Fe184     1.0  0.21484  0.86726  0.73333  1.0000
  C   C1328     1.0  0.18033  0.79951  0.89849  1.0000
  C   C1329     1.0  0.20058  0.76334  0.83163  1.0000
  H   H2279     1.0  0.04469  0.87395  0.73433  1.0000
  H   H2280     1.0  0.23344  0.83157  0.95126  1.0000
  C   C1330     1.0  0.22561  0.67243  0.74382  1.0000
  H   H2281     1.0  0.05478  0.84724  0.74432  1.0000
  H   H2282     1.0  0.06537  0.78018  0.84277  1.0000
  H   H2283     1.0  0.15671  0.87950  0.90405  1.0000
  C   C1331     1.0  0.12241  0.94104  0.74724  1.0000
  S   S377      1.0  0.23126  0.86639  0.77618  1.0000
  H   H2284     1.0  0.14569  0.78824  0.78022  1.0000
  H   H2285     1.0  0.16757  0.77980  0.91945  1.0000
  H   H2286     1.0  0.21729  0.77119  0.89755  1.0000
  H   H2287     1.0  0.20182  0.92537  0.94819  1.0000
  Fe  Fe185     1.0  0.21477  0.83642  0.87129  1.0000
  H   H2288     1.0  0.17543  0.92411  0.96817  1.0000
  C   C1332     1.0  0.20241  0.80965  0.93927  1.0000
  C   C1333     1.0  0.15355  0.77334  0.72903  1.0000
  H   H2289     1.0  0.06377  0.79860  0.88740  1.0000
  H   H2290     1.0  0.21382  0.70082  0.73090  1.0000
  H   H2291     1.0  0.22111  0.89115  0.78818  1.0000
  C   C1334     1.0  0.23447  0.80604  0.94721  1.0000
  H   H2292     1.0  0.07830  0.80838  0.85081  1.0000
  H   H2293     1.0  0.17343  0.81046  0.73973  1.0000
  H   H2294     1.0  0.13324  0.79794  0.76920  1.0000
  H   H2295     1.0  0.09672  0.77671  0.87277  1.0000
  Fe  Fe186     1.0  0.19680  0.76405  0.75615  1.0000
  H   H2296     1.0  0.00874  0.78026  0.75013  1.0000
  C   C1335     1.0  0.21456  0.78296  0.89332  1.0000
  S   S378      1.0  0.16300  0.80731  0.94941  1.0000
  H   H2297     1.0  0.98826  0.72825  0.79488  1.0000
  H   H2298     1.0  0.20311  0.90884  0.77726  1.0000
  N   N95       1.0  0.15382  0.79226  0.74262  1.0000
  H   H2299     1.0  0.21184  0.76935  0.77374  1.0000
  H   H2300     1.0  0.20829  0.82098  0.85252  1.0000
  C   C1336     1.0  0.18694  0.69250  0.75747  1.0000
  H   H2301     1.0  0.22080  0.90151  0.79991  1.0000
  C   C1337     1.0  0.08407  0.80127  0.85911  1.0000
  H   H2302     1.0  0.20530  0.95471  0.96534  1.0000
  H   H2303     1.0  0.09435  0.79613  0.85274  1.0000
  H   H2304     1.0  0.14655  0.93362  0.77435  1.0000
  C   C1338     1.0  0.22267  0.74740  0.82230  1.0000
  H   H2305     1.0  0.01037  0.79392  0.76511  1.0000
  H   H2306     1.0  0.22968  0.82642  0.77627  1.0000
  C   C1339     1.0  0.12283  0.86225  0.94049  1.0000
  C   C1340     1.0  0.20496  0.76069  0.84606  1.0000
  S   S379      1.0  0.20552  0.89512  0.95096  1.0000
  H   H2307     1.0  0.14282  0.81463  0.74141  1.0000
  Fe  Fe187     1.0  0.19976  0.85439  0.89391  1.0000
  H   H2308     1.0  0.00685  0.81536  0.77396  1.0000
  C   C1341     1.0  0.19460  0.79916  0.80594  1.0000
  H   H2309     1.0  0.19423  0.83030  0.94492  1.0000
  S   S380      1.0  0.22469  0.72266  0.78619  1.0000
  S   S381      1.0  0.19599  0.83480  0.88965  1.0000
  C   C1342     1.0  0.20041  0.93641  0.75311  1.0000
  H   H2310     1.0  0.19765  0.90867  0.79603  1.0000
  S   S382      1.0  0.19022  0.74909  0.77674  1.0000
  H   H2311     1.0  0.17483  0.76098  0.92318  1.0000
  H   H2312     1.0  0.21200  0.89548  0.92049  1.0000
  H   H2313     1.0  0.21258  0.71808  0.82754  1.0000
  H   H2314     1.0  0.20524  0.92307  0.78403  1.0000
  C   C1343     1.0  0.18800  0.77264  0.90476  1.0000
  C   C1344     1.0  0.20286  0.78702  0.88461  1.0000
  H   H2315     1.0  0.18710  0.79161  0.91956  1.0000
  H   H2316     1.0  0.19972  0.81407  0.92853  1.0000
  H   H2317     1.0  0.20991  0.91070  0.81997  1.0000
  H   H2318     1.0  0.20593  0.95655  0.94157  1.0000
  H   H2319     1.0  0.19047  0.79654  0.86191  1.0000
  H   H2320     1.0  0.20313  0.79809  0.87803  1.0000
  C   C1345     1.0  0.17205  0.80847  0.72982  1.0000
  H   H2321     1.0  0.21229  0.80117  0.93799  1.0000
  H   H2322     1.0  0.06970  0.79693  0.84052  1.0000
  H   H2323     1.0  0.16826  0.78496  0.88804  1.0000
  H   H2324     1.0  0.18592  0.82175  0.96900  1.0000
  N   N96       1.0  0.18783  0.78605  0.89295  1.0000
  H   H2325     1.0  0.18400  0.77424  0.87946  1.0000
  H   H2326     1.0  0.16634  0.76866  0.90837  1.0000
  N   N97       1.0  0.07624  0.78995  0.86890  1.0000
  H   H2327     1.0  0.21187  0.84473  0.78367  1.0000
  H   H2328     1.0  0.16856  0.80067  0.90128  1.0000
  H   H2329     1.0  0.11247  0.74955  0.73673  1.0000
  H   H2330     1.0  0.22526  0.74070  0.83267  1.0000
  N   N98       1.0  0.20856  0.81780  0.95897  1.0000
  S   S383      1.0  0.19348  0.78744  0.75532  1.0000
  S   S384      1.0  0.21854  0.75010  0.75096  1.0000
  C   C1346     1.0  0.20341  0.92761  0.74329  1.0000
  Fe  Fe188     1.0  0.21091  0.73411  0.77033  1.0000
  S   S385      1.0  0.01109  0.84976  0.73327  1.0000
  H   H2331     1.0  0.22261  0.91510  0.76061  1.0000
  C   C1347     1.0  0.12816  0.92690  0.75344  1.0000
  H   H2332     1.0  0.06883  0.86331  0.74231  1.0000
  C   C1348     1.0  0.23163  0.79748  0.74605  1.0000
  C   C1349     1.0  0.12536  0.95246  0.75078  1.0000
  C   C1350     1.0  0.21693  0.81252  0.84902  1.0000
  H   H2333     1.0  0.23728  0.68951  0.73126  1.0000
  H   H2334     1.0  0.21138  0.80741  0.74000  1.0000
  C   C1351     1.0  0.13418  0.94985  0.76042  1.0000
  Fe  Fe189     1.0  0.14824  0.81643  0.96771  1.0000
  C   C1352     1.0  0.21604  0.80617  0.83838  1.0000
  H   H2335     1.0  0.18276  0.69587  0.76791  1.0000
  H   H2336     1.0  0.16533  0.86001  0.96617  1.0000
  C   C1353     1.0  0.18797  0.63153  0.73850  1.0000
  H   H2337     1.0  0.19232  0.67412  0.73899  1.0000
  H   H2338     1.0  0.18684  0.79208  0.81057  1.0000
  N   N99       1.0  0.20669  0.75143  0.82345  1.0000
  H   H2339     1.0  0.22248  0.84795  0.95517  1.0000
  Fe  Fe190     1.0  0.20678  0.88440  0.97407  1.0000
  C   C1354     1.0  0.23375  0.92258  0.77873  1.0000
  H   H2340     1.0  0.06916  0.77189  0.86704  1.0000
  H   H2341     1.0  0.18869  0.76577  0.83420  1.0000
  H   H2342     1.0  0.22593  0.66486  0.75442  1.0000
  S   S386      1.0  0.14939  0.77897  0.96168  1.0000
  H   H2343     1.0  0.21833  0.83395  0.76341  1.0000
  S   S387      1.0  0.23413  0.85422  0.74172  1.0000
  S   S388      1.0  0.19723  0.85708  0.73403  1.0000
  C   C1355     1.0  0.05293  0.81007  0.87036  1.0000
  H   H2344     1.0  0.19872  0.91217  0.97250  1.0000
  C   C1356     1.0  0.23558  0.68249  0.74216  1.0000
  H   H2345     1.0  0.20901  0.66375  0.73228  1.0000
  C   C1357     1.0  0.19915  0.93586  0.95142  1.0000
  C   C1358     1.0  0.99716  0.75954  0.77658  1.0000
  H   H2346     1.0  0.05337  0.81943  0.87415  1.0000
  H   H2347     1.0  0.09292  0.86015  0.73854  1.0000
  H   H2348     1.0  0.17694  0.93505  0.73172  1.0000
  C   C1359     1.0  0.06207  0.79611  0.87780  1.0000
  H   H2349     1.0  0.15782  0.80195  0.75791  1.0000
  S   S389      1.0  0.20572  0.95714  0.76334  1.0000
  H   H2350     1.0  0.18060  0.68493  0.75749  1.0000
  H   H2351     1.0  0.18006  0.95843  0.74089  1.0000
  C   C1360     1.0  0.19444  0.92248  0.97610  1.0000
  H   H2352     1.0  0.20139  0.61029  0.74090  1.0000
  H   H2353     1.0  0.20187  0.75103  0.85378  1.0000
  H   H2354     1.0  0.20678  0.80984  0.83365  1.0000
  C   C1361     1.0  0.20855  0.94660  0.75081  1.0000
  H   H2355     1.0  0.23484  0.93430  0.79380  1.0000
  C   C1362     1.0  0.22361  0.82391  0.76980  1.0000
  H   H2356     1.0  0.07824  0.81558  0.87443  1.0000
  H   H2357     1.0  0.19479  0.80387  0.81476  1.0000
  H   H2358     1.0  0.02912  0.79236  0.73779  1.0000
  C   C1363     1.0  0.00683  0.79017  0.74158  1.0000
  H   H2359     1.0  0.23006  0.85467  0.83509  1.0000
  C   C1364     1.0  0.21235  0.76874  0.97537  1.0000
  C   C1365     1.0  0.22070  0.90233  0.78862  1.0000
  C   C1366     1.0  0.16661  0.94121  0.73683  1.0000
  H   H2360     1.0  0.21455  0.82760  0.97278  1.0000
  S   S390      1.0  0.15067  0.83843  0.96756  1.0000
  H   H2361     1.0  0.19377  0.80350  0.96856  1.0000
  H   H2362     1.0  0.22409  0.93584  0.95672  1.0000
  H   H2363     1.0  0.18492  0.70236  0.74902  1.0000
  C   C1367     1.0  0.21009  0.78841  0.75681  1.0000
  H   H2364     1.0  0.23507  0.71465  0.75850  1.0000
  H   H2365     1.0  0.22510  0.80387  0.96981  1.0000
  H   H2366     1.0  0.20225  0.94839  0.92945  1.0000
  S   S391      1.0  0.13625  0.72662  0.73161  1.0000
  C   C1368     1.0  0.20982  0.69188  0.72974  1.0000
  C   C1369     1.0  0.00687  0.80437  0.75788  1.0000
  H   H2367     1.0  0.08228  0.71342  0.73308  1.0000
  C   C1370     1.0  0.21429  0.92929  0.73093  1.0000
  H   H2368     1.0  0.15137  0.96130  0.73321  1.0000
  H   H2369     1.0  0.22886  0.72931  0.81121  1.0000
  H   H2370     1.0  0.17274  0.75117  0.97282  1.0000
  C   C1371     1.0  0.17536  0.96854  0.73402  1.0000
  H   H2371     1.0  0.03300  0.86188  0.73949  1.0000
  N   N100      1.0  0.23341  0.90759  0.77830  1.0000
  H   H2372     1.0  0.19589  0.64903  0.75246  1.0000
  H   H2373     1.0  0.16528  0.97333  0.74097  1.0000
  H   H2374     1.0  0.14920  0.76363  0.73100  1.0000
  C   C1372     1.0  0.04271  0.86470  0.73162  1.0000
  H   H2375     1.0  0.18728  0.95420  0.96676  1.0000
  C   C1373     1.0  0.02148  0.79201  0.73170  1.0000
  C   C1374     1.0  0.22865  0.92667  0.79358  1.0000
  H   H2376     1.0  0.23745  0.79614  0.94294  1.0000
  Fe  Fe191     1.0  0.23046  0.87200  0.75289  1.0000
  C   C1375     1.0  0.05523  0.85146  0.73261  1.0000
  H   H2377     1.0  0.23138  0.81818  0.76171  1.0000
  Fe  Fe192     1.0  0.11311  0.92028  0.73047  1.0000
  H   H2378     1.0  0.16449  0.87048  0.73179  1.0000
  H   H2379     1.0  0.00593  0.82044  0.73226  1.0000
  H   H2380     1.0  0.05898  0.95179  0.73586  1.0000
  H   H2381     1.0  0.05779  0.72778  0.73170  1.0000
  H   H2382     1.0  0.23331  0.76961  0.72870  1.0000
  C   C1376     1.0  0.07329  0.86488  0.73050  1.0000
  H   H2383     1.0  0.05259  0.84315  0.72884  1.0000
  H   H2384     1.0  0.18705  0.97970  0.74112  1.0000
  C   C1377     1.0  0.22211  0.93977  0.72841  1.0000
  S   S392      1.0  0.09074  0.93346  0.73123  1.0000
  H   H2385     1.0  0.04173  0.95795  0.73192  1.0000
  C   C1378     1.0  0.08925  0.86504  0.72832  1.0000
  H   H2386     1.0  0.05251  0.94023  0.72965  1.0000
  C   C1379     1.0  0.04414  0.81601  0.72933  1.0000
  H   H2387     1.0  0.14619  0.87917  0.73019  1.0000
  Fe  Fe193     1.0  0.16090  0.98227  0.79206  1.0000
  C   C1380     1.0  0.19744  0.77256  0.97769  1.0000
  C   C1381     1.0  0.17810  0.92597  0.97755  1.0000
  H   H2388     1.0  0.23725  0.80516  0.73817  1.0000
  H   H2389     1.0  0.18889  0.73946  0.97783  1.0000
  H   H2390     1.0  0.26141  0.44598  0.20095  1.0000
  Fe  Fe194     1.0  0.29933  0.11949  0.16687  1.0000
  S   S393      1.0  0.32007  0.11816  0.15033  1.0000
  S   S394      1.0  0.29296  0.10139  0.18475  1.0000
  Fe  Fe195     1.0  0.28697  0.14968  0.15281  1.0000
  S   S395      1.0  0.30640  0.15070  0.13520  1.0000
  S   S396      1.0  0.26959  0.16950  0.15243  1.0000
  Fe  Fe196     1.0  0.30565  0.12852  0.13455  1.0000
  S   S397      1.0  0.30462  0.12415  0.11362  1.0000
  Fe  Fe197     1.0  0.31857  0.14059  0.15282  1.0000
  S   S398      1.0  0.33402  0.15366  0.15299  1.0000
  S   S399      1.0  0.28528  0.12838  0.15099  1.0000
  S   S400      1.0  0.29888  0.14091  0.17052  1.0000
  Fe  Fe198     1.0  0.24782  0.05382  0.09281  1.0000
  S   S401      1.0  0.26613  0.17633  0.99818  1.0000
  Fe  Fe199     1.0  0.26111  0.07369  0.10267  1.0000
  S   S402      1.0  0.24735  0.09370  0.09247  1.0000
  S   S403      1.0  0.27385  0.07416  0.11825  1.0000
  H   H2391     1.0  0.26836  0.08223  0.15701  1.0000
  Fe  Fe200     1.0  0.25241  0.08273  0.07410  1.0000
  S   S404      1.0  0.25972  0.09412  0.05120  1.0000
  H   H2392     1.0  0.31098  0.20200  0.20697  1.0000
  S   S405      1.0  0.26752  0.06317  0.08370  1.0000
  H   H2393     1.0  0.28835  0.40846  0.17392  1.0000
  C   C1382     1.0  0.27393  0.37408  0.10544  1.0000
  Fe  Fe201     1.0  0.37583  0.19896  0.19105  1.0000
  S   S406      1.0  0.39213  0.17863  0.19517  1.0000
  S   S407      1.0  0.38003  0.21308  0.16912  1.0000
  Fe  Fe202     1.0  0.37294  0.16849  0.20442  1.0000
  H   H2394     1.0  0.38405  0.15557  0.14601  1.0000
  H   H2395     1.0  0.38178  0.16379  0.12239  1.0000
  H   H2396     1.0  0.33557  0.33385  0.14486  1.0000
  S   S408      1.0  0.35694  0.18869  0.19925  1.0000
  S   S409      1.0  0.37349  0.20502  0.21178  1.0000
  Fe  Fe203     1.0  0.41843  0.33783  0.17431  1.0000
  S   S410      1.0  0.40492  0.35572  0.18503  1.0000
  S   S411      1.0  0.44286  0.33214  0.17115  1.0000
  Fe  Fe204     1.0  0.39198  0.32605  0.17552  1.0000
  S   S412      1.0  0.37718  0.34300  0.18679  1.0000
  S   S413      1.0  0.38058  0.30900  0.17517  1.0000
  Fe  Fe205     1.0  0.38982  0.35830  0.17095  1.0000
  S   S414      1.0  0.37603  0.37876  0.16071  1.0000
  Fe  Fe206     1.0  0.39352  0.33885  0.19976  1.0000
  H   H2397     1.0  0.27553  0.12189  0.07388  1.0000
  S   S415      1.0  0.40412  0.34156  0.15872  1.0000
  S   S416      1.0  0.40755  0.32075  0.18995  1.0000
  Fe  Fe207     1.0  0.25448  0.20729  0.08188  1.0000
  S   S417      1.0  0.27685  0.20945  0.07075  1.0000
  S   S418      1.0  0.25103  0.18513  0.09324  1.0000
  H   H2398     1.0  0.30452  0.41970  0.21192  1.0000
  S   S419      1.0  0.26387  0.24326  0.05876  1.0000
  Fe  Fe208     1.0  0.24587  0.17519  0.99282  1.0000
  Fe  Fe209     1.0  0.26707  0.22241  0.05209  1.0000
  S   S420      1.0  0.27672  0.21912  0.02946  1.0000
  Fe  Fe210     1.0  0.27147  0.22982  0.07875  1.0000
  S   S421      1.0  0.28587  0.23181  0.09214  1.0000
  S   S422      1.0  0.24511  0.21895  0.06269  1.0000
  S   S423      1.0  0.24958  0.22665  0.09125  1.0000
  H   H2399     1.0  0.34021  0.33090  0.16664  1.0000
  H   H2400     1.0  0.26169  0.26582  0.12017  1.0000
  H   H2401     1.0  0.35454  0.33242  0.14179  1.0000
  C   C1383     1.0  0.42124  0.35688  0.22185  1.0000
  H   H2402     1.0  0.30651  0.37827  0.21527  1.0000
  H   H2403     1.0  0.25693  0.43840  0.08892  1.0000
  H   H2404     1.0  0.27299  0.14515  0.07459  1.0000
  Fe  Fe211     1.0  0.31965  0.26451  0.14340  1.0000
  S   S424      1.0  0.33441  0.27033  0.12210  1.0000
  S   S425      1.0  0.31943  0.24202  0.15574  1.0000
  Fe  Fe212     1.0  0.30397  0.29498  0.14347  1.0000
  S   S426      1.0  0.31696  0.30324  0.12182  1.0000
  S   S427      1.0  0.28642  0.30883  0.15651  1.0000
  Fe  Fe213     1.0  0.31418  0.28420  0.11559  1.0000
  S   S428      1.0  0.30662  0.28589  0.09543  1.0000
  Fe  Fe214     1.0  0.33570  0.28870  0.13077  1.0000
  S   S429      1.0  0.35593  0.29686  0.12788  1.0000
  S   S430      1.0  0.29955  0.27739  0.13656  1.0000
  S   S431      1.0  0.32266  0.28137  0.15267  1.0000
  H   H2405     1.0  0.32304  0.17921  0.19807  1.0000
  S   S432      1.0  0.33026  0.46598  0.19684  1.0000
  H   H2406     1.0  0.36742  0.48126  0.18984  1.0000
  Fe  Fe215     1.0  0.31647  0.45506  0.16928  1.0000
  S   S433      1.0  0.32225  0.43955  0.18909  1.0000
  S   S434      1.0  0.31290  0.44516  0.15302  1.0000
  Fe  Fe216     1.0  0.31067  0.45761  0.20014  1.0000
  H   H2407     1.0  0.26678  0.37536  0.09818  1.0000
  Fe  Fe217     1.0  0.34120  0.44934  0.18361  1.0000
  S   S435      1.0  0.36309  0.43530  0.18459  1.0000
  C   C1384     1.0  0.36701  0.30883  0.22372  1.0000
  S   S436      1.0  0.33625  0.46395  0.16312  1.0000
  C   C1385     1.0  0.35828  0.19379  0.15132  1.0000
  Fe  Fe218     1.0  0.27390  0.38355  0.14538  1.0000
  S   S437      1.0  0.26716  0.40353  0.12938  1.0000
  S   S438      1.0  0.29655  0.37105  0.14239  1.0000
  C   C1386     1.0  0.43824  0.32028  0.21123  1.0000
  C   C1387     1.0  0.24110  0.04999  0.16752  1.0000
  C   C1388     1.0  0.28606  0.36051  0.10501  1.0000
  H   H2408     1.0  0.40846  0.31208  0.22064  1.0000
  Fe  Fe219     1.0  0.25526  0.41248  0.14888  1.0000
  S   S439      1.0  0.25346  0.43433  0.15253  1.0000
  H   H2409     1.0  0.40658  0.15843  0.15921  1.0000
  S   S440      1.0  0.25552  0.37390  0.14673  1.0000
  H   H2410     1.0  0.37047  0.35194  0.12885  1.0000
  H   H2411     1.0  0.29580  0.15818  0.21084  1.0000
  H   H2412     1.0  0.34056  0.16441  0.21190  1.0000
  H   H2413     1.0  0.32615  0.19230  0.21423  1.0000
  H   H2414     1.0  0.30620  0.10276  0.21343  1.0000
  C   C1389     1.0  0.26792  0.12908  0.05341  1.0000
  H   H2415     1.0  0.25091  0.08711  0.14643  1.0000
  H   H2416     1.0  0.28260  0.45498  0.19986  1.0000
  H   H2417     1.0  0.37819  0.19989  0.14716  1.0000
  H   H2418     1.0  0.24560  0.13316  0.18710  1.0000
  C   C1390     1.0  0.29617  0.44226  0.15347  1.0000
  C   C1391     1.0  0.28338  0.44983  0.16060  1.0000
  C   C1392     1.0  0.27023  0.44743  0.16024  1.0000
  C   C1393     1.0  0.26990  0.43718  0.15312  1.0000
  C   C1394     1.0  0.28270  0.42938  0.14633  1.0000
  C   C1395     1.0  0.29576  0.43213  0.14626  1.0000
  H   H2419     1.0  0.28361  0.45770  0.16613  1.0000
  H   H2420     1.0  0.26034  0.45346  0.16555  1.0000
  H   H2421     1.0  0.28256  0.42144  0.14084  1.0000
  H   H2422     1.0  0.30563  0.42634  0.14063  1.0000
  C   C1396     1.0  0.29066  0.32529  0.15459  1.0000
  C   C1397     1.0  0.28081  0.33564  0.16149  1.0000
  C   C1398     1.0  0.28319  0.34950  0.15850  1.0000
  C   C1399     1.0  0.29522  0.35312  0.14833  1.0000
  C   C1400     1.0  0.30547  0.34259  0.14201  1.0000
  C   C1401     1.0  0.30332  0.32859  0.14539  1.0000
  H   H2423     1.0  0.27122  0.33301  0.16890  1.0000
  H   H2424     1.0  0.27553  0.35748  0.16386  1.0000
  H   H2425     1.0  0.31472  0.34537  0.13406  1.0000
  H   H2426     1.0  0.31128  0.32049  0.14058  1.0000
  C   C1402     1.0  0.24077  0.32599  0.18731  1.0000
  C   C1403     1.0  0.41119  0.28071  0.20798  1.0000
  H   H2427     1.0  0.24622  0.02534  0.12722  1.0000
  H   H2428     1.0  0.37846  0.46466  0.18502  1.0000
  C   C1404     1.0  0.39566  0.15924  0.16606  1.0000
  H   H2429     1.0  0.42262  0.36494  0.19839  1.0000
  H   H2430     1.0  0.36336  0.16412  0.13176  1.0000
  H   H2431     1.0  0.37249  0.27937  0.19928  1.0000
  C   C1405     1.0  0.46625  0.33403  0.17960  1.0000
  H   H2432     1.0  0.24043  0.25208  0.01910  1.0000
  C   C1406     1.0  0.27279  0.20717  0.02149  1.0000
  C   C1407     1.0  0.31723  0.40687  0.17199  1.0000
  C   C1408     1.0  0.25933  0.19025  0.02090  1.0000
  C   C1409     1.0  0.26209  0.19927  0.02817  1.0000
  H   H2433     1.0  0.25111  0.18418  0.02603  1.0000
  H   H2434     1.0  0.25595  0.20017  0.03886  1.0000
  C   C1410     1.0  0.29158  0.24712  0.09245  1.0000
  C   C1411     1.0  0.29648  0.24690  0.10449  1.0000
  C   C1412     1.0  0.30114  0.25865  0.10542  1.0000
  C   C1413     1.0  0.30101  0.27087  0.09426  1.0000
  C   C1414     1.0  0.29606  0.27120  0.08217  1.0000
  C   C1415     1.0  0.29137  0.25937  0.08124  1.0000
  H   H2435     1.0  0.29659  0.23764  0.11326  1.0000
  H   H2436     1.0  0.30492  0.25822  0.11477  1.0000
  H   H2437     1.0  0.29594  0.28060  0.07345  1.0000
  H   H2438     1.0  0.28769  0.25969  0.07186  1.0000
  C   C1416     1.0  0.37228  0.39417  0.16790  1.0000
  C   C1417     1.0  0.36097  0.40563  0.16446  1.0000
  C   C1418     1.0  0.35792  0.41815  0.16976  1.0000
  C   C1419     1.0  0.36634  0.41941  0.17833  1.0000
  C   C1420     1.0  0.37766  0.40796  0.18175  1.0000
  C   C1421     1.0  0.38053  0.39532  0.17668  1.0000
  H   H2439     1.0  0.35460  0.40490  0.15758  1.0000
  H   H2440     1.0  0.34924  0.42694  0.16694  1.0000
  H   H2441     1.0  0.38421  0.40885  0.18836  1.0000
  H   H2442     1.0  0.38930  0.38662  0.17934  1.0000
  C   C1422     1.0  0.37271  0.30797  0.16154  1.0000
  C   C1423     1.0  0.35978  0.30330  0.16555  1.0000
  C   C1424     1.0  0.35410  0.30054  0.15529  1.0000
  C   C1425     1.0  0.36162  0.30185  0.14095  1.0000
  C   C1426     1.0  0.37442  0.30677  0.13691  1.0000
  C   C1427     1.0  0.37984  0.30998  0.14708  1.0000
  H   H2443     1.0  0.35418  0.30162  0.17670  1.0000
  H   H2444     1.0  0.34419  0.29690  0.15856  1.0000
  H   H2445     1.0  0.38030  0.30787  0.12586  1.0000
  H   H2446     1.0  0.38990  0.31336  0.14383  1.0000
  C   C1428     1.0  0.36336  0.22211  0.16538  1.0000
  C   C1429     1.0  0.36211  0.22896  0.15129  1.0000
  C   C1430     1.0  0.34855  0.23534  0.14831  1.0000
  C   C1431     1.0  0.33634  0.23454  0.15937  1.0000
  C   C1432     1.0  0.33765  0.22797  0.17347  1.0000
  C   C1433     1.0  0.35119  0.22207  0.17650  1.0000
  H   H2447     1.0  0.37154  0.22917  0.14268  1.0000
  H   H2448     1.0  0.34751  0.24054  0.13741  1.0000
  H   H2449     1.0  0.32821  0.22774  0.18207  1.0000
  H   H2450     1.0  0.35215  0.21764  0.18750  1.0000
  C   C1434     1.0  0.24697  0.10687  0.04245  1.0000
  C   C1435     1.0  0.25147  0.11442  0.02841  1.0000
  H   H2451     1.0  0.43513  0.31636  0.20333  1.0000
  C   C1436     1.0  0.37271  0.16888  0.13008  1.0000
  C   C1437     1.0  0.38554  0.17376  0.16158  1.0000
  H   H2452     1.0  0.31631  0.40968  0.19267  1.0000
  H   H2453     1.0  0.26266  0.11231  0.02312  1.0000
  H   H2454     1.0  0.24517  0.13062  0.01039  1.0000
  C   C1438     1.0  0.33232  0.16245  0.22198  1.0000
  H   H2455     1.0  0.41658  0.18610  0.12818  1.0000
  C   C1439     1.0  0.26347  0.17357  0.13652  1.0000
  C   C1440     1.0  0.26594  0.16300  0.12876  1.0000
  C   C1441     1.0  0.26142  0.16643  0.11581  1.0000
  C   C1442     1.0  0.25496  0.18058  0.11030  1.0000
  C   C1443     1.0  0.25244  0.19113  0.11807  1.0000
  C   C1444     1.0  0.25649  0.18759  0.13128  1.0000
  H   H2456     1.0  0.27132  0.15217  0.13271  1.0000
  H   H2457     1.0  0.26335  0.15821  0.10988  1.0000
  H   H2458     1.0  0.23998  0.34888  0.17742  1.0000
  H   H2459     1.0  0.25435  0.19576  0.13732  1.0000
  C   C1445     1.0  0.29572  0.11049  0.11502  1.0000
  C   C1446     1.0  0.29514  0.09904  0.12700  1.0000
  C   C1447     1.0  0.28864  0.08793  0.12765  1.0000
  C   C1448     1.0  0.28230  0.08827  0.11654  1.0000
  C   C1449     1.0  0.28260  0.09986  0.10466  1.0000
  C   C1450     1.0  0.28945  0.11084  0.10382  1.0000
  H   H2460     1.0  0.30005  0.09856  0.13562  1.0000
  H   H2461     1.0  0.28865  0.07892  0.13677  1.0000
  H   H2462     1.0  0.27779  0.10020  0.09604  1.0000
  H   H2463     1.0  0.28990  0.11959  0.09448  1.0000
  C   C1451     1.0  0.34151  0.15175  0.16782  1.0000
  C   C1452     1.0  0.34169  0.16415  0.17184  1.0000
  C   C1453     1.0  0.34997  0.16343  0.18153  1.0000
  C   C1454     1.0  0.35818  0.15029  0.18736  1.0000
  C   C1455     1.0  0.35745  0.13779  0.18385  1.0000
  C   C1456     1.0  0.34916  0.13850  0.17414  1.0000
  H   H2464     1.0  0.33580  0.17445  0.16703  1.0000
  H   H2465     1.0  0.31965  0.38655  0.20132  1.0000
  H   H2466     1.0  0.36367  0.12753  0.18833  1.0000
  H   H2467     1.0  0.34929  0.12887  0.17098  1.0000
  H   H2468     1.0  0.23981  0.25814  0.12050  1.0000
  C   C1457     1.0  0.27222  0.34425  0.12271  1.0000
  C   C1458     1.0  0.40691  0.22602  0.21932  1.0000
  H   H2469     1.0  0.26426  0.41345  0.20057  1.0000
  H   H2470     1.0  0.24267  0.31630  0.18290  1.0000
  Fe  Fe220     1.0  0.24459  0.38553  0.16456  1.0000
  H   H2471     1.0  0.37518  0.17347  0.16941  1.0000
  H   H2472     1.0  0.30698  0.16416  0.19353  1.0000
  H   H2473     1.0  0.26288  0.06812  0.03351  1.0000
  C   C1459     1.0  0.26648  0.11916  0.18598  1.0000
  C   C1460     1.0  0.27425  0.10511  0.18962  1.0000
  C   C1461     1.0  0.26702  0.09416  0.19745  1.0000
  H   H2474     1.0  0.39766  0.26608  0.21163  1.0000
  H   H2475     1.0  0.27195  0.12777  0.18036  1.0000
  H   H2476     1.0  0.27299  0.08326  0.20026  1.0000
  C   C1462     1.0  0.28073  0.20582  0.00772  1.0000
  C   C1463     1.0  0.24420  0.30084  0.21164  1.0000
  C   C1464     1.0  0.45816  0.36360  0.17741  1.0000
  C   C1465     1.0  0.44920  0.35638  0.17466  1.0000
  C   C1466     1.0  0.45327  0.34155  0.17556  1.0000
  H   H2477     1.0  0.38177  0.30371  0.20455  1.0000
  C   C1467     1.0  0.31893  0.15316  0.21053  1.0000
  H   H2478     1.0  0.45501  0.37512  0.17637  1.0000
  H   H2479     1.0  0.43930  0.36235  0.17146  1.0000
  C   C1468     1.0  0.25053  0.01374  0.06279  1.0000
  H   H2480     1.0  0.34791  0.33682  0.17787  1.0000
  H   H2481     1.0  0.32928  0.33705  0.18220  1.0000
  H   H2482     1.0  0.36381  0.46701  0.16734  1.0000
  C   C1469     1.0  0.37167  0.27801  0.22217  1.0000
  N   N101      1.0  0.43191  0.34270  0.22220  1.0000
  H   H2483     1.0  0.24001  0.07687  0.05066  1.0000
  C   C1470     1.0  0.44715  0.34448  0.21765  1.0000
  H   H2484     1.0  0.24296  0.03477  0.03251  1.0000
  C   C1471     1.0  0.23850  0.33925  0.17490  1.0000
  H   H2485     1.0  0.25304  0.30080  0.20196  1.0000
  S   S441      1.0  0.38672  0.33860  0.22330  1.0000
  H   H2486     1.0  0.34650  0.33756  0.12704  1.0000
  H   H2487     1.0  0.47858  0.32980  0.14579  1.0000
  H   H2488     1.0  0.32008  0.14224  0.21753  1.0000
  H   H2489     1.0  0.26689  0.12292  0.04605  1.0000
  H   H2490     1.0  0.23811  0.36780  0.12962  1.0000
  H   H2491     1.0  0.26971  0.39736  0.19335  1.0000
  H   H2492     1.0  0.26602  0.43458  0.12265  1.0000
  C   C1472     1.0  0.30627  0.15554  0.20344  1.0000
  H   H2493     1.0  0.31399  0.32575  0.09284  1.0000
  C   C1473     1.0  0.47508  0.34121  0.18266  1.0000
  C   C1474     1.0  0.40429  0.21300  0.21880  1.0000
  H   H2494     1.0  0.24716  0.20199  0.11403  1.0000
  H   H2495     1.0  0.27548  0.32051  0.12852  1.0000
  H   H2496     1.0  0.23808  0.46418  0.08927  1.0000
  H   H2497     1.0  0.24345  0.32146  0.21530  1.0000
  H   H2498     1.0  0.39133  0.48096  0.16851  1.0000
  H   H2499     1.0  0.28483  0.19541  0.99021  1.0000
  C   C1475     1.0  0.23885  0.03389  0.14652  1.0000
  H   H2500     1.0  0.39126  0.15003  0.16640  1.0000
  H   H2501     1.0  0.32876  0.15250  0.20185  1.0000
  C   C1476     1.0  0.31517  0.19189  0.21424  1.0000
  H   H2502     1.0  0.30678  0.14567  0.20001  1.0000
  H   H2503     1.0  0.36011  0.46586  0.19315  1.0000
  H   H2504     1.0  0.25287  0.45959  0.11467  1.0000
  H   H2505     1.0  0.24289  0.12122  0.06584  1.0000
  C   C1477     1.0  0.26960  0.40897  0.19087  1.0000
  C   C1478     1.0  0.30619  0.33618  0.09305  1.0000
  C   C1479     1.0  0.36781  0.47206  0.18541  1.0000
  C   C1480     1.0  0.25581  0.45225  0.10714  1.0000
  H   H2506     1.0  0.24858  0.05686  0.02123  1.0000
  H   H2507     1.0  0.26851  0.10891  0.06981  1.0000
  C   C1481     1.0  0.39627  0.27796  0.20958  1.0000
  S   S442      1.0  0.26362  0.39314  0.16464  1.0000
  H   H2508     1.0  0.26049  0.28857  0.12810  1.0000
  C   C1482     1.0  0.47989  0.33983  0.13761  1.0000
  N   N102      1.0  0.25374  0.13882  0.05817  1.0000
  H   H2509     1.0  0.24531  0.02446  0.15274  1.0000
  C   C1483     1.0  0.31081  0.38103  0.20348  1.0000
  N   N103      1.0  0.30125  0.16480  0.08114  1.0000
  C   C1484     1.0  0.29990  0.16357  0.09699  1.0000
  C   C1485     1.0  0.30739  0.14991  0.07831  1.0000
  C   C1486     1.0  0.28633  0.16979  0.07843  1.0000
  C   C1487     1.0  0.31043  0.17541  0.07259  1.0000
  C   C1488     1.0  0.29462  0.17776  0.10232  1.0000
  C   C1489     1.0  0.32304  0.14340  0.07966  1.0000
  C   C1490     1.0  0.28475  0.17275  0.06280  1.0000
  C   C1491     1.0  0.31672  0.17529  0.05646  1.0000
  H   H2510     1.0  0.29265  0.15626  0.10366  1.0000
  H   H2511     1.0  0.31034  0.15862  0.10010  1.0000
  H   H2512     1.0  0.30679  0.14930  0.06755  1.0000
  H   H2513     1.0  0.30082  0.14231  0.08580  1.0000
  H   H2514     1.0  0.27968  0.16196  0.08511  1.0000
  H   H2515     1.0  0.28093  0.17995  0.08187  1.0000
  H   H2516     1.0  0.30430  0.18654  0.07315  1.0000
  H   H2517     1.0  0.31964  0.17380  0.07758  1.0000
  H   H2518     1.0  0.28374  0.18352  0.10090  1.0000
  H   H2519     1.0  0.29399  0.17524  0.11407  1.0000
  H   H2520     1.0  0.30208  0.18510  0.09723  1.0000
  H   H2521     1.0  0.32427  0.14090  0.09091  1.0000
  H   H2522     1.0  0.32656  0.13298  0.07627  1.0000
  H   H2523     1.0  0.33044  0.15029  0.07269  1.0000
  H   H2524     1.0  0.28910  0.18215  0.05599  1.0000
  H   H2525     1.0  0.27317  0.17573  0.06276  1.0000
  H   H2526     1.0  0.28939  0.16331  0.05786  1.0000
  H   H2527     1.0  0.31333  0.18613  0.04979  1.0000
  H   H2528     1.0  0.31363  0.16759  0.05241  1.0000
  H   H2529     1.0  0.32858  0.17298  0.05424  1.0000
  N   N104      1.0  0.29817  0.20107  0.13898  1.0000
  C   C1492     1.0  0.28208  0.20544  0.14327  1.0000
  C   C1493     1.0  0.30246  0.18575  0.14688  1.0000
  C   C1494     1.0  0.30218  0.20200  0.12294  1.0000
  C   C1495     1.0  0.30440  0.21130  0.14292  1.0000
  C   C1496     1.0  0.27504  0.22014  0.13496  1.0000
  C   C1497     1.0  0.29902  0.18311  0.16340  1.0000
  C   C1498     1.0  0.31680  0.19302  0.11684  1.0000
  C   C1499     1.0  0.32073  0.20779  0.14147  1.0000
  H   H2530     1.0  0.27705  0.19732  0.14194  1.0000
  H   H2531     1.0  0.27850  0.20584  0.15484  1.0000
  H   H2532     1.0  0.31403  0.18123  0.14363  1.0000
  H   H2533     1.0  0.29720  0.17873  0.14399  1.0000
  H   H2534     1.0  0.29414  0.19857  0.11951  1.0000
  H   H2535     1.0  0.30195  0.21329  0.11694  1.0000
  H   H2536     1.0  0.30187  0.22226  0.13613  1.0000
  H   H2537     1.0  0.29921  0.21297  0.15399  1.0000
  H   H2538     1.0  0.26329  0.22201  0.13919  1.0000
  H   H2539     1.0  0.27863  0.22914  0.13641  1.0000
  H   H2540     1.0  0.27682  0.22046  0.12336  1.0000
  H   H2541     1.0  0.30376  0.18981  0.16723  1.0000
  H   H2542     1.0  0.28734  0.18469  0.16794  1.0000
  H   H2543     1.0  0.30374  0.17172  0.16775  1.0000
  H   H2544     1.0  0.32574  0.19477  0.12016  1.0000
  H   H2545     1.0  0.31896  0.19615  0.10491  1.0000
  H   H2546     1.0  0.31674  0.18139  0.11985  1.0000
  H   H2547     1.0  0.32614  0.21279  0.13057  1.0000
  H   H2548     1.0  0.32557  0.19622  0.14401  1.0000
  H   H2549     1.0  0.32314  0.21227  0.14941  1.0000
  N   N105      1.0  0.28152  0.34650  0.10776  1.0000
  H   H2550     1.0  0.29316  0.36272  0.09418  1.0000
  C   C1500     1.0  0.27340  0.34750  0.09662  1.0000
  C   C1501     1.0  0.27684  0.44991  0.21010  1.0000
  C   C1502     1.0  0.27294  0.33322  0.09350  1.0000
  C   C1503     1.0  0.24668  0.14504  0.04546  1.0000
  H   H2551     1.0  0.27811  0.35392  0.08609  1.0000
  H   H2552     1.0  0.39571  0.18085  0.12449  1.0000
  H   H2553     1.0  0.27796  0.34476  0.13065  1.0000
  H   H2554     1.0  0.39850  0.21287  0.21117  1.0000
  S   S443      1.0  0.37171  0.17102  0.22667  1.0000
  H   H2555     1.0  0.26231  0.33424  0.09138  1.0000
  H   H2556     1.0  0.27451  0.32366  0.10223  1.0000
  H   H2557     1.0  0.28074  0.33121  0.08345  1.0000
  S   S444      1.0  0.24411  0.03110  0.09757  1.0000
  H   H2558     1.0  0.26412  0.14220  0.02637  1.0000
  H   H2559     1.0  0.25983  0.45864  0.09630  1.0000
  H   H2560     1.0  0.25118  0.32576  0.18959  1.0000
  H   H2561     1.0  0.24165  0.08249  0.16897  1.0000
  H   H2562     1.0  0.41089  0.29203  0.20748  1.0000
  H   H2563     1.0  0.30145  0.33893  0.08353  1.0000
  H   H2564     1.0  0.43607  0.31266  0.22170  1.0000
  C   C1504     1.0  0.39439  0.46481  0.15619  1.0000
  H   H2565     1.0  0.28153  0.40329  0.21480  1.0000
  Fe  Fe221     1.0  0.38871  0.18398  0.21668  1.0000
  H   H2566     1.0  0.24670  0.33733  0.16506  1.0000
  H   H2567     1.0  0.31585  0.37093  0.19963  1.0000
  H   H2568     1.0  0.30697  0.12104  0.20703  1.0000
  C   C1505     1.0  0.24817  0.43556  0.09826  1.0000
  H   H2569     1.0  0.46041  0.35809  0.21859  1.0000
  C   C1506     1.0  0.36501  0.28294  0.20880  1.0000
  Fe  Fe222     1.0  0.24779  0.39472  0.13229  1.0000
  C   C1507     1.0  0.25155  0.12225  0.18993  1.0000
  H   H2570     1.0  0.25991  0.13371  0.21095  1.0000
  H   H2571     1.0  0.30026  0.33429  0.11599  1.0000
  H   H2572     1.0  0.23948  0.26558  0.00305  1.0000
  H   H2573     1.0  0.27756  0.28211  0.11726  1.0000
  S   S445      1.0  0.24350  0.43023  0.22429  1.0000
  H   H2574     1.0  0.30833  0.19195  0.22515  1.0000
  H   H2575     1.0  0.40339  0.45947  0.16170  1.0000
  H   H2576     1.0  0.35017  0.17311  0.18422  1.0000
  C   C1508     1.0  0.25503  0.13006  0.22246  1.0000
  H   H2577     1.0  0.24862  0.12487  0.07932  1.0000
  N   N106      1.0  0.24635  0.10828  0.15138  1.0000
  H   H2578     1.0  0.31473  0.47089  0.22648  1.0000
  H   H2579     1.0  0.27607  0.13548  0.04705  1.0000
  C   C1509     1.0  0.26061  0.10578  0.15515  1.0000
  C   C1510     1.0  0.28904  0.41016  0.20776  1.0000
  C   C1511     1.0  0.37672  0.16633  0.14469  1.0000
  H   H2580     1.0  0.26215  0.35347  0.09954  1.0000
  C   C1512     1.0  0.26678  0.09058  0.16305  1.0000
  H   H2581     1.0  0.48078  0.35148  0.15249  1.0000
  H   H2582     1.0  0.25117  0.12497  0.13240  1.0000
  Fe  Fe223     1.0  0.32368  0.47994  0.17678  1.0000
  C   C1513     1.0  0.45166  0.35294  0.22588  1.0000
  H   H2583     1.0  0.25597  0.10061  0.13176  1.0000
  H   H2584     1.0  0.26882  0.10866  0.14527  1.0000
  H   H2585     1.0  0.26005  0.11285  0.16230  1.0000
  C   C1514     1.0  0.29922  0.41048  0.21680  1.0000
  H   H2586     1.0  0.24630  0.04128  0.14114  1.0000
  S   S446      1.0  0.24426  0.15559  0.98661  1.0000
  H   H2587     1.0  0.38656  0.45783  0.16073  1.0000
  C   C1515     1.0  0.23809  0.28697  0.11909  1.0000
  H   H2588     1.0  0.43197  0.34207  0.20046  1.0000
  H   H2589     1.0  0.30533  0.42392  0.18295  1.0000
  H   H2590     1.0  0.44986  0.31987  0.20748  1.0000
  H   H2591     1.0  0.35558  0.27814  0.21110  1.0000
  H   H2592     1.0  0.28913  0.38540  0.20181  1.0000
  H   H2593     1.0  0.27753  0.09038  0.16441  1.0000
  H   H2594     1.0  0.46891  0.34604  0.13676  1.0000
  C   C1516     1.0  0.47119  0.35610  0.18134  1.0000
  H   H2595     1.0  0.33919  0.13869  0.22621  1.0000
  H   H2596     1.0  0.32252  0.39535  0.17435  1.0000
  H   H2597     1.0  0.31074  0.40894  0.16396  1.0000
  H   H2598     1.0  0.32584  0.41297  0.16689  1.0000
  C   C1517     1.0  0.25206  0.09731  0.20171  1.0000
  Fe  Fe224     1.0  0.24238  0.23864  0.07084  1.0000
  C   C1518     1.0  0.24745  0.09860  0.14160  1.0000
  H   H2599     1.0  0.29242  0.35998  0.11286  1.0000
  S   S447      1.0  0.30323  0.47252  0.18082  1.0000
  H   H2600     1.0  0.43389  0.37145  0.20545  1.0000
  Fe  Fe225     1.0  0.35673  0.19198  0.22073  1.0000
  H   H2601     1.0  0.45471  0.33385  0.21864  1.0000
  H   H2602     1.0  0.37339  0.36613  0.13529  1.0000
  H   H2603     1.0  0.38944  0.18229  0.16367  1.0000
  H   H2604     1.0  0.24968  0.21665  0.00352  1.0000
  C   C1519     1.0  0.25578  0.15121  0.06281  1.0000
  H   H2605     1.0  0.37468  0.26604  0.22457  1.0000
  H   H2606     1.0  0.40410  0.16611  0.13620  1.0000
  C   C1520     1.0  0.24442  0.02003  0.08612  1.0000
  H   H2607     1.0  0.35293  0.18722  0.14802  1.0000
  H   H2608     1.0  0.41802  0.33541  0.21368  1.0000
  H   H2609     1.0  0.41500  0.37818  0.20883  1.0000
  N   N107      1.0  0.31801  0.16438  0.21852  1.0000
  H   H2610     1.0  0.25718  0.15739  0.08165  1.0000
  H   H2611     1.0  0.38276  0.34810  0.14012  1.0000
  H   H2612     1.0  0.31237  0.34424  0.09213  1.0000
  C   C1521     1.0  0.24158  0.12483  0.02119  1.0000
  H   H2613     1.0  0.28361  0.11770  0.20652  1.0000
  H   H2614     1.0  0.46950  0.32256  0.18034  1.0000
  H   H2615     1.0  0.38995  0.30439  0.21772  1.0000
  H   H2616     1.0  0.30443  0.18132  0.20596  1.0000
  H   H2617     1.0  0.24926  0.24112  0.99854  1.0000
  C   C1522     1.0  0.40681  0.18671  0.13693  1.0000
  H   H2618     1.0  0.26217  0.05986  0.05203  1.0000
  C   C1523     1.0  0.31512  0.17894  0.20854  1.0000
  N   N108      1.0  0.38407  0.25518  0.16974  1.0000
  C   C1524     1.0  0.38208  0.24311  0.18278  1.0000
  C   C1525     1.0  0.38910  0.24900  0.15647  1.0000
  C   C1526     1.0  0.37023  0.26603  0.16871  1.0000
  C   C1527     1.0  0.39481  0.26260  0.17099  1.0000
  C   C1528     1.0  0.37557  0.24759  0.19732  1.0000
  C   C1529     1.0  0.40403  0.23891  0.15478  1.0000
  C   C1530     1.0  0.35740  0.26012  0.16891  1.0000
  C   C1531     1.0  0.40006  0.27372  0.15746  1.0000
  H   H2619     1.0  0.37531  0.23649  0.18163  1.0000
  H   H2620     1.0  0.39245  0.23553  0.18393  1.0000
  H   H2621     1.0  0.38900  0.25760  0.14650  1.0000
  H   H2622     1.0  0.38160  0.24272  0.15622  1.0000
  H   H2623     1.0  0.36696  0.27212  0.17738  1.0000
  H   H2624     1.0  0.37159  0.27425  0.15855  1.0000
  H   H2625     1.0  0.39035  0.26838  0.17993  1.0000
  H   H2626     1.0  0.40440  0.25454  0.17392  1.0000
  H   H2627     1.0  0.38257  0.25292  0.19999  1.0000
  H   H2628     1.0  0.36468  0.25447  0.19772  1.0000
  H   H2629     1.0  0.37454  0.23777  0.20593  1.0000
  H   H2630     1.0  0.40643  0.23519  0.14462  1.0000
  H   H2631     1.0  0.41260  0.24435  0.15401  1.0000
  H   H2632     1.0  0.40447  0.22913  0.16354  1.0000
  H   H2633     1.0  0.35463  0.25192  0.17877  1.0000
  H   H2634     1.0  0.40025  0.28349  0.16073  1.0000
  H   H2635     1.0  0.39338  0.27737  0.14936  1.0000
  H   H2636     1.0  0.41126  0.26949  0.15225  1.0000
  N   N109      1.0  0.25053  0.28420  0.10673  1.0000
  C   C1532     1.0  0.24486  0.28803  0.09323  1.0000
  H   H2637     1.0  0.36120  0.29475  0.20600  1.0000
  C   C1533     1.0  0.25800  0.26864  0.10993  1.0000
  C   C1534     1.0  0.26117  0.29322  0.10462  1.0000
  C   C1535     1.0  0.25556  0.28365  0.07978  1.0000
  C   C1536     1.0  0.26114  0.14780  0.07680  1.0000
  H   H2638     1.0  0.26356  0.15680  0.05431  1.0000
  H   H2639     1.0  0.25591  0.24672  0.11316  1.0000
  H   H2640     1.0  0.39825  0.46494  0.14453  1.0000
  C   C1537     1.0  0.27458  0.11756  0.06518  1.0000
  C   C1538     1.0  0.26875  0.44069  0.11149  1.0000
  H   H2641     1.0  0.26789  0.26654  0.10165  1.0000
  C   C1539     1.0  0.38135  0.30026  0.21629  1.0000
  H   H2642     1.0  0.26282  0.41437  0.18289  1.0000
  H   H2643     1.0  0.27867  0.38371  0.10186  1.0000
  H   H2644     1.0  0.25939  0.27186  0.08120  1.0000
  H   H2645     1.0  0.25004  0.28725  0.07068  1.0000
  H   H2646     1.0  0.26481  0.28885  0.07645  1.0000
  H   H2647     1.0  0.26071  0.32981  0.13956  1.0000
  H   H2648     1.0  0.39374  0.28232  0.19874  1.0000
  C   C1540     1.0  0.25626  0.15095  0.03105  1.0000
  C   C1541     1.0  0.36374  0.47688  0.17061  1.0000
  H   H2649     1.0  0.24342  0.04905  0.17810  1.0000
  H   H2650     1.0  0.41636  0.27370  0.21682  1.0000
  N   N110      1.0  0.34544  0.35855  0.15040  1.0000
  C   C1542     1.0  0.34393  0.37464  0.14703  1.0000
  C   C1543     1.0  0.36066  0.35179  0.15184  1.0000
  C   C1544     1.0  0.33517  0.35451  0.16451  1.0000
  C   C1545     1.0  0.34169  0.35480  0.13838  1.0000
  C   C1546     1.0  0.32878  0.38380  0.14613  1.0000
  C   C1547     1.0  0.37229  0.35481  0.13811  1.0000
  C   C1548     1.0  0.33849  0.33889  0.17311  1.0000
  C   C1549     1.0  0.34469  0.33875  0.13825  1.0000
  H   H2651     1.0  0.34748  0.37785  0.15518  1.0000
  H   H2652     1.0  0.35098  0.37834  0.13654  1.0000
  H   H2653     1.0  0.36252  0.33996  0.15548  1.0000
  H   H2654     1.0  0.36308  0.35539  0.16041  1.0000
  H   H2655     1.0  0.33459  0.36129  0.17201  1.0000
  H   H2656     1.0  0.32410  0.35665  0.16284  1.0000
  H   H2657     1.0  0.33009  0.35890  0.13854  1.0000
  H   H2658     1.0  0.34687  0.36046  0.12764  1.0000
  H   H2659     1.0  0.32514  0.38258  0.13703  1.0000
  H   H2660     1.0  0.32076  0.38141  0.15623  1.0000
  H   H2661     1.0  0.32902  0.39531  0.14412  1.0000
  H   H2662     1.0  0.25914  0.32996  0.12211  1.0000
  H   H2663     1.0  0.27341  0.43321  0.10411  1.0000
  H   H2664     1.0  0.35914  0.25578  0.15927  1.0000
  C   C1550     1.0  0.23880  0.22005  0.00122  1.0000
  C   C1551     1.0  0.24122  0.06701  0.04683  1.0000
  H   H2665     1.0  0.25518  0.01610  0.05140  1.0000
  H   H2666     1.0  0.26026  0.08777  0.17403  1.0000
  H   H2667     1.0  0.26248  0.35294  0.12351  1.0000
  H   H2668     1.0  0.28246  0.42122  0.20600  1.0000
  H   H2669     1.0  0.30109  0.38642  0.18512  1.0000
  C   C1552     1.0  0.26674  0.33024  0.12826  1.0000
  S   S448      1.0  0.24302  0.06238  0.11276  1.0000
  H   H2670     1.0  0.39673  0.15806  0.17719  1.0000
  C   C1553     1.0  0.29876  0.38967  0.19556  1.0000
  C   C1554     1.0  0.24285  0.13548  0.15022  1.0000
  C   C1555     1.0  0.24910  0.25771  0.11126  1.0000
  H   H2671     1.0  0.28309  0.42403  0.18120  1.0000
  H   H2672     1.0  0.37469  0.19687  0.13201  1.0000
  H   H2673     1.0  0.25667  0.30488  0.10102  1.0000
  C   C1556     1.0  0.26752  0.18886  0.00710  1.0000
  N   N111      1.0  0.24303  0.44687  0.10717  1.0000
  S   S449      1.0  0.24624  0.98947  0.05775  1.0000
  H   H2674     1.0  0.27038  0.29088  0.09562  1.0000
  C   C1557     1.0  0.26788  0.29095  0.11758  1.0000
  H   H2675     1.0  0.28220  0.12954  0.21728  1.0000
  H   H2676     1.0  0.34785  0.26908  0.16860  1.0000
  H   H2677     1.0  0.27097  0.30093  0.11732  1.0000
  H   H2678     1.0  0.25288  0.42501  0.10464  1.0000
  H   H2679     1.0  0.25364  0.13551  0.15119  1.0000
  H   H2680     1.0  0.28905  0.21179  0.00249  1.0000
  H   H2681     1.0  0.41044  0.18294  0.14722  1.0000
  C   C1558     1.0  0.30853  0.41199  0.18582  1.0000
  C   C1559     1.0  0.38844  0.48026  0.15869  1.0000
  C   C1560     1.0  0.28537  0.11802  0.21699  1.0000
  C   C1561     1.0  0.27827  0.19660  0.00069  1.0000
  C   C1562     1.0  0.28466  0.41212  0.18422  1.0000
  H   H2682     1.0  0.29260  0.32401  0.10968  1.0000
  H   H2683     1.0  0.41826  0.27797  0.19785  1.0000
  H   H2684     1.0  0.26754  0.37430  0.11647  1.0000
  H   H2685     1.0  0.44992  0.34938  0.20600  1.0000
  C   C1563     1.0  0.25754  0.43787  0.22390  1.0000
  C   C1564     1.0  0.24435  0.11139  0.19799  1.0000
  H   H2686     1.0  0.35688  0.19120  0.16315  1.0000
  H   H2687     1.0  0.24947  0.15670  0.02313  1.0000
  C   C1565     1.0  0.25743  0.06090  0.04279  1.0000
  N   N112      1.0  0.29555  0.40574  0.19353  1.0000
  H   H2688     1.0  0.28287  0.09295  0.21643  1.0000
  C   C1566     1.0  0.37417  0.19231  0.14368  1.0000
  C   C1567     1.0  0.39751  0.17723  0.13565  1.0000
  S   S450      1.0  0.36959  0.14905  0.19882  1.0000
  N   N113      1.0  0.38346  0.17741  0.14639  1.0000
  H   H2689     1.0  0.36724  0.16463  0.15345  1.0000
  C   C1568     1.0  0.29491  0.33479  0.10733  1.0000
  H   H2690     1.0  0.27729  0.44605  0.11113  1.0000
  H   H2691     1.0  0.36935  0.18033  0.12507  1.0000
  C   C1569     1.0  0.42950  0.33572  0.21161  1.0000
  C   C1570     1.0  0.42350  0.36833  0.20775  1.0000
  H   H2692     1.0  0.48069  0.32597  0.22690  1.0000
  C   C1571     1.0  0.26482  0.44484  0.21073  1.0000
  H   H2693     1.0  0.26195  0.15862  0.03199  1.0000
  H   H2694     1.0  0.35258  0.20511  0.14828  1.0000
  H   H2695     1.0  0.25891  0.10861  0.22041  1.0000
  H   H2696     1.0  0.24649  0.08885  0.20778  1.0000
  H   H2697     1.0  0.25698  0.13919  0.08531  1.0000
  H   H2698     1.0  0.40123  0.19816  0.13572  1.0000
  H   H2699     1.0  0.28553  0.11232  0.06023  1.0000
  H   H2700     1.0  0.24203  0.42319  0.08692  1.0000
  S   S451      1.0  0.29653  0.45428  0.22217  1.0000
  H   H2701     1.0  0.24543  0.25915  0.10130  1.0000
  H   H2702     1.0  0.40287  0.23586  0.21225  1.0000
  H   H2703     1.0  0.24415  0.43075  0.12682  1.0000
  H   H2704     1.0  0.24568  0.23217  0.97896  1.0000
  H   H2705     1.0  0.23864  0.30808  0.12191  1.0000
  H   H2706     1.0  0.37189  0.47548  0.14311  1.0000
  C   C1572     1.0  0.23920  0.00739  0.09226  1.0000
  C   C1573     1.0  0.24405  0.13023  0.06972  1.0000
  H   H2707     1.0  0.24097  0.28155  0.12963  1.0000
  H   H2708     1.0  0.25982  0.05000  0.04066  1.0000
  C   C1574     1.0  0.30164  0.11349  0.21605  1.0000
  C   C1575     1.0  0.28133  0.44839  0.22270  1.0000
  C   C1576     1.0  0.23958  0.99800  0.08374  1.0000
  H   H2709     1.0  0.24830  0.21330  0.98103  1.0000
  C   C1577     1.0  0.24083  0.22281  0.98476  1.0000
  H   H2710     1.0  0.24908  0.29552  0.22111  1.0000
  H   H2711     1.0  0.36080  0.31556  0.21556  1.0000
  H   H2712     1.0  0.24585  0.15980  0.06375  1.0000
  H   H2713     1.0  0.24834  0.08166  0.01900  1.0000
  H   H2714     1.0  0.25134  0.04601  0.16040  1.0000
  S   S452      1.0  0.23888  0.39710  0.11292  1.0000
  N   N114      1.0  0.38433  0.28411  0.22092  1.0000
  H   H2715     1.0  0.25429  0.03276  0.06648  1.0000
  C   C1578     1.0  0.24319  0.12356  0.14283  1.0000
  H   H2716     1.0  0.24337  0.13188  0.22318  1.0000
  H   H2717     1.0  0.29282  0.41225  0.22753  1.0000
  C   C1579     1.0  0.24531  0.00108  0.06894  1.0000
  H   H2718     1.0  0.30447  0.11380  0.22598  1.0000
  C   C1580     1.0  0.25003  0.02321  0.07130  1.0000
  H   H2719     1.0  0.23903  0.14611  0.14346  1.0000
  H   H2720     1.0  0.41016  0.35517  0.22405  1.0000
  H   H2721     1.0  0.30732  0.40042  0.21861  1.0000
  H   H2722     1.0  0.24224  0.13689  0.04343  1.0000
  H   H2723     1.0  0.48657  0.35944  0.13416  1.0000
  H   H2724     1.0  0.48502  0.33527  0.18576  1.0000
  H   H2725     1.0  0.24079  0.29982  0.09015  1.0000
  S   S453      1.0  0.48224  0.36585  0.18424  1.0000
  H   H2726     1.0  0.24159  0.22463  0.02537  1.0000
  H   H2727     1.0  0.48537  0.33729  0.12698  1.0000
  C   C1581     1.0  0.48747  0.34899  0.14209  1.0000
  C   C1582     1.0  0.28166  0.09372  0.22767  1.0000
  Fe  Fe226     1.0  0.34530  0.28107  0.45819  1.0000
  S   S454      1.0  0.36566  0.26483  0.45352  1.0000
  S   S455      1.0  0.34542  0.30408  0.44771  1.0000
  H   H2728     1.0  0.28997  0.42347  0.47638  1.0000
  S   S456      1.0  0.24047  0.32776  0.41793  1.0000
  H   H2729     1.0  0.30545  0.47508  0.24379  1.0000
  C   C1583     1.0  0.32723  0.16379  0.30248  1.0000
  Fe  Fe227     1.0  0.35152  0.25143  0.45186  1.0000
  S   S457      1.0  0.35709  0.23881  0.43421  1.0000
  H   H2730     1.0  0.36006  0.30236  0.23209  1.0000
  S   S458      1.0  0.33156  0.26852  0.45471  1.0000
  H   H2731     1.0  0.36914  0.31641  0.22886  1.0000
  S   S459      1.0  0.24919  0.17254  0.30623  1.0000
  H   H2732     1.0  0.48190  0.20882  0.28743  1.0000
  C   C1584     1.0  0.25846  0.31893  0.30174  1.0000
  H   H2733     1.0  0.46764  0.27869  0.26962  1.0000
  H   H2734     1.0  0.39138  0.32708  0.45073  1.0000
  C   C1585     1.0  0.25487  0.11834  0.28661  1.0000
  H   H2735     1.0  0.39206  0.26699  0.23774  1.0000
  H   H2736     1.0  0.25669  0.43082  0.24661  1.0000
  H   H2737     1.0  0.37745  0.29574  0.24706  1.0000
  H   H2738     1.0  0.27237  0.24459  0.31400  1.0000
  H   H2739     1.0  0.32163  0.18537  0.30749  1.0000
  H   H2740     1.0  0.24625  0.40133  0.33378  1.0000
  Fe  Fe228     1.0  0.33100  0.24093  0.34498  1.0000
  S   S460      1.0  0.33389  0.22043  0.36174  1.0000
  S   S461      1.0  0.34780  0.25284  0.33063  1.0000
  Fe  Fe229     1.0  0.29871  0.24616  0.35336  1.0000
  S   S462      1.0  0.29889  0.22628  0.37085  1.0000
  S   S463      1.0  0.27756  0.25977  0.34947  1.0000
  Fe  Fe230     1.0  0.31630  0.23272  0.37655  1.0000
  S   S464      1.0  0.31333  0.23607  0.39920  1.0000
  Fe  Fe231     1.0  0.31613  0.21604  0.35443  1.0000
  S   S465      1.0  0.31647  0.19519  0.34885  1.0000
  S   S466      1.0  0.31456  0.25343  0.36011  1.0000
  S   S467      1.0  0.31482  0.23568  0.33661  1.0000
  C   C1586     1.0  0.41019  0.30125  0.24238  1.0000
  Fe  Fe232     1.0  0.26881  0.16783  0.31516  1.0000
  S   S468      1.0  0.28168  0.17836  0.29475  1.0000
  S   S469      1.0  0.26828  0.17280  0.33641  1.0000
  Fe  Fe233     1.0  0.25766  0.15152  0.29926  1.0000
  S   S470      1.0  0.27008  0.16090  0.27771  1.0000
  H   H2741     1.0  0.27985  0.22870  0.32560  1.0000
  Fe  Fe234     1.0  0.28770  0.15680  0.28920  1.0000
  S   S471      1.0  0.31061  0.14865  0.27928  1.0000
  Fe  Fe235     1.0  0.26279  0.18141  0.28538  1.0000
  S   S472      1.0  0.27605  0.14563  0.31039  1.0000
  H   H2742     1.0  0.33897  0.16308  0.29960  1.0000
  Fe  Fe236     1.0  0.44788  0.24366  0.26416  1.0000
  S   S473      1.0  0.43190  0.25047  0.28323  1.0000
  S   S474      1.0  0.47190  0.24106  0.26122  1.0000
  Fe  Fe237     1.0  0.42445  0.24462  0.24894  1.0000
  S   S475      1.0  0.40687  0.25228  0.26661  1.0000
  S   S476      1.0  0.24468  0.09314  0.26645  1.0000
  Fe  Fe238     1.0  0.42077  0.26646  0.26674  1.0000
  S   S477      1.0  0.41281  0.28887  0.27033  1.0000
  Fe  Fe239     1.0  0.41954  0.23558  0.28134  1.0000
  S   S478      1.0  0.40781  0.22081  0.29957  1.0000
  S   S479      1.0  0.43726  0.26058  0.24765  1.0000
  S   S480      1.0  0.43658  0.22700  0.26365  1.0000
  H   H2743     1.0  0.25397  0.43612  0.30209  1.0000
  C   C1587     1.0  0.31971  0.17982  0.30018  1.0000
  S   S481      1.0  0.27340  0.32362  0.35115  1.0000
  H   H2744     1.0  0.24322  0.30300  0.29596  1.0000
  C   C1588     1.0  0.26202  0.43642  0.23648  1.0000
  S   S482      1.0  0.25402  0.20210  0.27148  1.0000
  C   C1589     1.0  0.38966  0.32496  0.25034  1.0000
  C   C1590     1.0  0.39549  0.31401  0.26077  1.0000
  H   H2745     1.0  0.39203  0.31471  0.27195  1.0000
  C   C1591     1.0  0.24533  0.43258  0.29987  1.0000
  C   C1592     1.0  0.27320  0.12466  0.24747  1.0000
  H   H2746     1.0  0.41827  0.29217  0.23931  1.0000
  H   H2747     1.0  0.42107  0.36207  0.23044  1.0000
  H   H2748     1.0  0.30951  0.29449  0.37825  1.0000
  H   H2749     1.0  0.36824  0.23650  0.25199  1.0000
  H   H2750     1.0  0.27074  0.28400  0.37905  1.0000
  N   N115      1.0  0.24748  0.31107  0.31215  1.0000
  C   C1593     1.0  0.24174  0.12735  0.29097  1.0000
  Fe  Fe240     1.0  0.36101  0.25618  0.47749  1.0000
  C   C1594     1.0  0.31779  0.16308  0.26778  1.0000
  C   C1595     1.0  0.30884  0.17629  0.26343  1.0000
  C   C1596     1.0  0.31466  0.18770  0.25406  1.0000
  C   C1597     1.0  0.32944  0.18588  0.24885  1.0000
  C   C1598     1.0  0.33840  0.17280  0.25357  1.0000
  C   C1599     1.0  0.33259  0.16139  0.26295  1.0000
  H   H2751     1.0  0.29739  0.17762  0.26678  1.0000
  H   H2752     1.0  0.30766  0.19781  0.25049  1.0000
  H   H2753     1.0  0.35894  0.20224  0.47321  1.0000
  H   H2754     1.0  0.33958  0.15124  0.26642  1.0000
  C   C1600     1.0  0.38563  0.32053  0.44793  1.0000
  H   H2755     1.0  0.33213  0.19911  0.44308  1.0000
  H   H2756     1.0  0.26033  0.28849  0.40207  1.0000
  H   H2757     1.0  0.24585  0.36799  0.31191  1.0000
  C   C1601     1.0  0.27639  0.27785  0.34859  1.0000
  C   C1602     1.0  0.28855  0.28373  0.34340  1.0000
  C   C1603     1.0  0.28750  0.29809  0.34348  1.0000
  C   C1604     1.0  0.27437  0.30642  0.34905  1.0000
  C   C1605     1.0  0.26216  0.30065  0.35372  1.0000
  C   C1606     1.0  0.26316  0.28639  0.35348  1.0000
  H   H2758     1.0  0.29877  0.27720  0.33938  1.0000
  H   H2759     1.0  0.29694  0.30258  0.33969  1.0000
  C   C1607     1.0  0.48521  0.28230  0.24233  1.0000
  H   H2760     1.0  0.25372  0.28189  0.35754  1.0000
  C   C1608     1.0  0.36436  0.24358  0.32221  1.0000
  C   C1609     1.0  0.36824  0.22857  0.32522  1.0000
  C   C1610     1.0  0.38174  0.22162  0.31846  1.0000
  C   C1611     1.0  0.39127  0.22964  0.30854  1.0000
  C   C1612     1.0  0.38738  0.24462  0.30563  1.0000
  C   C1613     1.0  0.37400  0.25155  0.31250  1.0000
  H   H2761     1.0  0.36089  0.22236  0.33279  1.0000
  H   H2762     1.0  0.38476  0.21002  0.32082  1.0000
  H   H2763     1.0  0.39472  0.25089  0.29816  1.0000
  H   H2764     1.0  0.37109  0.26316  0.31021  1.0000
  C   C1614     1.0  0.30113  0.19180  0.34581  1.0000
  C   C1615     1.0  0.29389  0.18207  0.35637  1.0000
  C   C1616     1.0  0.28364  0.17676  0.35335  1.0000
  C   C1617     1.0  0.28073  0.18071  0.33958  1.0000
  C   C1618     1.0  0.28768  0.19073  0.32900  1.0000
  C   C1619     1.0  0.29782  0.19630  0.33212  1.0000
  H   H2765     1.0  0.29655  0.17823  0.36683  1.0000
  H   H2766     1.0  0.27828  0.16911  0.36163  1.0000
  H   H2767     1.0  0.28538  0.19405  0.31838  1.0000
  H   H2768     1.0  0.30357  0.20357  0.32376  1.0000
  H   H2769     1.0  0.24571  0.45835  0.30565  1.0000
  C   C1620     1.0  0.32085  0.22765  0.46823  1.0000
  H   H2770     1.0  0.27710  0.07237  0.23471  1.0000
  C   C1621     1.0  0.33833  0.14780  0.23099  1.0000
  C   C1622     1.0  0.47143  0.25101  0.28491  1.0000
  H   H2771     1.0  0.23791  0.40326  0.31956  1.0000
  C   C1623     1.0  0.24621  0.28568  0.32818  1.0000
  C   C1624     1.0  0.42013  0.21353  0.23787  1.0000
  H   H2772     1.0  0.46029  0.25045  0.28845  1.0000
  H   H2773     1.0  0.47157  0.25873  0.30315  1.0000
  H   H2774     1.0  0.24740  0.47135  0.27417  1.0000
  H   H2775     1.0  0.45914  0.27735  0.24808  1.0000
  H   H2776     1.0  0.27613  0.32848  0.30046  1.0000
  C   C1625     1.0  0.28018  0.41799  0.46268  1.0000
  H   H2777     1.0  0.30027  0.16479  0.31972  1.0000
  C   C1626     1.0  0.25255  0.41792  0.29591  1.0000
  H   H2778     1.0  0.32242  0.23283  0.47610  1.0000
  H   H2779     1.0  0.25425  0.24526  0.36711  1.0000
  H   H2780     1.0  0.32203  0.15349  0.33951  1.0000
  H   H2781     1.0  0.34741  0.15446  0.32768  1.0000
  H   H2782     1.0  0.25499  0.19999  0.30065  1.0000
  C   C1627     1.0  0.24973  0.33149  0.44011  1.0000
  H   H2783     1.0  0.26631  0.30793  0.40795  1.0000
  C   C1628     1.0  0.34490  0.23848  0.42427  1.0000
  C   C1629     1.0  0.33047  0.24523  0.42745  1.0000
  C   C1630     1.0  0.32099  0.24425  0.41974  1.0000
  C   C1631     1.0  0.32590  0.23706  0.40835  1.0000
  C   C1632     1.0  0.34037  0.23043  0.40503  1.0000
  C   C1633     1.0  0.34976  0.23095  0.41312  1.0000
  H   H2784     1.0  0.32657  0.25104  0.43598  1.0000
  H   H2785     1.0  0.30977  0.24908  0.42267  1.0000
  H   H2786     1.0  0.34423  0.22455  0.39653  1.0000
  H   H2787     1.0  0.36087  0.22549  0.41073  1.0000
  C   C1634     1.0  0.33316  0.31629  0.45745  1.0000
  H   H2788     1.0  0.27380  0.23109  0.35284  1.0000
  H   H2789     1.0  0.24692  0.42492  0.32679  1.0000
  C   C1635     1.0  0.31463  0.47663  0.23460  1.0000
  C   C1636     1.0  0.32620  0.34004  0.46258  1.0000
  C   C1637     1.0  0.33524  0.33025  0.45445  1.0000
  C   C1638     1.0  0.41755  0.20048  0.23730  1.0000
  C   C1639     1.0  0.31472  0.33608  0.47342  1.0000
  H   H2790     1.0  0.32804  0.35074  0.46040  1.0000
  H   H2791     1.0  0.34397  0.33346  0.44593  1.0000
  H   H2792     1.0  0.34165  0.17232  0.31725  1.0000
  H   H2793     1.0  0.24308  0.23274  0.26477  1.0000
  C   C1640     1.0  0.28605  0.29827  0.38503  1.0000
  C   C1641     1.0  0.30655  0.23601  0.46407  1.0000
  C   C1642     1.0  0.32788  0.20866  0.44795  1.0000
  C   C1643     1.0  0.39413  0.32424  0.23587  1.0000
  H   H2794     1.0  0.26708  0.22217  0.37678  1.0000
  H   H2795     1.0  0.27824  0.31023  0.31003  1.0000
  H   H2796     1.0  0.32398  0.18529  0.28900  1.0000
  C   C1644     1.0  0.26086  0.11391  0.22794  1.0000
  C   C1645     1.0  0.25801  0.23982  0.33480  1.0000
  H   H2797     1.0  0.23805  0.20699  0.36450  1.0000
  H   H2798     1.0  0.34981  0.17148  0.25014  1.0000
  C   C1646     1.0  0.26820  0.22236  0.35429  1.0000
  H   H2799     1.0  0.42629  0.21363  0.24523  1.0000
  C   C1647     1.0  0.23788  0.45568  0.31586  1.0000
  H   H2800     1.0  0.24769  0.30869  0.46911  1.0000
  C   C1648     1.0  0.32413  0.16088  0.32882  1.0000
  H   H2801     1.0  0.42176  0.19060  0.24425  1.0000
  H   H2802     1.0  0.26436  0.11929  0.28918  1.0000
  H   H2803     1.0  0.27116  0.10307  0.25214  1.0000
  C   C1649     1.0  0.24516  0.22085  0.30495  1.0000
  C   C1650     1.0  0.34976  0.20609  0.46783  1.0000
  C   C1651     1.0  0.32171  0.31222  0.46836  1.0000
  H   H2804     1.0  0.38134  0.24574  0.25167  1.0000
  H   H2805     1.0  0.30166  0.29188  0.40484  1.0000
  H   H2806     1.0  0.29348  0.26398  0.40620  1.0000
  C   C1652     1.0  0.23899  0.23504  0.29937  1.0000
  C   C1653     1.0  0.24226  0.23522  0.35833  1.0000
  H   H2807     1.0  0.42518  0.33088  0.25997  1.0000
  H   H2808     1.0  0.39910  0.28250  0.23402  1.0000
  C   C1654     1.0  0.26618  0.21497  0.37045  1.0000
  H   H2809     1.0  0.32508  0.15973  0.29413  1.0000
  H   H2810     1.0  0.27515  0.20549  0.37190  1.0000
  H   H2811     1.0  0.24599  0.31525  0.33280  1.0000
  H   H2812     1.0  0.34375  0.14054  0.31541  1.0000
  C   C1655     1.0  0.40561  0.30207  0.25687  1.0000
  H   H2813     1.0  0.27595  0.21456  0.34818  1.0000
  N   N116      1.0  0.25493  0.22833  0.34818  1.0000
  H   H2814     1.0  0.26389  0.31344  0.29265  1.0000
  H   H2815     1.0  0.30191  0.14671  0.34307  1.0000
  H   H2816     1.0  0.36842  0.28102  0.25079  1.0000
  H   H2817     1.0  0.39290  0.31025  0.44597  1.0000
  N   N117      1.0  0.32276  0.15466  0.31717  1.0000
  C   C1656     1.0  0.47943  0.24709  0.27204  1.0000
  H   H2818     1.0  0.27252  0.41162  0.46315  1.0000
  C   C1657     1.0  0.25555  0.10757  0.27957  1.0000
  C   C1658     1.0  0.30736  0.15404  0.31938  1.0000
  H   H2819     1.0  0.30556  0.15105  0.31012  1.0000
  H   H2820     1.0  0.37876  0.21226  0.24406  1.0000
  C   C1659     1.0  0.45416  0.28585  0.25431  1.0000
  H   H2821     1.0  0.31468  0.27572  0.40568  1.0000
  C   C1660     1.0  0.27380  0.44180  0.23590  1.0000
  H   H2822     1.0  0.38369  0.27883  0.25768  1.0000
  H   H2823     1.0  0.37505  0.19471  0.25192  1.0000
  H   H2824     1.0  0.30922  0.20506  0.46416  1.0000
  H   H2825     1.0  0.31226  0.14112  0.24290  1.0000
  S   S483      1.0  0.24501  0.34916  0.37627  1.0000
  H   H2826     1.0  0.27860  0.12441  0.25596  1.0000
  H   H2827     1.0  0.29855  0.27680  0.41951  1.0000
  C   C1661     1.0  0.25088  0.21687  0.34383  1.0000
  H   H2828     1.0  0.33847  0.12047  0.30967  1.0000
  H   H2829     1.0  0.25358  0.32989  0.29653  1.0000
  H   H2830     1.0  0.24246  0.44023  0.28998  1.0000
  H   H2831     1.0  0.26145  0.12739  0.25166  1.0000
  H   H2832     1.0  0.26560  0.10016  0.27695  1.0000
  H   H2833     1.0  0.41181  0.18641  0.27717  1.0000
  H   H2834     1.0  0.33462  0.13635  0.29634  1.0000
  H   H2835     1.0  0.26295  0.29662  0.32420  1.0000
  H   H2836     1.0  0.35137  0.19878  0.46060  1.0000
  S   S484      1.0  0.33638  0.19974  0.23583  1.0000
  H   H2837     1.0  0.25342  0.27572  0.33267  1.0000
  H   H2838     1.0  0.33694  0.21381  0.44591  1.0000
  H   H2839     1.0  0.33817  0.16899  0.33632  1.0000
  H   H2840     1.0  0.27698  0.30439  0.37977  1.0000
  H   H2841     1.0  0.27283  0.25848  0.38234  1.0000
  H   H2842     1.0  0.24393  0.19675  0.35100  1.0000
  H   H2843     1.0  0.29124  0.41219  0.45876  1.0000
  S   S485      1.0  0.41681  0.24312  0.23000  1.0000
  N   N118      1.0  0.32200  0.21176  0.47438  1.0000
  H   H2844     1.0  0.24263  0.33940  0.32412  1.0000
  H   H2845     1.0  0.27006  0.27516  0.41400  1.0000
  C   C1662     1.0  0.23948  0.31823  0.32452  1.0000
  H   H2846     1.0  0.39526  0.29751  0.46837  1.0000
  H   H2847     1.0  0.38030  0.29069  0.45499  1.0000
  C   C1663     1.0  0.33120  0.13120  0.30781  1.0000
  C   C1664     1.0  0.30295  0.28010  0.40780  1.0000
  C   C1665     1.0  0.27974  0.27678  0.38386  1.0000
  H   H2848     1.0  0.26615  0.22874  0.31673  1.0000
  C   C1666     1.0  0.27241  0.08306  0.23744  1.0000
  H   H2849     1.0  0.30336  0.23092  0.45718  1.0000
  H   H2850     1.0  0.36290  0.28043  0.23138  1.0000
  H   H2851     1.0  0.28989  0.14471  0.33391  1.0000
  H   H2852     1.0  0.48075  0.28513  0.23253  1.0000
  C   C1667     1.0  0.30138  0.14382  0.33326  1.0000
  H   H2853     1.0  0.28877  0.10474  0.24543  1.0000
  H   H2854     1.0  0.28654  0.30523  0.39178  1.0000
  H   H2855     1.0  0.30763  0.24702  0.45798  1.0000
  H   H2856     1.0  0.30118  0.29114  0.36590  1.0000
  H   H2857     1.0  0.36488  0.32911  0.45952  1.0000
  H   H2858     1.0  0.33043  0.13327  0.32914  1.0000
  H   H2859     1.0  0.44314  0.36193  0.22926  1.0000
  H   H2860     1.0  0.30807  0.18139  0.30126  1.0000
  C   C1668     1.0  0.30280  0.14935  0.24026  1.0000
  C   C1669     1.0  0.38424  0.29595  0.47368  1.0000
  C   C1670     1.0  0.26887  0.29690  0.41453  1.0000
  H   H2861     1.0  0.30474  0.27042  0.39014  1.0000
  C   C1671     1.0  0.37185  0.31826  0.45928  1.0000
  H   H2862     1.0  0.28884  0.27487  0.37469  1.0000
  N   N119      1.0  0.28330  0.28380  0.39374  1.0000
  C   C1672     1.0  0.33876  0.16426  0.32719  1.0000
  H   H2863     1.0  0.25192  0.30704  0.35776  1.0000
  H   H2864     1.0  0.36107  0.21014  0.24748  1.0000
  C   C1673     1.0  0.47786  0.25568  0.29324  1.0000
  H   H2865     1.0  0.26112  0.41951  0.28606  1.0000
  C   C1674     1.0  0.32071  0.20387  0.46398  1.0000
  H   H2866     1.0  0.25587  0.32062  0.44036  1.0000
  C   C1675     1.0  0.33233  0.13989  0.31800  1.0000
  H   H2867     1.0  0.27830  0.29556  0.41890  1.0000
  H   H2868     1.0  0.44534  0.28193  0.26285  1.0000
  H   H2869     1.0  0.25785  0.41041  0.30442  1.0000
  H   H2870     1.0  0.37054  0.28261  0.47231  1.0000
  H   H2871     1.0  0.25973  0.21207  0.33575  1.0000
  C   C1676     1.0  0.27781  0.10982  0.24359  1.0000
  H   H2872     1.0  0.30674  0.13243  0.33338  1.0000
  H   H2873     1.0  0.25065  0.42000  0.47469  1.0000
  C   C1677     1.0  0.30623  0.16407  0.23196  1.0000
  H   H2874     1.0  0.32941  0.22997  0.45864  1.0000
  H   H2875     1.0  0.24521  0.41294  0.29332  1.0000
  H   H2876     1.0  0.30864  0.16877  0.23971  1.0000
  H   H2877     1.0  0.43873  0.32391  0.23823  1.0000
  H   H2878     1.0  0.43272  0.34600  0.24996  1.0000
  C   C1678     1.0  0.40456  0.31246  0.23184  1.0000
  C   C1679     1.0  0.24431  0.24788  0.36312  1.0000
  H   H2879     1.0  0.31588  0.17086  0.32985  1.0000
  H   H2880     1.0  0.30005  0.30906  0.36682  1.0000
  H   H2881     1.0  0.32450  0.47135  0.23875  1.0000
  H   H2882     1.0  0.31986  0.21583  0.44179  1.0000
  H   H2883     1.0  0.26581  0.26290  0.39952  1.0000
  C   C1680     1.0  0.26981  0.23493  0.32221  1.0000
  H   H2884     1.0  0.27729  0.44054  0.24566  1.0000
  H   H2885     1.0  0.38170  0.33409  0.25350  1.0000
  C   C1681     1.0  0.27547  0.26217  0.39070  1.0000
  H   H2886     1.0  0.32031  0.12932  0.30973  1.0000
  H   H2887     1.0  0.32000  0.30146  0.47061  1.0000
  N   N120      1.0  0.36387  0.25751  0.36602  1.0000
  C   C1682     1.0  0.37109  0.24193  0.37009  1.0000
  C   C1683     1.0  0.36685  0.26571  0.37517  1.0000
  C   C1684     1.0  0.36947  0.26388  0.35044  1.0000
  C   C1685     1.0  0.34805  0.25852  0.36835  1.0000
  C   C1686     1.0  0.37083  0.23226  0.36042  1.0000
  C   C1687     1.0  0.36096  0.26130  0.39150  1.0000
  C   C1688     1.0  0.38583  0.26231  0.34557  1.0000
  C   C1689     1.0  0.33852  0.27378  0.36717  1.0000
  H   H2888     1.0  0.38242  0.24076  0.37041  1.0000
  H   H2889     1.0  0.36599  0.23702  0.38120  1.0000
  H   H2890     1.0  0.36275  0.27746  0.37165  1.0000
  H   H2891     1.0  0.37855  0.26437  0.37383  1.0000
  H   H2892     1.0  0.36614  0.25923  0.34327  1.0000
  H   H2893     1.0  0.36477  0.27557  0.34774  1.0000
  H   H2894     1.0  0.34588  0.25387  0.36040  1.0000
  H   H2895     1.0  0.34387  0.25198  0.37901  1.0000
  H   H2896     1.0  0.37604  0.22103  0.36473  1.0000
  H   H2897     1.0  0.35980  0.23215  0.36029  1.0000
  H   H2898     1.0  0.37684  0.23536  0.34923  1.0000
  H   H2899     1.0  0.36680  0.25048  0.39609  1.0000
  H   H2900     1.0  0.36272  0.26884  0.39693  1.0000
  H   H2901     1.0  0.34934  0.26167  0.39437  1.0000
  H   H2902     1.0  0.38850  0.26684  0.33381  1.0000
  H   H2903     1.0  0.39173  0.25097  0.34727  1.0000
  H   H2904     1.0  0.38983  0.26843  0.35081  1.0000
  H   H2905     1.0  0.33854  0.27883  0.37580  1.0000
  H   H2906     1.0  0.32732  0.27306  0.36844  1.0000
  H   H2907     1.0  0.34151  0.28086  0.35653  1.0000
  H   H2908     1.0  0.34938  0.14763  0.23144  1.0000
  C   C1690     1.0  0.27042  0.28553  0.40602  1.0000
  H   H2909     1.0  0.45563  0.34572  0.23538  1.0000
  C   C1691     1.0  0.24368  0.22941  0.27598  1.0000
  N   N121      1.0  0.47795  0.29318  0.25165  1.0000
  C   C1692     1.0  0.38070  0.28592  0.46641  1.0000
  C   C1693     1.0  0.24716  0.20393  0.35577  1.0000
  H   H2910     1.0  0.38918  0.27592  0.46667  1.0000
  C   C1694     1.0  0.29618  0.27414  0.39910  1.0000
  H   H2911     1.0  0.38266  0.32652  0.43754  1.0000
  C   C1695     1.0  0.42520  0.33962  0.25012  1.0000
  H   H2912     1.0  0.48748  0.21545  0.30649  1.0000
  C   C1696     1.0  0.24332  0.10629  0.27601  1.0000
  S   S486      1.0  0.24380  0.31511  0.38469  1.0000
  H   H2913     1.0  0.33221  0.14625  0.24226  1.0000
  H   H2914     1.0  0.29248  0.08923  0.23006  1.0000
  N   N122      1.0  0.37376  0.31013  0.47415  1.0000
  H   H2915     1.0  0.27648  0.13338  0.23850  1.0000
  H   H2916     1.0  0.28437  0.25376  0.39451  1.0000
  C   C1697     1.0  0.24927  0.21507  0.28177  1.0000
  C   C1698     1.0  0.37886  0.28404  0.24817  1.0000
  H   H2917     1.0  0.26143  0.24844  0.33725  1.0000
  C   C1699     1.0  0.47337  0.30787  0.24259  1.0000
  H   H2918     1.0  0.23793  0.15997  0.23390  1.0000
  C   C1700     1.0  0.30002  0.29799  0.37338  1.0000
  H   H2919     1.0  0.36614  0.31289  0.45492  1.0000
  H   H2920     1.0  0.26217  0.29089  0.30907  1.0000
  H   H2921     1.0  0.35449  0.30250  0.47736  1.0000
  C   C1701     1.0  0.48542  0.31503  0.23245  1.0000
  N   N123      1.0  0.37971  0.21094  0.27209  1.0000
  C   C1702     1.0  0.37428  0.21410  0.28691  1.0000
  C   C1703     1.0  0.38602  0.22327  0.26223  1.0000
  C   C1704     1.0  0.39112  0.19733  0.27208  1.0000
  C   C1705     1.0  0.36746  0.20908  0.26718  1.0000
  C   C1706     1.0  0.36928  0.20183  0.29912  1.0000
  C   C1707     1.0  0.37527  0.23748  0.25841  1.0000
  C   C1708     1.0  0.40418  0.19687  0.27777  1.0000
  C   C1709     1.0  0.37092  0.20633  0.25185  1.0000
  H   H2922     1.0  0.38254  0.21737  0.29012  1.0000
  H   H2923     1.0  0.36506  0.22346  0.28704  1.0000
  H   H2924     1.0  0.39251  0.22041  0.25199  1.0000
  H   H2925     1.0  0.39368  0.22579  0.26697  1.0000
  H   H2926     1.0  0.38663  0.18778  0.27831  1.0000
  H   H2927     1.0  0.39535  0.19542  0.26099  1.0000
  H   H2928     1.0  0.36325  0.19968  0.27433  1.0000
  H   H2929     1.0  0.35805  0.21819  0.26828  1.0000
  H   H2930     1.0  0.36535  0.20569  0.30931  1.0000
  H   H2931     1.0  0.36025  0.19859  0.29738  1.0000
  H   H2932     1.0  0.37813  0.19236  0.30089  1.0000
  C   C1710     1.0  0.42927  0.33288  0.23691  1.0000
  S   S487      1.0  0.24137  0.36232  0.46336  1.0000
  H   H2933     1.0  0.36876  0.24149  0.26810  1.0000
  H   H2934     1.0  0.40125  0.19773  0.28917  1.0000
  H   H2935     1.0  0.41004  0.20533  0.27117  1.0000
  H   H2936     1.0  0.25679  0.33377  0.45797  1.0000
  C   C1711     1.0  0.41467  0.22638  0.22899  1.0000
  C   C1712     1.0  0.25019  0.33888  0.45019  1.0000
  H   H2937     1.0  0.26593  0.32423  0.31839  1.0000
  C   C1713     1.0  0.38922  0.27895  0.23494  1.0000
  H   H2938     1.0  0.32499  0.19213  0.46740  1.0000
  C   C1714     1.0  0.24204  0.35284  0.45022  1.0000
  H   H2939     1.0  0.33201  0.17046  0.22800  1.0000
  C   C1715     1.0  0.25543  0.29616  0.31799  1.0000
  H   H2940     1.0  0.23993  0.28236  0.32253  1.0000
  C   C1716     1.0  0.27025  0.32047  0.30819  1.0000
  C   C1717     1.0  0.23873  0.23944  0.28475  1.0000
  C   C1718     1.0  0.24144  0.33806  0.42965  1.0000
  C   C1719     1.0  0.25042  0.21093  0.29614  1.0000
  S   S488      1.0  0.40547  0.18373  0.22829  1.0000
  H   H2941     1.0  0.27217  0.43343  0.47628  1.0000
  H   H2942     1.0  0.29593  0.17104  0.22958  1.0000
  H   H2943     1.0  0.29526  0.15064  0.25067  1.0000
  H   H2944     1.0  0.45828  0.29688  0.26783  1.0000
  S   S489      1.0  0.34898  0.24090  0.47542  1.0000
  N   N124      1.0  0.27636  0.10918  0.22911  1.0000
  H   H2945     1.0  0.46662  0.31540  0.24953  1.0000
  C   C1720     1.0  0.46467  0.28865  0.26155  1.0000
  H   H2946     1.0  0.24155  0.22168  0.33865  1.0000
  H   H2947     1.0  0.47844  0.31471  0.26608  1.0000
  H   H2948     1.0  0.46654  0.30748  0.23563  1.0000
  Fe  Fe241     1.0  0.25205  0.33071  0.36520  1.0000
  H   H2949     1.0  0.44914  0.29574  0.24743  1.0000
  H   H2950     1.0  0.25645  0.13684  0.22884  1.0000
  H   H2951     1.0  0.27233  0.08156  0.24895  1.0000
  H   H2952     1.0  0.39024  0.32045  0.47416  1.0000
  H   H2953     1.0  0.25963  0.29605  0.42383  1.0000
  H   H2954     1.0  0.25624  0.21101  0.37531  1.0000
  S   S490      1.0  0.24002  0.14048  0.30066  1.0000
  C   C1721     1.0  0.31233  0.32222  0.47622  1.0000
  H   H2955     1.0  0.25369  0.11044  0.23845  1.0000
  H   H2956     1.0  0.29789  0.23735  0.47375  1.0000
  H   H2957     1.0  0.47223  0.30000  0.28001  1.0000
  H   H2958     1.0  0.24816  0.24521  0.33056  1.0000
  H   H2959     1.0  0.24054  0.15466  0.25188  1.0000
  C   C1722     1.0  0.27902  0.42241  0.47680  1.0000
  C   C1723     1.0  0.48138  0.30331  0.27160  1.0000
  H   H2960     1.0  0.24546  0.21732  0.31617  1.0000
  H   H2961     1.0  0.41415  0.34630  0.25127  1.0000
  H   H2962     1.0  0.42033  0.32769  0.23819  1.0000
  H   H2963     1.0  0.25662  0.19739  0.36010  1.0000
  H   H2964     1.0  0.23912  0.29010  0.33742  1.0000
  H   H2965     1.0  0.27824  0.42784  0.45417  1.0000
  H   H2966     1.0  0.48302  0.27151  0.24805  1.0000
  H   H2967     1.0  0.23880  0.22743  0.36825  1.0000
  H   H2968     1.0  0.24425  0.25764  0.35432  1.0000
  H   H2969     1.0  0.24351  0.44920  0.32452  1.0000
  H   H2970     1.0  0.35041  0.21707  0.46152  1.0000
  H   H2971     1.0  0.23835  0.36262  0.33842  1.0000
  H   H2972     1.0  0.26129  0.08611  0.23590  1.0000
  H   H2973     1.0  0.24007  0.17307  0.27669  1.0000
  H   H2974     1.0  0.29745  0.14526  0.23433  1.0000
  C   C1724     1.0  0.40939  0.20018  0.22796  1.0000
  C   C1725     1.0  0.24524  0.15462  0.68053  1.0000
  Fe  Fe242     1.0  0.40916  0.28836  0.56910  1.0000
  S   S491      1.0  0.42870  0.27099  0.57168  1.0000
  S   S492      1.0  0.39909  0.30323  0.58459  1.0000
  Fe  Fe243     1.0  0.40627  0.28040  0.54222  1.0000
  S   S493      1.0  0.42623  0.26293  0.54229  1.0000
  S   S494      1.0  0.38963  0.28583  0.52851  1.0000
  Fe  Fe244     1.0  0.41757  0.25733  0.56602  1.0000
  S   S495      1.0  0.41685  0.23461  0.57756  1.0000
  Fe  Fe245     1.0  0.43593  0.27821  0.54787  1.0000
  S   S496      1.0  0.39717  0.27389  0.56585  1.0000
  S   S497      1.0  0.41677  0.29647  0.54540  1.0000
  H   H2975     1.0  0.23757  0.18977  0.62388  1.0000
  S   S498      1.0  0.27088  0.17759  0.69663  1.0000
  H   H2976     1.0  0.27113  0.41252  0.63031  1.0000
  Fe  Fe246     1.0  0.26049  0.15896  0.70254  1.0000
  S   S499      1.0  0.26129  0.14712  0.68614  1.0000
  C   C1726     1.0  0.25900  0.37095  0.57494  1.0000
  Fe  Fe247     1.0  0.35023  0.23056  0.63512  1.0000
  S   S500      1.0  0.33055  0.24261  0.62678  1.0000
  S   S501      1.0  0.36799  0.24140  0.63278  1.0000
  Fe  Fe248     1.0  0.33886  0.20357  0.64866  1.0000
  S   S502      1.0  0.31812  0.21291  0.64174  1.0000
  S   S503      1.0  0.34525  0.18128  0.66128  1.0000
  Fe  Fe249     1.0  0.33161  0.22216  0.62077  1.0000
  S   S504      1.0  0.32884  0.22218  0.59906  1.0000
  Fe  Fe250     1.0  0.31867  0.23253  0.64828  1.0000
  S   S505      1.0  0.29929  0.24561  0.66013  1.0000
  S   S506      1.0  0.35248  0.21094  0.62713  1.0000
  S   S507      1.0  0.33819  0.22234  0.65722  1.0000
  C   C1727     1.0  0.32304  0.35564  0.70073  1.0000
  Fe  Fe251     1.0  0.25743  0.21472  0.55929  1.0000
  S   S508      1.0  0.26817  0.19807  0.54615  1.0000
  S   S509      1.0  0.24538  0.23661  0.55033  1.0000
  Fe  Fe252     1.0  0.27209  0.19837  0.58382  1.0000
  S   S510      1.0  0.28433  0.18058  0.57267  1.0000
  S   S511      1.0  0.27412  0.19892  0.60561  1.0000
  Fe  Fe253     1.0  0.28777  0.19795  0.55298  1.0000
  S   S512      1.0  0.30927  0.19847  0.53824  1.0000
  Fe  Fe254     1.0  0.26350  0.18224  0.56717  1.0000
  S   S513      1.0  0.25842  0.16111  0.56854  1.0000
  S   S514      1.0  0.27741  0.21570  0.56467  1.0000
  S   S515      1.0  0.25088  0.19896  0.57981  1.0000
  H   H2977     1.0  0.29876  0.38072  0.66854  1.0000
  C   C1728     1.0  0.30096  0.48139  0.57446  1.0000
  C   C1729     1.0  0.47189  0.28436  0.57271  1.0000
  C   C1730     1.0  0.47289  0.32300  0.56887  1.0000
  Fe  Fe255     1.0  0.28398  0.41504  0.56480  1.0000
  S   S516      1.0  0.28893  0.40282  0.54696  1.0000
  Fe  Fe256     1.0  0.29875  0.41811  0.58705  1.0000
  S   S517      1.0  0.31700  0.41152  0.59848  1.0000
  S   S518      1.0  0.28880  0.40108  0.58567  1.0000
  Fe  Fe257     1.0  0.33848  0.28386  0.68537  1.0000
  S   S519      1.0  0.32041  0.29334  0.67399  1.0000
  S   S520      1.0  0.39062  0.28134  0.66563  1.0000
  S   S521      1.0  0.35270  0.29808  0.68441  1.0000
  Fe  Fe258     1.0  0.41831  0.34841  0.64357  1.0000
  S   S522      1.0  0.41531  0.35819  0.62106  1.0000
  S   S523      1.0  0.40030  0.34256  0.66178  1.0000
  Fe  Fe259     1.0  0.44988  0.34975  0.63591  1.0000
  S   S524      1.0  0.44950  0.35966  0.61278  1.0000
  S   S525      1.0  0.46938  0.34306  0.64552  1.0000
  Fe  Fe260     1.0  0.42833  0.37319  0.62141  1.0000
  S   S526      1.0  0.42245  0.39703  0.61264  1.0000
  Fe  Fe261     1.0  0.43655  0.34366  0.61472  1.0000
  S   S527      1.0  0.44304  0.33003  0.59827  1.0000
  S   S528      1.0  0.42976  0.36445  0.64449  1.0000
  S   S529      1.0  0.43850  0.33266  0.63731  1.0000
  S   S530      1.0  0.29615  0.43117  0.56508  1.0000
  S   S531      1.0  0.28263  0.37415  0.70082  1.0000
  Fe  Fe262     1.0  0.34705  0.45836  0.62731  1.0000
  S   S532      1.0  0.33079  0.47449  0.63846  1.0000
  S   S533      1.0  0.34575  0.45768  0.60522  1.0000
  Fe  Fe263     1.0  0.36239  0.44729  0.65174  1.0000
  S   S534      1.0  0.34716  0.46247  0.66523  1.0000
  S   S535      1.0  0.38000  0.42960  0.65947  1.0000
  Fe  Fe264     1.0  0.33029  0.45681  0.65813  1.0000
  S   S536      1.0  0.30844  0.45358  0.67056  1.0000
  C   C1731     1.0  0.24723  0.26526  0.57749  1.0000
  H   H2978     1.0  0.43647  0.32580  0.53956  1.0000
  S   S537      1.0  0.34528  0.44026  0.64653  1.0000
  S   S538      1.0  0.36557  0.46416  0.63136  1.0000
  S   S539      1.0  0.26251  0.42691  0.57508  1.0000
  C   C1732     1.0  0.31454  0.27015  0.53242  1.0000
  H   H2979     1.0  0.45379  0.22031  0.60505  1.0000
  C   C1733     1.0  0.38112  0.31273  0.49616  1.0000
  H   H2980     1.0  0.25878  0.26369  0.57241  1.0000
  C   C1734     1.0  0.30783  0.40851  0.69829  1.0000
  C   C1735     1.0  0.29531  0.41755  0.69455  1.0000
  C   C1736     1.0  0.29557  0.43142  0.68612  1.0000
  C   C1737     1.0  0.30843  0.43613  0.68099  1.0000
  C   C1738     1.0  0.32105  0.42692  0.68431  1.0000
  C   C1739     1.0  0.32072  0.41317  0.69309  1.0000
  H   H2981     1.0  0.28537  0.41400  0.69837  1.0000
  H   H2982     1.0  0.28580  0.43852  0.68354  1.0000
  H   H2983     1.0  0.33101  0.43052  0.68041  1.0000
  H   H2984     1.0  0.33043  0.40623  0.69597  1.0000
  C   C1740     1.0  0.41008  0.40611  0.62536  1.0000
  C   C1741     1.0  0.40318  0.39847  0.63828  1.0000
  C   C1742     1.0  0.39379  0.40576  0.64865  1.0000
  C   C1743     1.0  0.39093  0.42076  0.64596  1.0000
  C   C1744     1.0  0.39743  0.42848  0.63281  1.0000
  C   C1745     1.0  0.40713  0.42114  0.62258  1.0000
  H   H2985     1.0  0.40508  0.38691  0.64036  1.0000
  H   H2986     1.0  0.38873  0.39978  0.65879  1.0000
  H   H2987     1.0  0.39532  0.44007  0.63074  1.0000
  H   H2988     1.0  0.41243  0.42711  0.61258  1.0000
  S   S540      1.0  0.30740  0.39174  0.71016  1.0000
  H   H2989     1.0  0.30195  0.31886  0.70197  1.0000
  C   C1746     1.0  0.39403  0.29801  0.66464  1.0000
  C   C1747     1.0  0.40205  0.30503  0.65201  1.0000
  C   C1748     1.0  0.40409  0.31872  0.65106  1.0000
  C   C1749     1.0  0.39829  0.32528  0.66282  1.0000
  C   C1750     1.0  0.39061  0.31807  0.67552  1.0000
  C   C1751     1.0  0.38833  0.30454  0.67639  1.0000
  H   H2990     1.0  0.40652  0.30000  0.64290  1.0000
  H   H2991     1.0  0.41004  0.32423  0.64119  1.0000
  H   H2992     1.0  0.38667  0.32279  0.68481  1.0000
  H   H2993     1.0  0.38242  0.29903  0.68629  1.0000
  C   C1752     1.0  0.32319  0.42537  0.60097  1.0000
  C   C1753     1.0  0.32798  0.42339  0.61353  1.0000
  C   C1754     1.0  0.33406  0.43376  0.61531  1.0000
  C   C1755     1.0  0.33598  0.44583  0.60427  1.0000
  C   C1756     1.0  0.33102  0.44789  0.59179  1.0000
  C   C1757     1.0  0.32438  0.43781  0.59025  1.0000
  H   H2994     1.0  0.32707  0.41377  0.62184  1.0000
  H   H2995     1.0  0.33781  0.43206  0.62496  1.0000
  H   H2996     1.0  0.46700  0.28568  0.58358  1.0000
  H   H2997     1.0  0.32074  0.43938  0.58050  1.0000
  C   C1758     1.0  0.25059  0.35311  0.68673  1.0000
  C   C1759     1.0  0.28231  0.38424  0.53510  1.0000
  C   C1760     1.0  0.27688  0.39591  0.54191  1.0000
  C   C1761     1.0  0.26235  0.40244  0.54340  1.0000
  H   H2998     1.0  0.24673  0.37673  0.63507  1.0000
  H   H2999     1.0  0.29355  0.37916  0.53382  1.0000
  H   H3000     1.0  0.25806  0.41153  0.54848  1.0000
  C   C1762     1.0  0.47607  0.22116  0.57514  1.0000
  H   H3001     1.0  0.24145  0.27042  0.56863  1.0000
  Fe  Fe265     1.0  0.25103  0.18785  0.71060  1.0000
  H   H3002     1.0  0.26831  0.25321  0.54781  1.0000
  C   C1763     1.0  0.46910  0.24393  0.58407  1.0000
  H   H3003     1.0  0.28020  0.31079  0.70169  1.0000
  C   C1764     1.0  0.36080  0.22544  0.67944  1.0000
  H   H3004     1.0  0.28758  0.24919  0.72024  1.0000
  H   H3005     1.0  0.24941  0.22135  0.61204  1.0000
  H   H3006     1.0  0.31166  0.18679  0.49053  1.0000
  C   C1765     1.0  0.32703  0.31445  0.72095  1.0000
  H   H3007     1.0  0.24994  0.22241  0.59387  1.0000
  S   S541      1.0  0.30429  0.34837  0.48397  1.0000
  H   H3008     1.0  0.25852  0.13167  0.58041  1.0000
  C   C1766     1.0  0.36324  0.35483  0.68403  1.0000
  N   N125      1.0  0.28788  0.46081  0.62639  1.0000
  H   H3009     1.0  0.33746  0.31901  0.48830  1.0000
  C   C1767     1.0  0.30828  0.24063  0.50493  1.0000
  C   C1768     1.0  0.29549  0.23641  0.51251  1.0000
  C   C1769     1.0  0.29571  0.22364  0.52308  1.0000
  C   C1770     1.0  0.30875  0.21492  0.52582  1.0000
  C   C1771     1.0  0.32151  0.21926  0.51837  1.0000
  C   C1772     1.0  0.32126  0.23222  0.50810  1.0000
  H   H3010     1.0  0.28541  0.24290  0.51012  1.0000
  H   H3011     1.0  0.28581  0.22036  0.52884  1.0000
  H   H3012     1.0  0.33159  0.21261  0.52063  1.0000
  C   C1773     1.0  0.30472  0.25875  0.66465  1.0000
  C   C1774     1.0  0.31575  0.25486  0.67205  1.0000
  C   C1775     1.0  0.32032  0.26544  0.67535  1.0000
  C   C1776     1.0  0.31412  0.27994  0.67090  1.0000
  C   C1777     1.0  0.30296  0.28382  0.66365  1.0000
  C   C1778     1.0  0.29819  0.27321  0.66063  1.0000
  H   H3013     1.0  0.32071  0.24368  0.67530  1.0000
  H   H3014     1.0  0.32874  0.26237  0.68118  1.0000
  H   H3015     1.0  0.29812  0.29503  0.66024  1.0000
  H   H3016     1.0  0.28967  0.27622  0.65488  1.0000
  C   C1779     1.0  0.31352  0.21595  0.60072  1.0000
  C   C1780     1.0  0.30238  0.21674  0.61287  1.0000
  C   C1781     1.0  0.29050  0.21106  0.61454  1.0000
  C   C1782     1.0  0.28951  0.20501  0.60382  1.0000
  C   C1783     1.0  0.30040  0.20462  0.59143  1.0000
  C   C1784     1.0  0.31244  0.21004  0.58990  1.0000
  H   H3017     1.0  0.30271  0.22210  0.62078  1.0000
  H   H3018     1.0  0.28187  0.21185  0.62390  1.0000
  H   H3019     1.0  0.29967  0.20001  0.58305  1.0000
  H   H3020     1.0  0.32097  0.20951  0.58041  1.0000
  H   H3021     1.0  0.44216  0.24159  0.57967  1.0000
  C   C1785     1.0  0.25085  0.35261  0.60473  1.0000
  C   C1786     1.0  0.23830  0.36843  0.66833  1.0000
  H   H3022     1.0  0.25331  0.42720  0.49517  1.0000
  H   H3023     1.0  0.38450  0.32058  0.49988  1.0000
  H   H3024     1.0  0.28713  0.43319  0.64796  1.0000
  H   H3025     1.0  0.31833  0.19162  0.50347  1.0000
  H   H3026     1.0  0.24238  0.40309  0.53847  1.0000
  C   C1787     1.0  0.35947  0.30734  0.48308  1.0000
  C   C1788     1.0  0.24793  0.37894  0.68190  1.0000
  C   C1789     1.0  0.31302  0.16865  0.70257  1.0000
  C   C1790     1.0  0.32742  0.16165  0.70093  1.0000
  C   C1791     1.0  0.33722  0.16555  0.68817  1.0000
  C   C1792     1.0  0.33277  0.17682  0.67719  1.0000
  C   C1793     1.0  0.31842  0.18410  0.67891  1.0000
  C   C1794     1.0  0.30849  0.17982  0.69149  1.0000
  C   C1795     1.0  0.26650  0.46185  0.61578  1.0000
  H   H3027     1.0  0.34831  0.15992  0.68688  1.0000
  H   H3028     1.0  0.31494  0.19287  0.67048  1.0000
  H   H3029     1.0  0.29744  0.18542  0.69276  1.0000
  C   C1796     1.0  0.41102  0.30972  0.59010  1.0000
  C   C1797     1.0  0.40605  0.32194  0.59605  1.0000
  C   C1798     1.0  0.41567  0.32788  0.59941  1.0000
  C   C1799     1.0  0.43027  0.32151  0.59697  1.0000
  C   C1800     1.0  0.43503  0.30880  0.59192  1.0000
  C   C1801     1.0  0.42551  0.30303  0.58831  1.0000
  H   H3030     1.0  0.39484  0.32710  0.59758  1.0000
  H   H3031     1.0  0.41187  0.33767  0.60337  1.0000
  H   H3032     1.0  0.44623  0.30364  0.59037  1.0000
  H   H3033     1.0  0.42941  0.29349  0.58402  1.0000
  C   C1802     1.0  0.38638  0.27468  0.51904  1.0000
  Fe  Fe266     1.0  0.32974  0.25891  0.47826  1.0000
  N   N126      1.0  0.24411  0.36824  0.58102  1.0000
  S   S542      1.0  0.25174  0.31188  0.52187  1.0000
  H   H3034     1.0  0.26458  0.17905  0.63241  1.0000
  S   S543      1.0  0.24037  0.35298  0.50509  1.0000
  H   H3035     1.0  0.27263  0.29158  0.53672  1.0000
  C   C1803     1.0  0.38239  0.23850  0.61824  1.0000
  C   C1804     1.0  0.38588  0.22603  0.61292  1.0000
  C   C1805     1.0  0.39694  0.22447  0.60072  1.0000
  C   C1806     1.0  0.40427  0.23552  0.59372  1.0000
  C   C1807     1.0  0.40102  0.24777  0.59929  1.0000
  C   C1808     1.0  0.39026  0.24914  0.61162  1.0000
  H   H3036     1.0  0.38010  0.21760  0.61816  1.0000
  H   H3037     1.0  0.39950  0.21494  0.59646  1.0000
  H   H3038     1.0  0.40673  0.25627  0.59405  1.0000
  H   H3039     1.0  0.38782  0.25866  0.61573  1.0000
  H   H3040     1.0  0.28552  0.47296  0.65411  1.0000
  H   H3041     1.0  0.30163  0.39840  0.47965  1.0000
  C   C1809     1.0  0.44701  0.32247  0.55781  1.0000
  C   C1810     1.0  0.23948  0.16934  0.67914  1.0000
  H   H3042     1.0  0.46156  0.34960  0.53257  1.0000
  H   H3043     1.0  0.35051  0.20687  0.68487  1.0000
  C   C1811     1.0  0.33585  0.20552  0.47940  1.0000
  H   H3044     1.0  0.47332  0.36979  0.62465  1.0000
  H   H3045     1.0  0.43963  0.32838  0.56600  1.0000
  C   C1812     1.0  0.45286  0.34376  0.53853  1.0000
  N   N127      1.0  0.25065  0.15952  0.62715  1.0000
  C   C1813     1.0  0.25187  0.14413  0.62676  1.0000
  C   C1814     1.0  0.25968  0.16608  0.61325  1.0000
  H   H3046     1.0  0.47558  0.32777  0.57638  1.0000
  C   C1815     1.0  0.25590  0.15943  0.64001  1.0000
  H   H3047     1.0  0.26207  0.37976  0.59188  1.0000
  C   C1816     1.0  0.27576  0.15902  0.61052  1.0000
  H   H3048     1.0  0.46264  0.29041  0.62726  1.0000
  C   C1817     1.0  0.25699  0.17403  0.64158  1.0000
  H   H3049     1.0  0.29938  0.21385  0.48440  1.0000
  H   H3050     1.0  0.26298  0.13778  0.62663  1.0000
  H   H3051     1.0  0.25893  0.17756  0.61253  1.0000
  H   H3052     1.0  0.25564  0.16587  0.60392  1.0000
  N   N128      1.0  0.27380  0.41245  0.49071  1.0000
  H   H3053     1.0  0.25407  0.40957  0.50605  1.0000
  H   H3054     1.0  0.24874  0.15514  0.65002  1.0000
  H   H3055     1.0  0.26647  0.15196  0.64033  1.0000
  H   H3056     1.0  0.28746  0.47519  0.60548  1.0000
  C   C1818     1.0  0.37314  0.27810  0.51508  1.0000
  H   H3057     1.0  0.31333  0.21019  0.72610  1.0000
  H   H3058     1.0  0.28147  0.16582  0.60109  1.0000
  H   H3059     1.0  0.28063  0.15827  0.61950  1.0000
  H   H3060     1.0  0.27786  0.14837  0.60792  1.0000
  C   C1819     1.0  0.46488  0.24378  0.56116  1.0000
  H   H3061     1.0  0.29447  0.27164  0.70800  1.0000
  H   H3062     1.0  0.47565  0.24558  0.55508  1.0000
  Fe  Fe267     1.0  0.25279  0.35524  0.48207  1.0000
  H   H3063     1.0  0.26104  0.17240  0.65139  1.0000
  H   H3064     1.0  0.24638  0.18142  0.64310  1.0000
  C   C1820     1.0  0.31263  0.21086  0.71500  1.0000
  H   H3065     1.0  0.33675  0.19395  0.48463  1.0000
  H   H3066     1.0  0.31754  0.18735  0.71737  1.0000
  C   C1821     1.0  0.29270  0.44104  0.64880  1.0000
  H   H3067     1.0  0.47184  0.20375  0.59397  1.0000
  H   H3068     1.0  0.28785  0.30218  0.50181  1.0000
  N   N129      1.0  0.36716  0.24596  0.56419  1.0000
  C   C1822     1.0  0.36203  0.23282  0.56485  1.0000
  C   C1823     1.0  0.37087  0.24432  0.57840  1.0000
  C   C1824     1.0  0.38022  0.24761  0.55231  1.0000
  C   C1825     1.0  0.35548  0.25902  0.56120  1.0000
  C   C1826     1.0  0.35905  0.23170  0.55078  1.0000
  C   C1827     1.0  0.35805  0.24655  0.59113  1.0000
  C   C1828     1.0  0.39287  0.23452  0.55270  1.0000
  C   C1829     1.0  0.35863  0.27353  0.56079  1.0000
  H   H3069     1.0  0.36975  0.22281  0.56846  1.0000
  H   H3070     1.0  0.35192  0.23218  0.57312  1.0000
  H   H3071     1.0  0.37785  0.25163  0.57760  1.0000
  H   H3072     1.0  0.37739  0.23340  0.58174  1.0000
  H   H3073     1.0  0.37756  0.25034  0.54156  1.0000
  H   H3074     1.0  0.38436  0.25687  0.55248  1.0000
  H   H3075     1.0  0.35322  0.26025  0.55051  1.0000
  H   H3076     1.0  0.34509  0.25784  0.56881  1.0000
  H   H3077     1.0  0.35000  0.24026  0.54750  1.0000
  H   H3078     1.0  0.36859  0.23171  0.54181  1.0000
  H   H3079     1.0  0.35589  0.22134  0.55263  1.0000
  H   H3080     1.0  0.35079  0.23928  0.59294  1.0000
  H   H3081     1.0  0.36203  0.24409  0.60112  1.0000
  H   H3082     1.0  0.35195  0.25783  0.58976  1.0000
  H   H3083     1.0  0.39034  0.22515  0.55075  1.0000
  H   H3084     1.0  0.39644  0.23147  0.56296  1.0000
  H   H3085     1.0  0.40208  0.23733  0.54400  1.0000
  H   H3086     1.0  0.36335  0.27864  0.54964  1.0000
  H   H3087     1.0  0.36596  0.27262  0.56770  1.0000
  H   H3088     1.0  0.34855  0.28084  0.56484  1.0000
  H   H3089     1.0  0.44936  0.34126  0.53003  1.0000
  C   C1830     1.0  0.28940  0.30306  0.52743  1.0000
  H   H3090     1.0  0.30567  0.23970  0.71622  1.0000
  C   C1831     1.0  0.43772  0.31856  0.55000  1.0000
  H   H3091     1.0  0.27378  0.41425  0.64705  1.0000
  H   H3092     1.0  0.25247  0.34628  0.57848  1.0000
  C   C1832     1.0  0.30597  0.27399  0.52062  1.0000
  H   H3093     1.0  0.31304  0.25987  0.54004  1.0000
  H   H3094     1.0  0.26928  0.23018  0.60203  1.0000
  C   C1833     1.0  0.31012  0.19486  0.49690  1.0000
  C   C1834     1.0  0.30673  0.32012  0.70995  1.0000
  H   H3095     1.0  0.36092  0.29933  0.49319  1.0000
  C   C1835     1.0  0.24484  0.22824  0.60275  1.0000
  H   H3096     1.0  0.26099  0.37431  0.56303  1.0000
  H   H3097     1.0  0.37105  0.31064  0.50370  1.0000
  S   S544      1.0  0.26898  0.33465  0.48617  1.0000
  H   H3098     1.0  0.46658  0.22727  0.54933  1.0000
  N   N130      1.0  0.28885  0.38555  0.64210  1.0000
  C   C1836     1.0  0.29222  0.38815  0.62589  1.0000
  C   C1837     1.0  0.27325  0.39221  0.64690  1.0000
  C   C1838     1.0  0.29175  0.36946  0.64796  1.0000
  C   C1839     1.0  0.29840  0.39238  0.64626  1.0000
  C   C1840     1.0  0.30722  0.38045  0.61885  1.0000
  C   C1841     1.0  0.26883  0.40869  0.64212  1.0000
  C   C1842     1.0  0.28265  0.36369  0.66271  1.0000
  H   H3099     1.0  0.37538  0.33640  0.70615  1.0000
  H   H3100     1.0  0.28434  0.38472  0.62224  1.0000
  H   H3101     1.0  0.29138  0.39976  0.62083  1.0000
  H   H3102     1.0  0.26975  0.38992  0.65876  1.0000
  H   H3103     1.0  0.26646  0.38740  0.64317  1.0000
  H   H3104     1.0  0.28980  0.36384  0.64062  1.0000
  H   H3105     1.0  0.30320  0.36516  0.64851  1.0000
  H   H3106     1.0  0.30982  0.38721  0.64289  1.0000
  H   H3107     1.0  0.29743  0.40384  0.64047  1.0000
  H   H3108     1.0  0.30817  0.38297  0.60703  1.0000
  H   H3109     1.0  0.31587  0.38431  0.62061  1.0000
  H   H3110     1.0  0.30909  0.36861  0.62237  1.0000
  H   H3111     1.0  0.24600  0.25069  0.63070  1.0000
  H   H3112     1.0  0.44432  0.23891  0.60386  1.0000
  H   H3113     1.0  0.26602  0.26279  0.53030  1.0000
  H   H3114     1.0  0.28726  0.35214  0.66653  1.0000
  H   H3115     1.0  0.27168  0.36440  0.66164  1.0000
  H   H3116     1.0  0.28201  0.36929  0.67111  1.0000
  H   H3117     1.0  0.25583  0.39331  0.57712  1.0000
  C   C1843     1.0  0.48144  0.36652  0.63090  1.0000
  N   N131      1.0  0.44104  0.40250  0.65346  1.0000
  C   C1844     1.0  0.44415  0.39401  0.64207  1.0000
  C   C1845     1.0  0.43530  0.39340  0.66776  1.0000
  C   C1846     1.0  0.45434  0.40630  0.65432  1.0000
  C   C1847     1.0  0.43035  0.41621  0.64960  1.0000
  C   C1848     1.0  0.45234  0.40038  0.62703  1.0000
  C   C1849     1.0  0.41987  0.39166  0.67012  1.0000
  H   H3118     1.0  0.45024  0.38286  0.64546  1.0000
  H   H3119     1.0  0.43401  0.39277  0.64047  1.0000
  H   H3120     1.0  0.43582  0.39752  0.67689  1.0000
  H   H3121     1.0  0.44211  0.38234  0.66926  1.0000
  H   H3122     1.0  0.45840  0.41376  0.64426  1.0000
  H   H3123     1.0  0.43485  0.42291  0.63919  1.0000
  H   H3124     1.0  0.42085  0.41408  0.64748  1.0000
  H   H3125     1.0  0.46329  0.40088  0.62706  1.0000
  H   H3126     1.0  0.45353  0.39323  0.61973  1.0000
  H   H3127     1.0  0.44645  0.41106  0.62223  1.0000
  H   H3128     1.0  0.41194  0.40191  0.67093  1.0000
  H   H3129     1.0  0.41854  0.38734  0.66156  1.0000
  H   H3130     1.0  0.41726  0.38390  0.68044  1.0000
  N   N132      1.0  0.46523  0.23501  0.57624  1.0000
  C   C1850     1.0  0.23932  0.30201  0.49262  1.0000
  S   S545      1.0  0.25246  0.36983  0.72426  1.0000
  H   H3131     1.0  0.29392  0.19361  0.71478  1.0000
  H   H3132     1.0  0.31242  0.47763  0.57295  1.0000
  C   C1851     1.0  0.38097  0.21031  0.66545  1.0000
  C   C1852     1.0  0.26857  0.28191  0.72655  1.0000
  C   C1853     1.0  0.29876  0.44972  0.63391  1.0000
  C   C1854     1.0  0.28450  0.28873  0.53422  1.0000
  H   H3133     1.0  0.45797  0.25466  0.56150  1.0000
  H   H3134     1.0  0.46829  0.30308  0.64075  1.0000
  C   C1855     1.0  0.46880  0.31805  0.52698  1.0000
  H   H3135     1.0  0.29937  0.47610  0.63822  1.0000
  S   S546      1.0  0.30792  0.25614  0.49117  1.0000
  H   H3136     1.0  0.26922  0.23852  0.58402  1.0000
  H   H3137     1.0  0.47935  0.30908  0.65389  1.0000
  H   H3138     1.0  0.37595  0.21331  0.70062  1.0000
  C   C1856     1.0  0.48433  0.28096  0.54469  1.0000
  S   S547      1.0  0.24770  0.38131  0.52257  1.0000
  C   C1857     1.0  0.27766  0.45294  0.62474  1.0000
  H   H3139     1.0  0.29098  0.41339  0.49975  1.0000
  H   H3140     1.0  0.36521  0.32829  0.72281  1.0000
  H   H3141     1.0  0.27138  0.44839  0.63539  1.0000
  H   H3142     1.0  0.38934  0.23639  0.65133  1.0000
  S   S548      1.0  0.26684  0.46612  0.57478  1.0000
  H   H3143     1.0  0.38961  0.30278  0.49710  1.0000
  H   H3144     1.0  0.46856  0.32783  0.51821  1.0000
  H   H3145     1.0  0.32611  0.26867  0.52727  1.0000
  H   H3146     1.0  0.28118  0.31112  0.52213  1.0000
  C   C1858     1.0  0.44608  0.22907  0.59981  1.0000
  H   H3147     1.0  0.27412  0.38993  0.50006  1.0000
  N   N133      1.0  0.30275  0.16316  0.65396  1.0000
  C   C1859     1.0  0.30434  0.14930  0.66522  1.0000
  C   C1860     1.0  0.29759  0.16043  0.64225  1.0000
  C   C1861     1.0  0.29145  0.17419  0.66108  1.0000
  C   C1862     1.0  0.31694  0.16764  0.64861  1.0000
  C   C1863     1.0  0.30835  0.14991  0.67893  1.0000
  C   C1864     1.0  0.30734  0.14817  0.63505  1.0000
  C   C1865     1.0  0.28703  0.18902  0.65146  1.0000
  C   C1866     1.0  0.31966  0.17740  0.63337  1.0000
  H   H3148     1.0  0.29426  0.14523  0.66874  1.0000
  H   H3149     1.0  0.31280  0.14072  0.66077  1.0000
  H   H3150     1.0  0.29602  0.17010  0.63351  1.0000
  H   H3151     1.0  0.28683  0.15782  0.64661  1.0000
  H   H3152     1.0  0.28152  0.17002  0.66639  1.0000
  H   H3153     1.0  0.29503  0.17641  0.66974  1.0000
  H   H3154     1.0  0.31855  0.17315  0.65618  1.0000
  H   H3155     1.0  0.32586  0.15797  0.64836  1.0000
  H   H3156     1.0  0.31091  0.13884  0.68547  1.0000
  H   H3157     1.0  0.31792  0.15448  0.67647  1.0000
  H   H3158     1.0  0.29929  0.15591  0.68588  1.0000
  H   H3159     1.0  0.30583  0.13753  0.64192  1.0000
  H   H3160     1.0  0.30447  0.14906  0.62475  1.0000
  H   H3161     1.0  0.31879  0.14849  0.63256  1.0000
  H   H3162     1.0  0.28290  0.18849  0.64241  1.0000
  H   H3163     1.0  0.29586  0.19482  0.64758  1.0000
  H   H3164     1.0  0.27819  0.19565  0.65803  1.0000
  H   H3165     1.0  0.32675  0.18439  0.63311  1.0000
  H   H3166     1.0  0.31008  0.18462  0.62983  1.0000
  H   H3167     1.0  0.32582  0.17095  0.62525  1.0000
  H   H3168     1.0  0.37162  0.19963  0.69572  1.0000
  H   H3169     1.0  0.43653  0.36350  0.53672  1.0000
  H   H3170     1.0  0.45182  0.31216  0.56433  1.0000
  H   H3171     1.0  0.46400  0.38663  0.66839  1.0000
  Fe  Fe268     1.0  0.34992  0.28889  0.70805  1.0000
  H   H3172     1.0  0.27926  0.43063  0.51383  1.0000
  H   H3173     1.0  0.30967  0.21704  0.49465  1.0000
  C   C1867     1.0  0.29694  0.21867  0.69798  1.0000
  H   H3174     1.0  0.43565  0.22575  0.60323  1.0000
  C   C1868     1.0  0.25768  0.41566  0.49493  1.0000
  H   H3175     1.0  0.33111  0.23562  0.50265  1.0000
  C   C1869     1.0  0.28202  0.22483  0.69444  1.0000
  H   H3176     1.0  0.35228  0.34694  0.66422  1.0000
  H   H3177     1.0  0.33619  0.21091  0.48774  1.0000
  H   H3178     1.0  0.31191  0.27884  0.53832  1.0000
  H   H3179     1.0  0.30373  0.22653  0.69184  1.0000
  H   H3180     1.0  0.30173  0.20919  0.69304  1.0000
  C   C1870     1.0  0.24059  0.36526  0.59719  1.0000
  H   H3181     1.0  0.27671  0.40673  0.51255  1.0000
  H   H3182     1.0  0.47819  0.30989  0.52309  1.0000
  H   H3183     1.0  0.43088  0.34953  0.55121  1.0000
  H   H3184     1.0  0.47249  0.21459  0.56994  1.0000
  S   S549      1.0  0.34141  0.27332  0.48213  1.0000
  H   H3185     1.0  0.27703  0.23535  0.69739  1.0000
  H   H3186     1.0  0.28314  0.22668  0.68266  1.0000
  H   H3187     1.0  0.27475  0.21731  0.69947  1.0000
  C   C1871     1.0  0.34830  0.32056  0.48744  1.0000
  H   H3188     1.0  0.48315  0.31763  0.56278  1.0000
  C   C1872     1.0  0.30652  0.47568  0.61052  1.0000
  S   S550      1.0  0.26586  0.36869  0.48558  1.0000
  Fe  Fe269     1.0  0.28106  0.34778  0.49146  1.0000
  C   C1873     1.0  0.29591  0.39187  0.66240  1.0000
  H   H3189     1.0  0.36032  0.27318  0.50343  1.0000
  H   H3190     1.0  0.27056  0.26947  0.70529  1.0000
  H   H3191     1.0  0.38227  0.23406  0.68414  1.0000
  C   C1874     1.0  0.29528  0.46734  0.61150  1.0000
  H   H3192     1.0  0.25514  0.23460  0.62449  1.0000
  C   C1875     1.0  0.27735  0.27643  0.69727  1.0000
  H   H3193     1.0  0.26630  0.30373  0.70047  1.0000
  C   C1876     1.0  0.24939  0.13774  0.58669  1.0000
  H   H3194     1.0  0.29949  0.28733  0.49407  1.0000
  H   H3195     1.0  0.27075  0.28547  0.69092  1.0000
  H   H3196     1.0  0.30350  0.31913  0.48465  1.0000
  H   H3197     1.0  0.30055  0.45889  0.60515  1.0000
  C   C1877     1.0  0.26261  0.38253  0.58015  1.0000
  H   H3198     1.0  0.40700  0.26024  0.51775  1.0000
  C   C1878     1.0  0.44015  0.35450  0.54537  1.0000
  H   H3199     1.0  0.47139  0.34268  0.55285  1.0000
  H   H3200     1.0  0.28480  0.39693  0.66702  1.0000
  C   C1879     1.0  0.38400  0.24062  0.66117  1.0000
  H   H3201     1.0  0.40233  0.24647  0.50273  1.0000
  H   H3202     1.0  0.27119  0.28519  0.51639  1.0000
  H   H3203     1.0  0.27418  0.48181  0.62743  1.0000
  C   C1880     1.0  0.46675  0.39344  0.65750  1.0000
  H   H3204     1.0  0.39765  0.19175  0.68333  1.0000
  S   S551      1.0  0.27113  0.34400  0.51504  1.0000
  H   H3205     1.0  0.29162  0.25408  0.53055  1.0000
  H   H3206     1.0  0.28945  0.26105  0.54578  1.0000
  H   H3207     1.0  0.31824  0.21953  0.70832  1.0000
  H   H3208     1.0  0.42669  0.31919  0.55673  1.0000
  H   H3209     1.0  0.24199  0.29710  0.70430  1.0000
  H   H3210     1.0  0.26314  0.27238  0.54430  1.0000
  H   H3211     1.0  0.43172  0.43432  0.65743  1.0000
  H   H3212     1.0  0.45935  0.24522  0.54107  1.0000
  C   C1881     1.0  0.34537  0.34050  0.67283  1.0000
  H   H3213     1.0  0.27783  0.37048  0.52415  1.0000
  S   S552      1.0  0.25728  0.40011  0.61586  1.0000
  C   C1882     1.0  0.36658  0.36652  0.68928  1.0000
  C   C1883     1.0  0.45945  0.23750  0.55161  1.0000
  H   H3214     1.0  0.25918  0.36366  0.69739  1.0000
  H   H3215     1.0  0.48058  0.32520  0.53754  1.0000
  H   H3216     1.0  0.28387  0.27102  0.50929  1.0000
  H   H3217     1.0  0.46136  0.25450  0.58375  1.0000
  H   H3218     1.0  0.26185  0.43081  0.51240  1.0000
  H   H3219     1.0  0.27149  0.46403  0.60417  1.0000
  H   H3220     1.0  0.28682  0.30056  0.72749  1.0000
  H   H3221     1.0  0.24421  0.28538  0.69285  1.0000
  H   H3222     1.0  0.30172  0.43472  0.65399  1.0000
  C   C1884     1.0  0.46428  0.33509  0.55895  1.0000
  C   C1885     1.0  0.29001  0.20223  0.72088  1.0000
  C   C1886     1.0  0.27342  0.37933  0.52956  1.0000
  C   C1887     1.0  0.37049  0.27034  0.50651  1.0000
  S   S553      1.0  0.27841  0.42979  0.59883  1.0000
  H   H3223     1.0  0.35254  0.20636  0.72752  1.0000
  H   H3224     1.0  0.35080  0.35191  0.71378  1.0000
  H   H3225     1.0  0.31486  0.46945  0.61655  1.0000
  H   H3226     1.0  0.25445  0.34254  0.69273  1.0000
  H   H3227     1.0  0.46820  0.23900  0.59567  1.0000
  N   N134      1.0  0.35060  0.34860  0.69311  1.0000
  H   H3228     1.0  0.36494  0.28693  0.51852  1.0000
  C   C1888     1.0  0.28848  0.29173  0.49960  1.0000
  H   H3229     1.0  0.26722  0.36092  0.57713  1.0000
  C   C1889     1.0  0.37459  0.19733  0.66702  1.0000
  H   H3230     1.0  0.24745  0.25709  0.70282  1.0000
  N   N135      1.0  0.37782  0.41134  0.60316  1.0000
  C   C1890     1.0  0.37194  0.41580  0.61742  1.0000
  C   C1891     1.0  0.38783  0.42094  0.59400  1.0000
  C   C1892     1.0  0.38592  0.39589  0.60596  1.0000
  C   C1893     1.0  0.36533  0.41299  0.59665  1.0000
  C   C1894     1.0  0.36363  0.40567  0.62959  1.0000
  C   C1895     1.0  0.38121  0.43719  0.59103  1.0000
  C   C1896     1.0  0.39748  0.39070  0.59338  1.0000
  C   C1897     1.0  0.36859  0.41001  0.58153  1.0000
  H   H3231     1.0  0.38070  0.41692  0.62163  1.0000
  H   H3232     1.0  0.36459  0.42657  0.61620  1.0000
  H   H3233     1.0  0.39286  0.41823  0.58337  1.0000
  H   H3234     1.0  0.39698  0.41924  0.59909  1.0000
  H   H3235     1.0  0.39171  0.39379  0.61472  1.0000
  H   H3236     1.0  0.37841  0.38847  0.60985  1.0000
  H   H3237     1.0  0.35824  0.40569  0.60357  1.0000
  H   H3238     1.0  0.35823  0.42380  0.59640  1.0000
  H   H3239     1.0  0.35974  0.41039  0.63926  1.0000
  H   H3240     1.0  0.35412  0.40442  0.62680  1.0000
  H   H3241     1.0  0.37053  0.39499  0.63283  1.0000
  H   H3242     1.0  0.37198  0.43990  0.58589  1.0000
  H   H3243     1.0  0.37802  0.44147  0.60093  1.0000
  H   H3244     1.0  0.38937  0.44297  0.58349  1.0000
  H   H3245     1.0  0.40686  0.39562  0.59090  1.0000
  H   H3246     1.0  0.39351  0.39265  0.58354  1.0000
  H   H3247     1.0  0.40147  0.37893  0.59663  1.0000
  H   H3248     1.0  0.36979  0.39842  0.58211  1.0000
  H   H3249     1.0  0.37800  0.41381  0.57418  1.0000
  H   H3250     1.0  0.35952  0.41614  0.57631  1.0000
  N   N136      1.0  0.36510  0.29207  0.63347  1.0000
  C   C1898     1.0  0.36884  0.30288  0.63914  1.0000
  C   C1899     1.0  0.37543  0.27801  0.63716  1.0000
  C   C1900     1.0  0.35011  0.29056  0.64135  1.0000
  C   C1901     1.0  0.36608  0.29749  0.61750  1.0000
  C   C1902     1.0  0.35879  0.31788  0.63791  1.0000
  C   C1903     1.0  0.39134  0.27790  0.63007  1.0000
  C   C1904     1.0  0.34415  0.27937  0.63807  1.0000
  C   C1905     1.0  0.36762  0.28632  0.60862  1.0000
  H   H3251     1.0  0.36918  0.29876  0.65072  1.0000
  H   H3252     1.0  0.37971  0.30474  0.63350  1.0000
  H   H3253     1.0  0.37287  0.26909  0.63448  1.0000
  H   H3254     1.0  0.37452  0.27464  0.64900  1.0000
  H   H3255     1.0  0.34929  0.28791  0.65319  1.0000
  H   H3256     1.0  0.34228  0.30085  0.63902  1.0000
  H   H3257     1.0  0.35658  0.30614  0.61540  1.0000
  H   H3258     1.0  0.37544  0.30263  0.61253  1.0000
  H   H3259     1.0  0.35726  0.32275  0.62680  1.0000
  H   H3260     1.0  0.34833  0.31761  0.64556  1.0000
  H   H3261     1.0  0.36369  0.32510  0.64091  1.0000
  H   H3262     1.0  0.39766  0.26673  0.63240  1.0000
  H   H3263     1.0  0.39323  0.28171  0.61824  1.0000
  H   H3264     1.0  0.39575  0.28433  0.63458  1.0000
  H   H3265     1.0  0.33326  0.27933  0.64485  1.0000
  H   H3266     1.0  0.35043  0.26829  0.64082  1.0000
  H   H3267     1.0  0.34283  0.28220  0.62684  1.0000
  H   H3268     1.0  0.36019  0.29073  0.60117  1.0000
  H   H3269     1.0  0.36537  0.27582  0.61487  1.0000
  H   H3270     1.0  0.37850  0.28449  0.60164  1.0000
  C   C1906     1.0  0.24973  0.41247  0.48533  1.0000
  H   H3271     1.0  0.25839  0.32488  0.71189  1.0000
  H   H3272     1.0  0.39408  0.19042  0.70224  1.0000
  H   H3273     1.0  0.26994  0.25136  0.60873  1.0000
  H   H3274     1.0  0.41382  0.43162  0.66048  1.0000
  S   S554      1.0  0.24966  0.39411  0.68654  1.0000
  H   H3275     1.0  0.47924  0.21682  0.59745  1.0000
  H   H3276     1.0  0.31221  0.47836  0.59912  1.0000
  H   H3277     1.0  0.45224  0.28346  0.56834  1.0000
  H   H3278     1.0  0.24414  0.27284  0.58472  1.0000
  C   C1907     1.0  0.24645  0.24646  0.70896  1.0000
  H   H3279     1.0  0.28707  0.28476  0.54506  1.0000
  C   C1908     1.0  0.30993  0.21014  0.48747  1.0000
  Fe  Fe270     1.0  0.37055  0.27889  0.68233  1.0000
  C   C1909     1.0  0.27317  0.42967  0.50643  1.0000
  S   S555      1.0  0.34435  0.30472  0.72209  1.0000
  H   H3280     1.0  0.33244  0.45723  0.58321  1.0000
  H   H3281     1.0  0.47015  0.38671  0.64945  1.0000
  C   C1910     1.0  0.38514  0.22869  0.67491  1.0000
  H   H3282     1.0  0.24939  0.14364  0.61667  1.0000
  C   C1911     1.0  0.24839  0.24215  0.72308  1.0000
  Fe  Fe271     1.0  0.28629  0.38533  0.71564  1.0000
  H   H3283     1.0  0.45934  0.31359  0.52871  1.0000
  H   H3284     1.0  0.39670  0.22363  0.67370  1.0000
  S   S556      1.0  0.35664  0.26546  0.68079  1.0000
  C   C1912     1.0  0.24679  0.15275  0.58333  1.0000
  H   H3285     1.0  0.33755  0.36894  0.69751  1.0000
  Fe  Fe272     1.0  0.26012  0.38647  0.70535  1.0000
  C   C1913     1.0  0.46963  0.28133  0.55002  1.0000
  H   H3286     1.0  0.29859  0.38050  0.48557  1.0000
  H   H3287     1.0  0.37631  0.36980  0.68186  1.0000
  H   H3288     1.0  0.30299  0.39795  0.66395  1.0000
  H   H3289     1.0  0.32665  0.30631  0.70312  1.0000
  C   C1914     1.0  0.27204  0.30445  0.70825  1.0000
  C   C1915     1.0  0.47075  0.32078  0.54081  1.0000
  C   C1916     1.0  0.46351  0.28296  0.56412  1.0000
  H   H3290     1.0  0.37267  0.33002  0.47992  1.0000
  H   H3291     1.0  0.37279  0.19063  0.67801  1.0000
  Fe  Fe273     1.0  0.27500  0.44203  0.57699  1.0000
  C   C1917     1.0  0.32077  0.31300  0.71061  1.0000
  C   C1918     1.0  0.36571  0.33187  0.71106  1.0000
  C   C1919     1.0  0.39411  0.25527  0.50621  1.0000
  N   N137      1.0  0.24848  0.24286  0.59851  1.0000
  H   H3292     1.0  0.47651  0.32762  0.60389  1.0000
  C   C1920     1.0  0.34940  0.21679  0.68843  1.0000
  H   H3293     1.0  0.33097  0.15308  0.70951  1.0000
  H   H3294     1.0  0.24721  0.35172  0.61654  1.0000
  N   N138      1.0  0.27921  0.28982  0.71560  1.0000
  H   H3295     1.0  0.33867  0.22356  0.68741  1.0000
  H   H3296     1.0  0.36130  0.48043  0.60161  1.0000
  S   S557      1.0  0.28076  0.33562  0.72001  1.0000
  S   S558      1.0  0.33429  0.27588  0.70922  1.0000
  H   H3297     1.0  0.46670  0.31490  0.57563  1.0000
  H   H3298     1.0  0.28167  0.29391  0.49175  1.0000
  H   H3299     1.0  0.29888  0.38961  0.49858  1.0000
  C   C1921     1.0  0.27124  0.25175  0.59717  1.0000
  H   H3300     1.0  0.27380  0.38342  0.57480  1.0000
  H   H3301     1.0  0.29974  0.30228  0.51962  1.0000
  Fe  Fe274     1.0  0.27842  0.16748  0.71712  1.0000
  H   H3302     1.0  0.46841  0.30203  0.61007  1.0000
  H   H3303     1.0  0.46789  0.31906  0.62778  1.0000
  H   H3304     1.0  0.35816  0.23031  0.66869  1.0000
  C   C1922     1.0  0.38108  0.25906  0.50176  1.0000
  C   C1923     1.0  0.29886  0.32868  0.71967  1.0000
  S   S559      1.0  0.26953  0.14791  0.72199  1.0000
  H   H3305     1.0  0.28440  0.26976  0.68966  1.0000
  C   C1924     1.0  0.24271  0.35475  0.67655  1.0000
  Fe  Fe275     1.0  0.25729  0.33303  0.50928  1.0000
  H   H3306     1.0  0.29360  0.28788  0.69505  1.0000
  C   C1925     1.0  0.29482  0.24087  0.71457  1.0000
  H   H3307     1.0  0.37547  0.47565  0.57703  1.0000
  C   C1926     1.0  0.25350  0.39766  0.53767  1.0000
  H   H3308     1.0  0.47348  0.31008  0.54794  1.0000
  H   H3309     1.0  0.27844  0.20559  0.72077  1.0000
  C   C1927     1.0  0.42517  0.42610  0.66044  1.0000
  H   H3310     1.0  0.27781  0.22933  0.72129  1.0000
  H   H3311     1.0  0.34319  0.32932  0.69507  1.0000
  C   C1928     1.0  0.28684  0.28145  0.70401  1.0000
  H   H3312     1.0  0.32037  0.35659  0.71212  1.0000
  Fe  Fe276     1.0  0.35377  0.25859  0.70480  1.0000
  H   H3313     1.0  0.40181  0.20471  0.69052  1.0000
  C   C1929     1.0  0.45046  0.23218  0.58326  1.0000
  C   C1930     1.0  0.24094  0.38053  0.67096  1.0000
  H   H3314     1.0  0.42537  0.42031  0.67166  1.0000
  N   N139      1.0  0.29727  0.21463  0.71372  1.0000
  C   C1931     1.0  0.34201  0.22850  0.72716  1.0000
  Fe  Fe277     1.0  0.26814  0.41373  0.59594  1.0000
  C   C1932     1.0  0.27946  0.47228  0.63465  1.0000
  S   S560      1.0  0.30112  0.16374  0.71883  1.0000
  H   H3315     1.0  0.36443  0.20083  0.66324  1.0000
  H   H3316     1.0  0.44880  0.22310  0.57982  1.0000
  H   H3317     1.0  0.24015  0.37489  0.60098  1.0000
  H   H3318     1.0  0.37313  0.34629  0.68288  1.0000
  H   H3319     1.0  0.29969  0.29468  0.71307  1.0000
  H   H3320     1.0  0.26072  0.47207  0.61910  1.0000
  C   C1933     1.0  0.37874  0.20734  0.69189  1.0000
  S   S561      1.0  0.36919  0.27078  0.70599  1.0000
  H   H3321     1.0  0.48454  0.27941  0.61613  1.0000
  H   H3322     1.0  0.30954  0.26491  0.51506  1.0000
  C   C1934     1.0  0.25901  0.38620  0.53057  1.0000
  H   H3323     1.0  0.26491  0.31417  0.72719  1.0000
  H   H3324     1.0  0.29466  0.24492  0.70302  1.0000
  C   C1935     1.0  0.29557  0.39120  0.48835  1.0000
  H   H3325     1.0  0.37283  0.24615  0.66061  1.0000
  H   H3326     1.0  0.45191  0.41234  0.66293  1.0000
  H   H3327     1.0  0.35869  0.23466  0.68457  1.0000
  C   C1936     1.0  0.28596  0.26348  0.53548  1.0000
  N   N140      1.0  0.37631  0.21761  0.67793  1.0000
  C   C1937     1.0  0.27927  0.39681  0.49014  1.0000
  C   C1938     1.0  0.29064  0.29155  0.72187  1.0000
  H   H3328     1.0  0.36083  0.32896  0.68551  1.0000
  C   C1939     1.0  0.26463  0.24030  0.59514  1.0000
  H   H3329     1.0  0.24237  0.24015  0.69162  1.0000
  H   H3330     1.0  0.31432  0.36265  0.69545  1.0000
  S   S562      1.0  0.35613  0.23484  0.71399  1.0000
  H   H3331     1.0  0.33268  0.19518  0.71236  1.0000
  H   H3332     1.0  0.36687  0.32212  0.70712  1.0000
  H   H3333     1.0  0.35789  0.37631  0.68906  1.0000
  C   C1940     1.0  0.28943  0.22684  0.72105  1.0000
  C   C1941     1.0  0.28287  0.28088  0.51309  1.0000
  C   C1942     1.0  0.24506  0.21852  0.72442  1.0000
  H   H3334     1.0  0.30697  0.45437  0.63540  1.0000
  H   H3335     1.0  0.36179  0.35968  0.67286  1.0000
  H   H3336     1.0  0.24412  0.26156  0.60761  1.0000
  C   C1943     1.0  0.39677  0.26303  0.51478  1.0000
  H   H3337     1.0  0.25923  0.28294  0.72200  1.0000
  H   H3338     1.0  0.26192  0.35430  0.60174  1.0000
  Fe  Fe278     1.0  0.27534  0.35855  0.72071  1.0000
  C   C1944     1.0  0.46376  0.30152  0.62165  1.0000
  C   C1945     1.0  0.32176  0.19685  0.71064  1.0000
  C   C1946     1.0  0.48430  0.24688  0.57850  1.0000
  S   S563      1.0  0.37858  0.24948  0.49025  1.0000
  H   H3339     1.0  0.33403  0.34628  0.67394  1.0000
  H   H3340     1.0  0.25329  0.36098  0.55318  1.0000
  H   H3341     1.0  0.32303  0.34459  0.70053  1.0000
  H   H3342     1.0  0.29759  0.46163  0.57215  1.0000
  H   H3343     1.0  0.34950  0.21418  0.70004  1.0000
  C   C1947     1.0  0.47201  0.30727  0.62905  1.0000
  Fe  Fe279     1.0  0.25524  0.36428  0.50902  1.0000
  H   H3344     1.0  0.45287  0.30842  0.62202  1.0000
  H   H3345     1.0  0.30984  0.28298  0.51238  1.0000
  H   H3346     1.0  0.25706  0.41199  0.64588  1.0000
  S   S564      1.0  0.45915  0.28011  0.53879  1.0000
  C   C1948     1.0  0.28772  0.47775  0.64239  1.0000
  C   C1949     1.0  0.24319  0.22280  0.71028  1.0000
  N   N141      1.0  0.28992  0.27715  0.52570  1.0000
  H   H3347     1.0  0.33643  0.36590  0.68139  1.0000
  C   C1950     1.0  0.26091  0.31370  0.71808  1.0000
  N   N142      1.0  0.45849  0.33041  0.54884  1.0000
  C   C1951     1.0  0.35014  0.33630  0.68722  1.0000
  C   C1952     1.0  0.24297  0.25083  0.58512  1.0000
  C   C1953     1.0  0.26990  0.26319  0.53961  1.0000
  H   H3348     1.0  0.34288  0.33773  0.71492  1.0000
  H   H3349     1.0  0.38224  0.18999  0.66033  1.0000
  H   H3350     1.0  0.38960  0.24890  0.66106  1.0000
  H   H3351     1.0  0.30487  0.44184  0.62714  1.0000
  H   H3352     1.0  0.37814  0.21802  0.65560  1.0000
  H   H3353     1.0  0.25843  0.45554  0.61711  1.0000
  H   H3354     1.0  0.27063  0.46828  0.64317  1.0000
  H   H3355     1.0  0.29082  0.30739  0.53599  1.0000
  C   C1954     1.0  0.33724  0.36025  0.69262  1.0000
  H   H3356     1.0  0.34626  0.33056  0.66930  1.0000
  C   C1955     1.0  0.35187  0.34299  0.70856  1.0000
  H   H3357     1.0  0.24659  0.24405  0.57698  1.0000
  C   C1956     1.0  0.39402  0.19816  0.69172  1.0000
  H   H3358     1.0  0.28294  0.24930  0.59260  1.0000
  H   H3359     1.0  0.44316  0.35928  0.55265  1.0000
  H   H3360     1.0  0.45548  0.34103  0.56625  1.0000
  H   H3361     1.0  0.26686  0.26281  0.59182  1.0000
  H   H3362     1.0  0.39282  0.20703  0.66232  1.0000
  C   C1957     1.0  0.25313  0.36516  0.68946  1.0000
  S   S565      1.0  0.26415  0.39933  0.71867  1.0000
  H   H3363     1.0  0.48636  0.22307  0.56772  1.0000
  H   H3364     1.0  0.38504  0.28967  0.48471  1.0000
  C   C1958     1.0  0.27776  0.47713  0.57559  1.0000
  C   C1959     1.0  0.29257  0.47229  0.57400  1.0000
  H   H3365     1.0  0.25075  0.30994  0.72194  1.0000
  C   C1960     1.0  0.24147  0.25085  0.61039  1.0000
  H   H3366     1.0  0.44196  0.30738  0.54850  1.0000
  C   C1961     1.0  0.47936  0.21111  0.58932  1.0000
  H   H3367     1.0  0.32285  0.19737  0.69911  1.0000
  C   C1962     1.0  0.24502  0.24282  0.62516  1.0000
  H   H3368     1.0  0.34833  0.32135  0.49836  1.0000
  H   H3369     1.0  0.28548  0.44806  0.65598  1.0000
  H   H3370     1.0  0.29969  0.19481  0.50473  1.0000
  H   H3371     1.0  0.44833  0.23603  0.55620  1.0000
  H   H3372     1.0  0.47619  0.39749  0.65716  1.0000
  C   C1963     1.0  0.24164  0.39439  0.61765  1.0000
  H   H3373     1.0  0.36899  0.36256  0.70013  1.0000
  S   S566      1.0  0.24052  0.21065  0.70197  1.0000
  Fe  Fe280     1.0  0.34908  0.47895  0.64436  1.0000
  C   C1964     1.0  0.48174  0.35402  0.64177  1.0000
  H   H3374     1.0  0.27427  0.43862  0.49689  1.0000
  H   H3375     1.0  0.24494  0.17608  0.68161  1.0000
  C   C1965     1.0  0.27914  0.41485  0.50251  1.0000
  H   H3376     1.0  0.28366  0.44361  0.61975  1.0000
  C   C1966     1.0  0.24367  0.23686  0.70262  1.0000
  C   C1967     1.0  0.37945  0.31898  0.48049  1.0000
  H   H3377     1.0  0.24556  0.13382  0.64970  1.0000
  H   H3378     1.0  0.30157  0.43120  0.71672  1.0000
  H   H3379     1.0  0.25302  0.40117  0.48420  1.0000
  H   H3380     1.0  0.25987  0.29542  0.47868  1.0000
  H   H3381     1.0  0.48600  0.25324  0.56732  1.0000
  C   C1968     1.0  0.25131  0.30528  0.47932  1.0000
  H   H3382     1.0  0.30142  0.26851  0.72763  1.0000
  H   H3383     1.0  0.24251  0.13451  0.67871  1.0000
  H   H3384     1.0  0.25078  0.34226  0.60261  1.0000
  S   S567      1.0  0.23978  0.17003  0.71466  1.0000
  H   H3385     1.0  0.25632  0.31353  0.48029  1.0000
  C   C1969     1.0  0.48650  0.28421  0.56736  1.0000
  H   H3386     1.0  0.24429  0.29977  0.50200  1.0000
  C   C1970     1.0  0.23922  0.31333  0.53810  1.0000
  H   H3387     1.0  0.28417  0.41553  0.72483  1.0000
  C   C1971     1.0  0.23900  0.38239  0.62851  1.0000
  H   H3388     1.0  0.27636  0.39424  0.48134  1.0000
  C   C1972     1.0  0.30072  0.42399  0.72759  1.0000
  H   H3389     1.0  0.24259  0.11890  0.60070  1.0000
  H   H3390     1.0  0.24337  0.12499  0.63730  1.0000
  C   C1973     1.0  0.24230  0.13569  0.63941  1.0000
  C   C1974     1.0  0.24348  0.35766  0.56022  1.0000
  H   H3391     1.0  0.30918  0.41417  0.72642  1.0000
  H   H3392     1.0  0.34929  0.33086  0.47970  1.0000
  H   H3393     1.0  0.48588  0.25336  0.58520  1.0000
  H   H3394     1.0  0.24333  0.34736  0.55798  1.0000
  C   C1975     1.0  0.24031  0.13051  0.59813  1.0000
  C   C1976     1.0  0.24331  0.35535  0.57630  1.0000
  H   H3395     1.0  0.23886  0.33559  0.53596  1.0000
  H   H3396     1.0  0.48729  0.28321  0.64017  1.0000
  H   H3397     1.0  0.23816  0.41419  0.49047  1.0000
  C   C1977     1.0  0.23815  0.14593  0.67743  1.0000
  H   H3398     1.0  0.23789  0.17480  0.87877  1.0000
  H   H3399     1.0  0.28486  0.33330  0.76110  1.0000
  H   H3400     1.0  0.24858  0.31555  0.76112  1.0000
  Fe  Fe281     1.0  0.25865  0.38122  0.73730  1.0000
  H   H3401     1.0  0.26803  0.29337  0.74341  1.0000
  H   H3402     1.0  0.28236  0.35190  0.77277  1.0000
  H   H3403     1.0  0.28976  0.27568  0.74265  1.0000
  H   H3404     1.0  0.28667  0.29721  0.75536  1.0000
  Fe  Fe282     1.0  0.25950  0.24468  0.75138  1.0000
  S   S568      1.0  0.26334  0.22157  0.76291  1.0000
  C   C1978     1.0  0.24337  0.27893  0.81020  1.0000
  Fe  Fe283     1.0  0.27028  0.25374  0.77262  1.0000
  S   S569      1.0  0.27485  0.23149  0.78609  1.0000
  S   S570      1.0  0.27643  0.27184  0.77697  1.0000
  Fe  Fe284     1.0  0.28400  0.22517  0.76477  1.0000
  S   S571      1.0  0.30509  0.21006  0.75912  1.0000
  Fe  Fe285     1.0  0.25385  0.23023  0.78292  1.0000
  C   C1979     1.0  0.26756  0.13771  0.91931  1.0000
  S   S572      1.0  0.28081  0.24748  0.75166  1.0000
  S   S573      1.0  0.24847  0.25319  0.77118  1.0000
  N   N143      1.0  0.28231  0.41173  0.74773  1.0000
  C   C1980     1.0  0.24397  0.13590  0.82659  1.0000
  H   H3405     1.0  0.26504  0.30345  0.77187  1.0000
  H   H3406     1.0  0.24656  0.30606  0.78893  1.0000
  C   C1981     1.0  0.26617  0.27585  0.79333  1.0000
  C   C1982     1.0  0.24833  0.32696  0.75600  1.0000
  H   H3407     1.0  0.24487  0.42002  0.75150  1.0000
  H   H3408     1.0  0.25967  0.15891  0.90789  1.0000
  C   C1983     1.0  0.27175  0.28177  0.80125  1.0000
  H   H3409     1.0  0.24776  0.26940  0.79202  1.0000
  H   H3410     1.0  0.29012  0.22376  0.73256  1.0000
  H   H3411     1.0  0.28417  0.32544  0.77963  1.0000
  C   C1984     1.0  0.33191  0.20817  0.74203  1.0000
  H   H3412     1.0  0.28172  0.41128  0.76979  1.0000
  H   H3413     1.0  0.24801  0.10556  0.74193  1.0000
  H   H3414     1.0  0.28276  0.28284  0.79780  1.0000
  C   C1985     1.0  0.27860  0.14701  0.86986  1.0000
  H   H3415     1.0  0.26008  0.13617  0.80731  1.0000
  H   H3416     1.0  0.24483  0.17373  0.89385  1.0000
  C   C1986     1.0  0.24996  0.14358  0.81114  1.0000
  N   N144      1.0  0.26570  0.32517  0.77222  1.0000
  H   H3417     1.0  0.26197  0.31914  0.79543  1.0000
  C   C1987     1.0  0.23870  0.13493  0.79662  1.0000
  H   H3418     1.0  0.25113  0.34405  0.76351  1.0000
  H   H3419     1.0  0.25077  0.33566  0.78867  1.0000
  H   H3420     1.0  0.27118  0.12178  0.89966  1.0000
  H   H3421     1.0  0.30954  0.23957  0.74802  1.0000
  C   C1988     1.0  0.31951  0.21746  0.74761  1.0000
  C   C1989     1.0  0.25800  0.33399  0.76046  1.0000
  H   H3422     1.0  0.27625  0.44056  0.74908  1.0000
  H   H3423     1.0  0.24686  0.14830  0.91489  1.0000
  C   C1990     1.0  0.25582  0.32466  0.78686  1.0000
  H   H3424     1.0  0.26575  0.33774  0.75051  1.0000
  S   S574      1.0  0.28118  0.36829  0.73537  1.0000
  H   H3425     1.0  0.26531  0.12680  0.92271  1.0000
  H   H3426     1.0  0.30289  0.42964  0.73466  1.0000
  H   H3427     1.0  0.26729  0.29135  0.81948  1.0000
  C   C1991     1.0  0.24112  0.11218  0.74926  1.0000
  H   H3428     1.0  0.27822  0.31455  0.74672  1.0000
  H   H3429     1.0  0.24018  0.26107  0.85355  1.0000
  C   C1992     1.0  0.27747  0.33222  0.77184  1.0000
  H   H3430     1.0  0.24030  0.12434  0.89889  1.0000
  C   C1993     1.0  0.24732  0.23587  0.82427  1.0000
  C   C1994     1.0  0.25519  0.18755  0.82404  1.0000
  C   C1995     1.0  0.25274  0.19991  0.81318  1.0000
  H   H3431     1.0  0.30097  0.19443  0.73926  1.0000
  H   H3432     1.0  0.24392  0.25509  0.83123  1.0000
  H   H3433     1.0  0.29668  0.41671  0.75774  1.0000
  H   H3434     1.0  0.26167  0.20371  0.80544  1.0000
  C   C1996     1.0  0.28326  0.30870  0.75592  1.0000
  C   C1997     1.0  0.24275  0.12618  0.74749  1.0000
  H   H3435     1.0  0.24967  0.15002  0.87719  1.0000
  H   H3436     1.0  0.26641  0.40117  0.74677  1.0000
  H   H3437     1.0  0.28386  0.14051  0.89056  1.0000
  C   C1998     1.0  0.27738  0.43339  0.75961  1.0000
  H   H3438     1.0  0.27857  0.38304  0.76374  1.0000
  S   S575      1.0  0.24623  0.38277  0.75975  1.0000
  H   H3439     1.0  0.26670  0.43382  0.76702  1.0000
  H   H3440     1.0  0.27888  0.30432  0.77894  1.0000
  H   H3441     1.0  0.28922  0.14969  0.86472  1.0000
  H   H3442     1.0  0.26352  0.40598  0.76338  1.0000
  C   C1999     1.0  0.24875  0.28541  0.81778  1.0000
  H   H3443     1.0  0.25980  0.14081  0.77392  1.0000
  H   H3444     1.0  0.30651  0.28048  0.73475  1.0000
  C   C2000     1.0  0.34307  0.21366  0.73183  1.0000
  N   N145      1.0  0.26079  0.14444  0.89456  1.0000
  H   H3445     1.0  0.27092  0.15486  0.86374  1.0000
  H   H3446     1.0  0.33275  0.19669  0.74540  1.0000
  H   H3447     1.0  0.27942  0.13608  0.86854  1.0000
  H   H3448     1.0  0.28389  0.43812  0.76374  1.0000
  C   C2001     1.0  0.28504  0.41777  0.75883  1.0000
  C   C2002     1.0  0.25210  0.27405  0.79804  1.0000
  H   H3449     1.0  0.27004  0.14448  0.78453  1.0000
  S   S576      1.0  0.25182  0.25438  0.73076  1.0000
  H   H3450     1.0  0.24027  0.16197  0.77936  1.0000
  H   H3451     1.0  0.26569  0.35491  0.76798  1.0000
  H   H3452     1.0  0.32905  0.24928  0.72974  1.0000
  Fe  Fe286     1.0  0.24975  0.16064  0.73380  1.0000
  H   H3453     1.0  0.24275  0.12811  0.91457  1.0000
  H   H3454     1.0  0.27809  0.43135  0.73135  1.0000
  S   S577      1.0  0.24671  0.16713  0.84756  1.0000
  C   C2003     1.0  0.27489  0.14789  0.88582  1.0000
  H   H3455     1.0  0.29089  0.38802  0.77099  1.0000
  H   H3456     1.0  0.26750  0.34726  0.78643  1.0000
  H   H3457     1.0  0.23758  0.31706  0.80144  1.0000
  C   C2004     1.0  0.29054  0.19550  0.73680  1.0000
  H   H3458     1.0  0.26279  0.12657  0.88519  1.0000
  H   H3459     1.0  0.28206  0.20170  0.74403  1.0000
  H   H3460     1.0  0.25657  0.17308  0.87631  1.0000
  C   C2005     1.0  0.27280  0.31007  0.77040  1.0000
  C   C2006     1.0  0.26149  0.12878  0.89592  1.0000
  H   H3461     1.0  0.28904  0.18432  0.73945  1.0000
  H   H3462     1.0  0.25092  0.13022  0.73889  1.0000
  C   C2007     1.0  0.27274  0.34742  0.77497  1.0000
  H   H3463     1.0  0.25136  0.32789  0.74420  1.0000
  H   H3464     1.0  0.30350  0.39768  0.74586  1.0000
  C   C2008     1.0  0.24365  0.18266  0.83415  1.0000
  H   H3465     1.0  0.24886  0.22486  0.74177  1.0000
  C   C2009     1.0  0.26306  0.28647  0.81354  1.0000
  C   C2010     1.0  0.25551  0.42279  0.74669  1.0000
  C   C2011     1.0  0.24710  0.16960  0.88399  1.0000
  C   C2012     1.0  0.24823  0.12299  0.90536  1.0000
  H   H3466     1.0  0.24897  0.12682  0.79548  1.0000
  H   H3467     1.0  0.26310  0.27663  0.75011  1.0000
  C   C2013     1.0  0.26242  0.28633  0.74127  1.0000
  H   H3468     1.0  0.26587  0.15709  0.76873  1.0000
  H   H3469     1.0  0.29717  0.37521  0.75992  1.0000
  C   C2014     1.0  0.24871  0.15317  0.88738  1.0000
  H   H3470     1.0  0.25155  0.11140  0.91016  1.0000
  H   H3471     1.0  0.27551  0.15883  0.88610  1.0000
  C   C2015     1.0  0.24765  0.15700  0.78689  1.0000
  H   H3472     1.0  0.26601  0.18176  0.82459  1.0000
  C   C2016     1.0  0.28934  0.38536  0.76148  1.0000
  H   H3473     1.0  0.24700  0.12405  0.82783  1.0000
  C   C2017     1.0  0.25813  0.14793  0.90907  1.0000
  H   H3474     1.0  0.29315  0.31228  0.75485  1.0000
  H   H3475     1.0  0.25667  0.42527  0.73486  1.0000
  C   C2018     1.0  0.26162  0.14918  0.77823  1.0000
  H   H3476     1.0  0.27910  0.13712  0.91457  1.0000
  H   H3477     1.0  0.26502  0.14188  0.92924  1.0000
  C   C2019     1.0  0.28562  0.42078  0.73273  1.0000
  H   H3478     1.0  0.32427  0.32494  0.73812  1.0000
  C   C2020     1.0  0.26710  0.40976  0.75156  1.0000
  H   H3479     1.0  0.25916  0.23423  0.82154  1.0000
  C   C2021     1.0  0.32980  0.23784  0.73297  1.0000
  C   C2022     1.0  0.31863  0.23232  0.74326  1.0000
  H   H3480     1.0  0.29153  0.39287  0.73867  1.0000
  C   C2023     1.0  0.24323  0.31734  0.79005  1.0000
  C   C2024     1.0  0.29214  0.39710  0.74770  1.0000
  H   H3481     1.0  0.25530  0.43247  0.75019  1.0000
  C   C2025     1.0  0.24762  0.22820  0.73082  1.0000
  H   H3482     1.0  0.24758  0.23943  0.84459  1.0000
  H   H3483     1.0  0.29924  0.33774  0.73687  1.0000
  C   C2026     1.0  0.31939  0.32367  0.73021  1.0000
  C   C2027     1.0  0.30528  0.33091  0.72949  1.0000
  C   C2028     1.0  0.29728  0.27819  0.73223  1.0000
  H   H3484     1.0  0.25042  0.16608  0.78925  1.0000
  H   H3485     1.0  0.24474  0.22516  0.82750  1.0000
  H   H3486     1.0  0.25366  0.15290  0.81186  1.0000
  H   H3487     1.0  0.23832  0.15086  0.89415  1.0000
  H   H3488     1.0  0.24364  0.24194  0.81425  1.0000
  H   H3489     1.0  0.25091  0.29160  0.74242  1.0000
  C   C2029     1.0  0.24114  0.24444  0.83621  1.0000
  H   H3490     1.0  0.24842  0.13876  0.83426  1.0000
  H   H3491     1.0  0.27332  0.27023  0.72883  1.0000
  S   S578      1.0  0.25953  0.17940  0.73079  1.0000
  H   H3492     1.0  0.24425  0.20783  0.73053  1.0000
  N   N146      1.0  0.24047  0.14792  0.80048  1.0000
  C   C2030     1.0  0.23876  0.20738  0.81251  1.0000
  S   S579      1.0  0.25077  0.85358  0.98825  1.0000
  Fe  Fe287     1.0  0.29645  0.85381  0.13402  1.0000
  S   S580      1.0  0.31108  0.86359  0.13996  1.0000
  S   S581      1.0  0.27420  0.85318  0.14618  1.0000
  Fe  Fe288     1.0  0.31675  0.84786  0.10652  1.0000
  S   S582      1.0  0.33315  0.85749  0.10954  1.0000
  S   S583      1.0  0.32039  0.83822  0.08762  1.0000
  Fe  Fe289     1.0  0.32808  0.84535  0.13244  1.0000
  S   S584      1.0  0.34707  0.83236  0.14165  1.0000
  Fe  Fe290     1.0  0.31473  0.87474  0.11667  1.0000
  S   S585      1.0  0.31332  0.89845  0.10864  1.0000
  S   S586      1.0  0.31295  0.83442  0.12879  1.0000
  S   S587      1.0  0.29881  0.86624  0.11138  1.0000
  H   H3493     1.0  0.24053  0.77092  0.08304  1.0000
  H   H3494     1.0  0.26518  0.75244  0.08875  1.0000
  S   S588      1.0  0.25401  0.94676  0.06376  1.0000
  C   C2031     1.0  0.35516  0.49446  0.14204  1.0000
  S   S589      1.0  0.36995  0.78048  0.20373  1.0000
  C   C2032     1.0  0.41877  0.76196  0.22463  1.0000
  H   H3495     1.0  0.26418  0.88927  0.00813  1.0000
  H   H3496     1.0  0.24351  0.86987  0.02749  1.0000
  H   H3497     1.0  0.30094  0.87302  0.04377  1.0000
  S   S590      1.0  0.34132  0.81684  0.20896  1.0000
  H   H3498     1.0  0.29200  0.77809  0.13678  1.0000
  H   H3499     1.0  0.24689  0.88796  0.08760  1.0000
  Fe  Fe291     1.0  0.26400  0.82177  0.07065  1.0000
  S   S591      1.0  0.28142  0.81047  0.05536  1.0000
  S   S592      1.0  0.26257  0.84473  0.07015  1.0000
  H   H3500     1.0  0.35310  0.50616  0.14138  1.0000
  S   S593      1.0  0.26967  0.78119  0.07281  1.0000
  H   H3501     1.0  0.30917  0.53509  0.22007  1.0000
  Fe  Fe292     1.0  0.28485  0.79307  0.07475  1.0000
  S   S594      1.0  0.30752  0.78317  0.07656  1.0000
  Fe  Fe293     1.0  0.26472  0.79979  0.05474  1.0000
  S   S595      1.0  0.26404  0.79607  0.03380  1.0000
  S   S596      1.0  0.26889  0.80530  0.09027  1.0000
  H   H3502     1.0  0.26323  0.88098  0.03051  1.0000
  H   H3503     1.0  0.28375  0.87053  0.05423  1.0000
  H   H3504     1.0  0.30956  0.51846  0.20568  1.0000
  C   C2033     1.0  0.30372  0.66833  0.14807  1.0000
  S   S597      1.0  0.40396  0.65101  0.21708  1.0000
  C   C2034     1.0  0.24570  0.73341  0.15201  1.0000
  H   H3505     1.0  0.26728  0.86568  0.04376  1.0000
  H   H3506     1.0  0.24172  0.89179  0.16060  1.0000
  S   S598      1.0  0.38091  0.69050  0.20587  1.0000
  C   C2035     1.0  0.38112  0.72791  0.18656  1.0000
  C   C2036     1.0  0.26259  0.82523  0.99651  1.0000
  Fe  Fe294     1.0  0.32342  0.70855  0.16686  1.0000
  S   S599      1.0  0.31526  0.72891  0.17490  1.0000
  S   S600      1.0  0.32971  0.68731  0.18181  1.0000
  Fe  Fe295     1.0  0.32011  0.72367  0.13677  1.0000
  S   S601      1.0  0.31227  0.74535  0.14199  1.0000
  S   S602      1.0  0.32159  0.72102  0.11475  1.0000
  Fe  Fe296     1.0  0.32933  0.73839  0.15459  1.0000
  S   S603      1.0  0.34085  0.75513  0.15410  1.0000
  Fe  Fe297     1.0  0.29895  0.73427  0.16171  1.0000
  S   S604      1.0  0.27688  0.74707  0.16843  1.0000
  S   S605      1.0  0.33877  0.71760  0.14731  1.0000
  S   S606      1.0  0.30554  0.71290  0.15559  1.0000
  Fe  Fe298     1.0  0.32019  0.59175  0.18472  1.0000
  S   S607      1.0  0.34349  0.58100  0.18013  1.0000
  S   S608      1.0  0.30703  0.60191  0.16790  1.0000
  Fe  Fe299     1.0  0.33726  0.56363  0.19930  1.0000
  C   C2037     1.0  0.28555  0.75973  0.22011  1.0000
  Fe  Fe300     1.0  0.34538  0.59225  0.19623  1.0000
  S   S609      1.0  0.36103  0.60661  0.19156  1.0000
  S   S610      1.0  0.31387  0.57362  0.20255  1.0000
  H   H3507     1.0  0.28900  0.88370  0.00357  1.0000
  H   H3508     1.0  0.31795  0.61399  0.22585  1.0000
  H   H3509     1.0  0.25783  0.74184  0.12135  1.0000
  H   H3510     1.0  0.39293  0.74412  0.17608  1.0000
  N   N147      1.0  0.39930  0.73440  0.19651  1.0000
  S   S611      1.0  0.26294  0.69278  0.13905  1.0000
  H   H3511     1.0  0.43191  0.69386  0.21815  1.0000
  Fe  Fe301     1.0  0.25511  0.68549  0.12378  1.0000
  S   S612      1.0  0.26684  0.68530  0.10107  1.0000
  Fe  Fe302     1.0  0.25487  0.67447  0.15549  1.0000
  S   S613      1.0  0.26563  0.66194  0.17379  1.0000
  H   H3512     1.0  0.40127  0.76316  0.17644  1.0000
  H   H3513     1.0  0.28628  0.58875  0.19624  1.0000
  C   C2038     1.0  0.25376  0.80760  0.14998  1.0000
  C   C2039     1.0  0.33339  0.64038  0.20439  1.0000
  H   H3514     1.0  0.41757  0.74941  0.17451  1.0000
  H   H3515     1.0  0.38833  0.71844  0.21179  1.0000
  H   H3516     1.0  0.26719  0.76695  0.18692  1.0000
  H   H3517     1.0  0.31938  0.53406  0.16774  1.0000
  C   C2040     1.0  0.25522  0.69145  0.08909  1.0000
  C   C2041     1.0  0.39201  0.72811  0.21156  1.0000
  H   H3518     1.0  0.44592  0.67976  0.22384  1.0000
  H   H3519     1.0  0.26022  0.89148  0.09419  1.0000
  Fe  Fe303     1.0  0.38889  0.67126  0.22210  1.0000
  C   C2042     1.0  0.25761  0.68451  0.07791  1.0000
  S   S614      1.0  0.24371  0.92679  0.04004  1.0000
  C   C2043     1.0  0.27531  0.58705  0.19793  1.0000
  H   H3520     1.0  0.35229  0.48254  0.17242  1.0000
  H   H3521     1.0  0.26647  0.67541  0.07675  1.0000
  C   C2044     1.0  0.34175  0.51457  0.19654  1.0000
  C   C2045     1.0  0.33697  0.50651  0.18991  1.0000
  H   H3522     1.0  0.34810  0.50912  0.20452  1.0000
  H   H3523     1.0  0.29598  0.77884  0.19953  1.0000
  C   C2046     1.0  0.29487  0.61819  0.16996  1.0000
  C   C2047     1.0  0.29153  0.62293  0.18275  1.0000
  C   C2048     1.0  0.28229  0.63626  0.18392  1.0000
  C   C2049     1.0  0.27625  0.64485  0.17235  1.0000
  C   C2050     1.0  0.27921  0.63993  0.15973  1.0000
  C   C2051     1.0  0.28847  0.62659  0.15857  1.0000
  H   H3524     1.0  0.29603  0.61635  0.19174  1.0000
  H   H3525     1.0  0.27996  0.64001  0.19374  1.0000
  H   H3526     1.0  0.27463  0.64650  0.15074  1.0000
  H   H3527     1.0  0.29091  0.62289  0.14870  1.0000
  C   C2052     1.0  0.26493  0.74186  0.16204  1.0000
  C   C2053     1.0  0.26732  0.72767  0.16087  1.0000
  C   C2054     1.0  0.25769  0.72343  0.15589  1.0000
  H   H3528     1.0  0.35418  0.49314  0.13163  1.0000
  H   H3529     1.0  0.27552  0.79213  0.16270  1.0000
  C   C2055     1.0  0.25277  0.75179  0.15846  1.0000
  H   H3530     1.0  0.27623  0.71979  0.16439  1.0000
  H   H3531     1.0  0.25929  0.71234  0.15560  1.0000
  H   H3532     1.0  0.38219  0.73594  0.21538  1.0000
  S   S615      1.0  0.32320  0.50387  0.17031  1.0000
  C   C2056     1.0  0.37808  0.62504  0.21270  1.0000
  H   H3533     1.0  0.43785  0.76879  0.21149  1.0000
  C   C2057     1.0  0.32892  0.51349  0.17945  1.0000
  C   C2058     1.0  0.36723  0.60991  0.20513  1.0000
  H   H3534     1.0  0.33055  0.87682  0.16965  1.0000
  H   H3535     1.0  0.29554  0.66185  0.15387  1.0000
  S   S616      1.0  0.35105  0.74737  0.21606  1.0000
  H   H3536     1.0  0.28971  0.49934  0.19334  1.0000
  C   C2059     1.0  0.36724  0.68885  0.19883  1.0000
  C   C2060     1.0  0.36159  0.67649  0.20346  1.0000
  C   C2061     1.0  0.35018  0.67587  0.19806  1.0000
  C   C2062     1.0  0.34442  0.68758  0.18811  1.0000
  C   C2063     1.0  0.35028  0.69972  0.18334  1.0000
  C   C2064     1.0  0.36161  0.70037  0.18867  1.0000
  H   H3537     1.0  0.36600  0.66744  0.21114  1.0000
  H   H3538     1.0  0.34586  0.66635  0.20149  1.0000
  H   H3539     1.0  0.34612  0.70862  0.17544  1.0000
  H   H3540     1.0  0.36597  0.70986  0.18485  1.0000
  H   H3541     1.0  0.31323  0.67964  0.16440  1.0000
  H   H3542     1.0  0.24122  0.78213  0.03455  1.0000
  H   H3543     1.0  0.31055  0.65994  0.12802  1.0000
  H   H3544     1.0  0.31028  0.64255  0.16635  1.0000
  H   H3545     1.0  0.34361  0.64182  0.20551  1.0000
  H   H3546     1.0  0.26726  0.82562  0.98521  1.0000
  C   C2065     1.0  0.29927  0.72886  0.21559  1.0000
  C   C2066     1.0  0.31558  0.66770  0.16695  1.0000
  C   C2067     1.0  0.27162  0.82681  0.12893  1.0000
  H   H3547     1.0  0.41594  0.76364  0.18305  1.0000
  C   C2068     1.0  0.31019  0.76554  0.08665  1.0000
  C   C2069     1.0  0.30139  0.76183  0.10019  1.0000
  C   C2070     1.0  0.30484  0.74811  0.10890  1.0000
  C   C2071     1.0  0.31681  0.73800  0.10387  1.0000
  C   C2072     1.0  0.32524  0.74158  0.09014  1.0000
  C   C2073     1.0  0.32211  0.75543  0.08167  1.0000
  H   H3548     1.0  0.29226  0.76969  0.10411  1.0000
  H   H3549     1.0  0.29819  0.74531  0.11946  1.0000
  H   H3550     1.0  0.33450  0.73382  0.08624  1.0000
  H   H3551     1.0  0.32899  0.75834  0.07126  1.0000
  C   C2074     1.0  0.25994  0.81204  0.02129  1.0000
  C   C2075     1.0  0.36861  0.50095  0.16217  1.0000
  C   C2076     1.0  0.44525  0.70073  0.22787  1.0000
  H   H3552     1.0  0.38249  0.63445  0.21029  1.0000
  H   H3553     1.0  0.24698  0.82418  0.03706  1.0000
  H   H3554     1.0  0.26919  0.78009  0.15725  1.0000
  C   C2077     1.0  0.34816  0.75004  0.19880  1.0000
  C   C2078     1.0  0.34943  0.76280  0.18853  1.0000
  C   C2079     1.0  0.34760  0.76427  0.17462  1.0000
  C   C2080     1.0  0.34435  0.75304  0.17104  1.0000
  C   C2081     1.0  0.34310  0.74035  0.18134  1.0000
  C   C2082     1.0  0.34489  0.73888  0.19519  1.0000
  H   H3555     1.0  0.35177  0.77156  0.19128  1.0000
  H   H3556     1.0  0.34846  0.77419  0.16672  1.0000
  H   H3557     1.0  0.34101  0.73156  0.17854  1.0000
  H   H3558     1.0  0.34416  0.72888  0.20296  1.0000
  H   H3559     1.0  0.32986  0.64942  0.19572  1.0000
  H   H3560     1.0  0.27778  0.86162  0.99973  1.0000
  H   H3561     1.0  0.41482  0.60069  0.22713  1.0000
  C   C2083     1.0  0.30426  0.84020  0.08279  1.0000
  C   C2084     1.0  0.30444  0.83663  0.07008  1.0000
  C   C2085     1.0  0.29160  0.83830  0.06606  1.0000
  C   C2086     1.0  0.27858  0.84382  0.07460  1.0000
  C   C2087     1.0  0.27837  0.84736  0.08732  1.0000
  C   C2088     1.0  0.29121  0.84530  0.09153  1.0000
  H   H3562     1.0  0.31451  0.83241  0.06343  1.0000
  H   H3563     1.0  0.29183  0.83524  0.05637  1.0000
  H   H3564     1.0  0.26829  0.85115  0.09419  1.0000
  H   H3565     1.0  0.29092  0.84730  0.10171  1.0000
  C   C2089     1.0  0.34489  0.82747  0.16043  1.0000
  C   C2090     1.0  0.33186  0.83193  0.16955  1.0000
  C   C2091     1.0  0.33078  0.82863  0.18450  1.0000
  C   C2092     1.0  0.34262  0.82057  0.19032  1.0000
  C   C2093     1.0  0.35552  0.81585  0.18118  1.0000
  C   C2094     1.0  0.35666  0.81937  0.16627  1.0000
  H   H3566     1.0  0.32269  0.83808  0.16511  1.0000
  H   H3567     1.0  0.32077  0.83228  0.19154  1.0000
  H   H3568     1.0  0.36475  0.80984  0.18557  1.0000
  H   H3569     1.0  0.36676  0.81591  0.15924  1.0000
  C   C2095     1.0  0.29524  0.90624  0.10832  1.0000
  C   C2096     1.0  0.29132  0.91869  0.09809  1.0000
  C   C2097     1.0  0.27694  0.92381  0.09693  1.0000
  C   C2098     1.0  0.26651  0.91650  0.10609  1.0000
  C   C2099     1.0  0.27042  0.90436  0.11658  1.0000
  C   C2100     1.0  0.28470  0.89930  0.11774  1.0000
  H   H3570     1.0  0.29943  0.92415  0.09083  1.0000
  H   H3571     1.0  0.27394  0.93331  0.08891  1.0000
  C   C2101     1.0  0.25110  0.82435  0.02576  1.0000
  H   H3572     1.0  0.28755  0.88991  0.12591  1.0000
  H   H3573     1.0  0.30633  0.65199  0.18531  1.0000
  C   C2102     1.0  0.33008  0.53663  0.18271  1.0000
  H   H3574     1.0  0.31179  0.76695  0.20348  1.0000
  H   H3575     1.0  0.38760  0.51011  0.15087  1.0000
  H   H3576     1.0  0.31680  0.78382  0.21652  1.0000
  H   H3577     1.0  0.27423  0.59853  0.17602  1.0000
  C   C2103     1.0  0.41132  0.72324  0.19028  1.0000
  C   C2104     1.0  0.24855  0.57476  0.20998  1.0000
  H   H3578     1.0  0.31288  0.63896  0.14271  1.0000
  C   C2105     1.0  0.28851  0.86372  0.02020  1.0000
  H   H3579     1.0  0.31299  0.74297  0.21439  1.0000
  H   H3580     1.0  0.37449  0.51375  0.14004  1.0000
  H   H3581     1.0  0.31111  0.79505  0.20082  1.0000
  H   H3582     1.0  0.25656  0.57145  0.20065  1.0000
  S   S617      1.0  0.27365  0.80138  0.19967  1.0000
  C   C2106     1.0  0.24374  0.70327  0.09045  1.0000
  C   C2107     1.0  0.31971  0.64592  0.15841  1.0000
  C   C2108     1.0  0.27415  0.84567  0.02858  1.0000
  H   H3583     1.0  0.25920  0.72516  0.07354  1.0000
  C   C2109     1.0  0.26548  0.81243  0.00665  1.0000
  H   H3584     1.0  0.24861  0.87816  0.15084  1.0000
  H   H3585     1.0  0.27992  0.60042  0.21488  1.0000
  H   H3586     1.0  0.29569  0.83472  0.01853  1.0000
  C   C2110     1.0  0.24842  0.68916  0.06833  1.0000
  H   H3587     1.0  0.29715  0.81304  0.17977  1.0000
  H   H3588     1.0  0.26344  0.84332  0.03077  1.0000
  C   C2111     1.0  0.27545  0.78859  0.15299  1.0000
  H   H3589     1.0  0.27828  0.50579  0.20856  1.0000
  N   N148      1.0  0.33264  0.78936  0.10855  1.0000
  C   C2112     1.0  0.31907  0.80056  0.11155  1.0000
  C   C2113     1.0  0.34030  0.78671  0.12050  1.0000
  C   C2114     1.0  0.32850  0.77580  0.10862  1.0000
  C   C2115     1.0  0.34122  0.79516  0.09399  1.0000
  C   C2116     1.0  0.30828  0.80321  0.10204  1.0000
  C   C2117     1.0  0.34517  0.79970  0.12169  1.0000
  C   C2118     1.0  0.33942  0.76150  0.11160  1.0000
  C   C2119     1.0  0.35636  0.78634  0.08920  1.0000
  H   H3590     1.0  0.31327  0.79772  0.12291  1.0000
  H   H3591     1.0  0.32152  0.81118  0.11022  1.0000
  H   H3592     1.0  0.34997  0.77794  0.11971  1.0000
  H   H3593     1.0  0.33338  0.78286  0.13108  1.0000
  H   H3594     1.0  0.31860  0.77428  0.11698  1.0000
  H   H3595     1.0  0.32589  0.77663  0.09819  1.0000
  H   H3596     1.0  0.33556  0.79620  0.08542  1.0000
  H   H3597     1.0  0.34199  0.80642  0.09287  1.0000
  H   H3598     1.0  0.29912  0.81201  0.10492  1.0000
  H   H3599     1.0  0.31292  0.80677  0.09046  1.0000
  H   H3600     1.0  0.30387  0.79365  0.10366  1.0000
  H   H3601     1.0  0.35130  0.79621  0.13032  1.0000
  H   H3602     1.0  0.35235  0.80404  0.11164  1.0000
  H   H3603     1.0  0.33602  0.80834  0.12484  1.0000
  H   H3604     1.0  0.33550  0.75282  0.10986  1.0000
  H   H3605     1.0  0.34043  0.75842  0.12297  1.0000
  H   H3606     1.0  0.35006  0.76157  0.10442  1.0000
  H   H3607     1.0  0.35604  0.77824  0.08358  1.0000
  H   H3608     1.0  0.36204  0.78104  0.09801  1.0000
  H   H3609     1.0  0.36308  0.79370  0.08162  1.0000
  H   H3610     1.0  0.32439  0.49320  0.21920  1.0000
  H   H3611     1.0  0.26872  0.88484  0.99102  1.0000
  C   C2120     1.0  0.31190  0.79499  0.21178  1.0000
  C   C2121     1.0  0.40092  0.72329  0.22315  1.0000
  H   H3612     1.0  0.27109  0.55538  0.21637  1.0000
  H   H3613     1.0  0.35690  0.50525  0.16342  1.0000
  N   N149      1.0  0.26865  0.80111  0.14261  1.0000
  H   H3614     1.0  0.29859  0.78776  0.14580  1.0000
  H   H3615     1.0  0.28844  0.80841  0.13244  1.0000
  C   C2122     1.0  0.27426  0.81556  0.18460  1.0000
  H   H3616     1.0  0.23792  0.65953  0.18803  1.0000
  H   H3617     1.0  0.24662  0.85708  0.04395  1.0000
  H   H3618     1.0  0.25423  0.81447  0.15695  1.0000
  S   S618      1.0  0.34113  0.57405  0.21508  1.0000
  C   C2123     1.0  0.26891  0.72278  0.09146  1.0000
  H   H3619     1.0  0.24357  0.78915  0.15446  1.0000
  H   H3620     1.0  0.29135  0.51562  0.19618  1.0000
  C   C2124     1.0  0.25508  0.74510  0.11065  1.0000
  H   H3621     1.0  0.37808  0.49156  0.13566  1.0000
  H   H3622     1.0  0.36192  0.59143  0.22117  1.0000
  S   S619      1.0  0.24924  0.66583  0.13960  1.0000
  C   C2125     1.0  0.42612  0.72122  0.19357  1.0000
  C   C2126     1.0  0.30065  0.49583  0.21053  1.0000
  H   H3623     1.0  0.37952  0.74825  0.19131  1.0000
  H   H3624     1.0  0.29833  0.48491  0.21448  1.0000
  H   H3625     1.0  0.32577  0.66418  0.17078  1.0000
  C   C2127     1.0  0.43318  0.76246  0.22161  1.0000
  H   H3626     1.0  0.32741  0.54824  0.17984  1.0000
  H   H3627     1.0  0.26244  0.89866  0.12371  1.0000
  H   H3628     1.0  0.33784  0.70406  0.21433  1.0000
  H   H3629     1.0  0.24853  0.73801  0.11005  1.0000
  H   H3630     1.0  0.24069  0.84644  0.01902  1.0000
  H   H3631     1.0  0.26193  0.71742  0.10114  1.0000
  H   H3632     1.0  0.29771  0.72195  0.08327  1.0000
  C   C2128     1.0  0.27335  0.76885  0.19368  1.0000
  C   C2129     1.0  0.43795  0.68933  0.22682  1.0000
  H   H3633     1.0  0.26714  0.60992  0.18846  1.0000
  H   H3634     1.0  0.24295  0.64054  0.17377  1.0000
  H   H3635     1.0  0.27231  0.80291  0.00318  1.0000
  N   N150      1.0  0.27365  0.86149  0.02239  1.0000
  H   H3636     1.0  0.28253  0.82423  0.02431  1.0000
  C   C2130     1.0  0.28725  0.81910  0.17665  1.0000
  H   H3637     1.0  0.30220  0.76474  0.22752  1.0000
  C   C2131     1.0  0.40409  0.74748  0.19660  1.0000
  C   C2132     1.0  0.33030  0.66617  0.14312  1.0000
  C   C2133     1.0  0.25898  0.73172  0.08106  1.0000
  H   H3638     1.0  0.24397  0.85925  0.14652  1.0000
  H   H3639     1.0  0.29722  0.73772  0.08868  1.0000
  H   H3640     1.0  0.28387  0.88649  0.02187  1.0000
  H   H3641     1.0  0.39495  0.48700  0.14985  1.0000
  S   S620      1.0  0.40865  0.77194  0.21172  1.0000
  H   H3642     1.0  0.25072  0.76268  0.15972  1.0000
  H   H3643     1.0  0.33851  0.65426  0.22519  1.0000
  H   H3644     1.0  0.26130  0.83254  0.13457  1.0000
  H   H3645     1.0  0.32011  0.68929  0.13739  1.0000
  C   C2134     1.0  0.26309  0.88173  0.00240  1.0000
  H   H3646     1.0  0.27166  0.72011  0.11835  1.0000
  C   C2135     1.0  0.26864  0.74532  0.09847  1.0000
  C   C2136     1.0  0.30989  0.52347  0.22498  1.0000
  C   C2137     1.0  0.28939  0.74114  0.06967  1.0000
  H   H3647     1.0  0.30254  0.70838  0.10384  1.0000
  H   H3648     1.0  0.32566  0.62589  0.15139  1.0000
  H   H3649     1.0  0.30016  0.74254  0.06319  1.0000
  H   H3650     1.0  0.28547  0.73522  0.06412  1.0000
  N   N151      1.0  0.28015  0.89517  0.06739  1.0000
  C   C2138     1.0  0.26642  0.88993  0.07129  1.0000
  C   C2139     1.0  0.28850  0.89114  0.05336  1.0000
  C   C2140     1.0  0.27621  0.91130  0.06521  1.0000
  C   C2141     1.0  0.28795  0.88846  0.07952  1.0000
  C   C2142     1.0  0.25544  0.89407  0.08469  1.0000
  C   C2143     1.0  0.29297  0.87491  0.05375  1.0000
  C   C2144     1.0  0.28866  0.91911  0.06046  1.0000
  C   C2145     1.0  0.30430  0.88745  0.07587  1.0000
  H   H3651     1.0  0.26081  0.89393  0.06218  1.0000
  H   H3652     1.0  0.26862  0.87801  0.07341  1.0000
  H   H3653     1.0  0.29838  0.89532  0.04909  1.0000
  H   H3654     1.0  0.28219  0.89628  0.04486  1.0000
  H   H3655     1.0  0.26936  0.91604  0.05715  1.0000
  H   H3656     1.0  0.26973  0.91458  0.07531  1.0000
  H   H3657     1.0  0.28318  0.89424  0.08845  1.0000
  H   H3658     1.0  0.28645  0.87727  0.08431  1.0000
  H   H3659     1.0  0.33963  0.49492  0.19279  1.0000
  H   H3660     1.0  0.25012  0.90560  0.08248  1.0000
  H   H3661     1.0  0.24736  0.72808  0.19586  1.0000
  H   H3662     1.0  0.27061  0.82560  0.11851  1.0000
  C   C2146     1.0  0.25219  0.58568  0.21611  1.0000
  H   H3663     1.0  0.24620  0.63414  0.19147  1.0000
  H   H3664     1.0  0.29557  0.91756  0.04991  1.0000
  H   H3665     1.0  0.29505  0.91616  0.06877  1.0000
  H   H3666     1.0  0.28421  0.93083  0.05918  1.0000
  H   H3667     1.0  0.30713  0.89072  0.08437  1.0000
  H   H3668     1.0  0.30862  0.89427  0.06562  1.0000
  H   H3669     1.0  0.31021  0.87613  0.07621  1.0000
  C   C2147     1.0  0.29088  0.78111  0.14704  1.0000
  H   H3670     1.0  0.45284  0.70299  0.21737  1.0000
  C   C2148     1.0  0.30512  0.66992  0.13182  1.0000
  Fe  Fe304     1.0  0.24034  0.70510  0.14441  1.0000
  Fe  Fe305     1.0  0.38475  0.77564  0.21878  1.0000
  C   C2149     1.0  0.30918  0.76918  0.18220  1.0000
  C   C2150     1.0  0.37604  0.51240  0.15100  1.0000
  N   N152      1.0  0.29461  0.75643  0.20598  1.0000
  C   C2151     1.0  0.27541  0.57307  0.22297  1.0000
  H   H3671     1.0  0.24720  0.90363  0.02656  1.0000
  C   C2152     1.0  0.26165  0.83492  0.16868  1.0000
  C   C2153     1.0  0.23762  0.63910  0.18536  1.0000
  H   H3672     1.0  0.34013  0.66026  0.14725  1.0000
  H   H3673     1.0  0.29144  0.75238  0.18685  1.0000
  H   H3674     1.0  0.31496  0.75868  0.17967  1.0000
  H   H3675     1.0  0.31256  0.74053  0.19801  1.0000
  H   H3676     1.0  0.38900  0.71842  0.18332  1.0000
  C   C2154     1.0  0.30274  0.76816  0.19841  1.0000
  H   H3677     1.0  0.30091  0.77398  0.17575  1.0000
  H   H3678     1.0  0.31688  0.77636  0.17852  1.0000
  H   H3679     1.0  0.29803  0.86873  0.06288  1.0000
  H   H3680     1.0  0.26554  0.77143  0.20350  1.0000
  Fe  Fe306     1.0  0.25057  0.80305  0.21016  1.0000
  H   H3681     1.0  0.26178  0.80618  0.12256  1.0000
  H   H3682     1.0  0.33878  0.85838  0.17486  1.0000
  N   N153      1.0  0.27721  0.73080  0.09589  1.0000
  H   H3683     1.0  0.37457  0.73257  0.17829  1.0000
  N   N154      1.0  0.31722  0.66208  0.15379  1.0000
  H   H3684     1.0  0.43927  0.58550  0.22077  1.0000
  C   C2155     1.0  0.32266  0.63755  0.14661  1.0000
  C   C2156     1.0  0.29085  0.73254  0.08487  1.0000
  H   H3685     1.0  0.27902  0.77090  0.21846  1.0000
  C   C2157     1.0  0.30539  0.74246  0.20832  1.0000
  S   S621      1.0  0.34450  0.53936  0.20167  1.0000
  C   C2158     1.0  0.27749  0.81234  0.13846  1.0000
  H   H3686     1.0  0.47022  0.64900  0.21900  1.0000
  C   C2159     1.0  0.26153  0.82349  0.18058  1.0000
  C   C2160     1.0  0.33830  0.52967  0.19301  1.0000
  H   H3687     1.0  0.28266  0.75205  0.06954  1.0000
  H   H3688     1.0  0.29237  0.85926  0.03042  1.0000
  H   H3689     1.0  0.24213  0.72999  0.21738  1.0000
  H   H3690     1.0  0.39503  0.75492  0.20209  1.0000
  C   C2161     1.0  0.28428  0.83525  0.01922  1.0000
  C   C2162     1.0  0.29060  0.87926  0.01470  1.0000
  H   H3691     1.0  0.31074  0.67855  0.12524  1.0000
  H   H3692     1.0  0.30518  0.72196  0.22390  1.0000
  H   H3693     1.0  0.29733  0.83383  0.15891  1.0000
  H   H3694     1.0  0.28211  0.83775  0.00833  1.0000
  H   H3695     1.0  0.43282  0.72772  0.18471  1.0000
  C   C2163     1.0  0.38822  0.73947  0.18742  1.0000
  H   H3696     1.0  0.29617  0.85777  0.01221  1.0000
  H   H3697     1.0  0.29424  0.67302  0.12954  1.0000
  H   H3698     1.0  0.27928  0.74651  0.20262  1.0000
  H   H3699     1.0  0.28790  0.73110  0.22108  1.0000
  H   H3700     1.0  0.33346  0.68528  0.14790  1.0000
  C   C2164     1.0  0.29678  0.80025  0.22054  1.0000
  H   H3701     1.0  0.42588  0.72342  0.20395  1.0000
  H   H3702     1.0  0.41308  0.72602  0.17832  1.0000
  C   C2165     1.0  0.30359  0.66347  0.17991  1.0000
  C   C2166     1.0  0.32158  0.64067  0.21827  1.0000
  H   H3703     1.0  0.25173  0.84075  0.16555  1.0000
  H   H3704     1.0  0.40838  0.71256  0.19377  1.0000
  H   H3705     1.0  0.30227  0.66979  0.18801  1.0000
  H   H3706     1.0  0.43190  0.70989  0.19377  1.0000
  H   H3707     1.0  0.33534  0.63038  0.20059  1.0000
  H   H3708     1.0  0.25022  0.68362  0.05982  1.0000
  H   H3709     1.0  0.24027  0.91107  0.13838  1.0000
  C   C2167     1.0  0.28504  0.75533  0.19713  1.0000
  C   C2168     1.0  0.37319  0.62197  0.20212  1.0000
  H   H3710     1.0  0.28420  0.55019  0.22689  1.0000
  H   H3711     1.0  0.30264  0.82306  0.22124  1.0000
  H   H3712     1.0  0.29317  0.66591  0.17684  1.0000
  H   H3713     1.0  0.29865  0.67926  0.15019  1.0000
  H   H3714     1.0  0.28642  0.72838  0.11410  1.0000
  C   C2169     1.0  0.32554  0.52856  0.17587  1.0000
  C   C2170     1.0  0.26861  0.59919  0.21768  1.0000
  H   H3715     1.0  0.29206  0.70161  0.12074  1.0000
  C   C2171     1.0  0.26272  0.78383  0.13051  1.0000
  H   H3716     1.0  0.33166  0.64008  0.13758  1.0000
  H   H3717     1.0  0.37392  0.62904  0.19157  1.0000
  N   N155      1.0  0.26775  0.58596  0.21354  1.0000
  C   C2172     1.0  0.25358  0.83747  0.00094  1.0000
  H   H3718     1.0  0.32883  0.64160  0.16396  1.0000
  Fe  Fe307     1.0  0.35596  0.79614  0.21714  1.0000
  C   C2173     1.0  0.33050  0.68230  0.13929  1.0000
  H   H3719     1.0  0.27715  0.84234  0.03921  1.0000
  C   C2174     1.0  0.41007  0.75627  0.18170  1.0000
  H   H3720     1.0  0.33873  0.68468  0.12932  1.0000
  C   C2175     1.0  0.26894  0.86561  0.00833  1.0000
  C   C2176     1.0  0.29147  0.70740  0.10954  1.0000
  C   C2177     1.0  0.28130  0.72222  0.10990  1.0000
  C   C2178     1.0  0.28735  0.83082  0.16483  1.0000
  H   H3721     1.0  0.31210  0.63898  0.21569  1.0000
  Fe  Fe308     1.0  0.35888  0.76445  0.22048  1.0000
  H   H3722     1.0  0.26036  0.86008  0.00932  1.0000
  H   H3723     1.0  0.27631  0.71392  0.08647  1.0000
  H   H3724     1.0  0.33655  0.61286  0.22031  1.0000
  H   H3725     1.0  0.29393  0.77101  0.15489  1.0000
  C   C2179     1.0  0.27449  0.83874  0.16092  1.0000
  H   H3726     1.0  0.30187  0.87922  0.01423  1.0000
  H   H3727     1.0  0.24759  0.81489  0.14196  1.0000
  H   H3728     1.0  0.25146  0.82100  0.18665  1.0000
  H   H3729     1.0  0.27537  0.75112  0.10105  1.0000
  C   C2180     1.0  0.26351  0.86937  0.03352  1.0000
  H   H3730     1.0  0.40942  0.71365  0.22145  1.0000
  H   H3731     1.0  0.27760  0.75282  0.22498  1.0000
  C   C2181     1.0  0.26780  0.59907  0.18706  1.0000
  H   H3732     1.0  0.26179  0.74182  0.07426  1.0000
  H   H3733     1.0  0.37374  0.72447  0.19686  1.0000
  H   H3734     1.0  0.28765  0.70068  0.10479  1.0000
  S   S622      1.0  0.32256  0.60430  0.19906  1.0000
  H   H3735     1.0  0.33188  0.66294  0.13286  1.0000
  N   N156      1.0  0.34774  0.88008  0.14235  1.0000
  C   C2182     1.0  0.36085  0.87664  0.13073  1.0000
  C   C2183     1.0  0.35144  0.88866  0.15064  1.0000
  C   C2184     1.0  0.33582  0.88915  0.13501  1.0000
  C   C2185     1.0  0.34404  0.86612  0.15148  1.0000
  C   C2186     1.0  0.35909  0.86947  0.11958  1.0000
  C   C2187     1.0  0.36347  0.88064  0.15882  1.0000
  C   C2188     1.0  0.32185  0.89574  0.14456  1.0000
  C   C2189     1.0  0.33378  0.86646  0.16638  1.0000
  H   H3736     1.0  0.36481  0.88654  0.12456  1.0000
  H   H3737     1.0  0.36980  0.86922  0.13549  1.0000
  H   H3738     1.0  0.34217  0.89283  0.15864  1.0000
  H   H3739     1.0  0.35466  0.89854  0.14329  1.0000
  H   H3740     1.0  0.33953  0.89823  0.12656  1.0000
  H   H3741     1.0  0.33260  0.88279  0.12931  1.0000
  H   H3742     1.0  0.33922  0.86141  0.14556  1.0000
  H   H3743     1.0  0.35388  0.85785  0.15337  1.0000
  H   H3744     1.0  0.35208  0.87692  0.11247  1.0000
  H   H3745     1.0  0.36970  0.86639  0.11250  1.0000
  H   H3746     1.0  0.35512  0.85948  0.12470  1.0000
  H   H3747     1.0  0.37404  0.87863  0.15139  1.0000
  H   H3748     1.0  0.36425  0.88744  0.16564  1.0000
  H   H3749     1.0  0.36132  0.87038  0.16607  1.0000
  H   H3750     1.0  0.31422  0.90198  0.13759  1.0000
  H   H3751     1.0  0.32331  0.90347  0.14992  1.0000
  H   H3752     1.0  0.31653  0.88746  0.15242  1.0000
  H   H3753     1.0  0.32381  0.86336  0.16666  1.0000
  C   C2190     1.0  0.30295  0.51708  0.21682  1.0000
  C   C2191     1.0  0.28001  0.55869  0.21817  1.0000
  Fe  Fe309     1.0  0.31815  0.58536  0.21658  1.0000
  H   H3754     1.0  0.29233  0.52431  0.21596  1.0000
  H   H3755     1.0  0.31920  0.80212  0.21034  1.0000
  H   H3756     1.0  0.24107  0.87576  0.04363  1.0000
  H   H3757     1.0  0.25095  0.78652  0.13164  1.0000
  C   C2192     1.0  0.24025  0.87088  0.17362  1.0000
  C   C2193     1.0  0.24322  0.74761  0.15326  1.0000
  H   H3758     1.0  0.25165  0.88357  0.00217  1.0000
  H   H3759     1.0  0.41237  0.74484  0.20293  1.0000
  H   H3760     1.0  0.24833  0.79154  0.16984  1.0000
  H   H3761     1.0  0.27920  0.79600  0.12164  1.0000
  H   H3762     1.0  0.26910  0.81787  0.22382  1.0000
  S   S623      1.0  0.24857  0.92174  0.10460  1.0000
  H   H3763     1.0  0.41228  0.62264  0.20753  1.0000
  C   C2194     1.0  0.36636  0.60082  0.21878  1.0000
  C   C2195     1.0  0.23944  0.88194  0.15929  1.0000
  H   H3764     1.0  0.40534  0.73197  0.22411  1.0000
  H   H3765     1.0  0.27793  0.77824  0.18751  1.0000
  C   C2196     1.0  0.24759  0.83696  0.01555  1.0000
  H   H3766     1.0  0.24580  0.59648  0.21205  1.0000
  Fe  Fe310     1.0  0.25324  0.79503  0.08660  1.0000
  H   H3767     1.0  0.24770  0.73402  0.08703  1.0000
  H   H3768     1.0  0.27893  0.81475  0.14822  1.0000
  C   C2197     1.0  0.24440  0.79712  0.15985  1.0000
  H   H3769     1.0  0.42786  0.60959  0.20265  1.0000
  C   C2198     1.0  0.33623  0.69861  0.22588  1.0000
  H   H3770     1.0  0.32147  0.51858  0.22393  1.0000
  C   C2199     1.0  0.26845  0.79720  0.12901  1.0000
  H   H3771     1.0  0.33677  0.68722  0.22615  1.0000
  H   H3772     1.0  0.37125  0.52293  0.15409  1.0000
  H   H3773     1.0  0.29191  0.80989  0.21316  1.0000
  H   H3774     1.0  0.25701  0.59779  0.18743  1.0000
  C   C2200     1.0  0.24785  0.86782  0.03718  1.0000
  H   H3775     1.0  0.27930  0.83387  0.12634  1.0000
  H   H3776     1.0  0.26263  0.60910  0.21157  1.0000
  H   H3777     1.0  0.25138  0.86806  0.17518  1.0000
  C   C2201     1.0  0.42292  0.61710  0.20999  1.0000
  S   S624      1.0  0.44006  0.65093  0.22474  1.0000
  H   H3778     1.0  0.30034  0.72257  0.20753  1.0000
  H   H3779     1.0  0.27705  0.57698  0.19436  1.0000
  H   H3780     1.0  0.44775  0.60007  0.21119  1.0000
  H   H3781     1.0  0.44582  0.61962  0.22138  1.0000
  H   H3782     1.0  0.31109  0.49463  0.20265  1.0000
  H   H3783     1.0  0.29047  0.79203  0.22224  1.0000
  H   H3784     1.0  0.34667  0.48998  0.15043  1.0000
  C   C2202     1.0  0.28926  0.50484  0.20184  1.0000
  S   S625      1.0  0.24679  0.81270  0.06835  1.0000
  Fe  Fe311     1.0  0.23891  0.96821  0.06564  1.0000
  H   H3785     1.0  0.24829  0.75609  0.10993  1.0000
  N   N157      1.0  0.37276  0.48617  0.15901  1.0000
  H   H3786     1.0  0.42924  0.62540  0.20760  1.0000
  H   H3787     1.0  0.37084  0.50058  0.17265  1.0000
  C   C2203     1.0  0.37018  0.48658  0.14463  1.0000
  H   H3788     1.0  0.28538  0.57519  0.22416  1.0000
  H   H3789     1.0  0.26758  0.77954  0.12061  1.0000
  H   H3790     1.0  0.35407  0.70788  0.22403  1.0000
  C   C2204     1.0  0.37727  0.61591  0.22633  1.0000
  H   H3791     1.0  0.28889  0.55883  0.20851  1.0000
  H   H3792     1.0  0.48033  0.70521  0.22727  1.0000
  H   H3793     1.0  0.46718  0.71668  0.21717  1.0000
  H   H3794     1.0  0.26585  0.77476  0.13921  1.0000
  N   N158      1.0  0.30156  0.50163  0.22273  1.0000
  H   H3795     1.0  0.24683  0.56501  0.21845  1.0000
  Fe  Fe312     1.0  0.24175  0.93878  0.08592  1.0000
  H   H3796     1.0  0.24899  0.75040  0.18939  1.0000
  H   H3797     1.0  0.46476  0.57829  0.21873  1.0000
  C   C2205     1.0  0.42078  0.60910  0.22592  1.0000
  S   S626      1.0  0.23913  0.82365  0.21685  1.0000
  H   H3798     1.0  0.24878  0.70426  0.19406  1.0000
  C   C2206     1.0  0.23794  0.71046  0.19810  1.0000
  H   H3799     1.0  0.31845  0.65182  0.22003  1.0000
  C   C2207     1.0  0.44449  0.59348  0.22212  1.0000
  H   H3800     1.0  0.32873  0.72638  0.22783  1.0000
  H   H3801     1.0  0.34808  0.62772  0.22614  1.0000
  H   H3802     1.0  0.24206  0.70896  0.09874  1.0000
  H   H3803     1.0  0.24047  0.72913  0.18121  1.0000
  C   C2208     1.0  0.23794  0.72662  0.19310  1.0000
  C   C2209     1.0  0.45867  0.58514  0.22653  1.0000
  H   H3804     1.0  0.46552  0.59250  0.22583  1.0000
  C   C2210     1.0  0.47035  0.71366  0.22764  1.0000
  H   H3805     1.0  0.23806  0.76770  0.19026  1.0000
  H   H3806     1.0  0.23860  0.75462  0.20644  1.0000
  C   C2211     1.0  0.23867  0.75607  0.19500  1.0000
  H   H3807     1.0  0.47185  0.68613  0.22675  1.0000
  H   H3808     1.0  0.23850  0.57967  0.20606  1.0000
  H   H3809     1.0  0.24737  0.58338  0.22783  1.0000
  S   S627      1.0  0.37493  0.75809  0.23423  1.0000
  H   H3810     1.0  0.28386  0.54990  0.30339  1.0000
  S   S628      1.0  0.27016  0.64049  0.43357  1.0000
  S   S629      1.0  0.40362  0.64068  0.25168  1.0000
  C   C2212     1.0  0.42974  0.59351  0.24659  1.0000
  S   S630      1.0  0.24238  0.78870  0.23076  1.0000
  H   H3811     1.0  0.31670  0.72261  0.24537  1.0000
  H   H3812     1.0  0.35141  0.72918  0.41203  1.0000
  C   C2213     1.0  0.29874  0.62966  0.24422  1.0000
  H   H3813     1.0  0.26774  0.61025  0.44330  1.0000
  H   H3814     1.0  0.25197  0.74104  0.26171  1.0000
  C   C2214     1.0  0.26926  0.68434  0.25487  1.0000
  H   H3815     1.0  0.28761  0.67434  0.26427  1.0000
  H   H3816     1.0  0.33732  0.72164  0.25649  1.0000
  Fe  Fe313     1.0  0.26955  0.60096  0.34612  1.0000
  S   S631      1.0  0.27399  0.58765  0.32930  1.0000
  Fe  Fe314     1.0  0.27877  0.62676  0.34910  1.0000
  S   S632      1.0  0.26327  0.62806  0.36994  1.0000
  S   S633      1.0  0.29163  0.64402  0.34034  1.0000
  Fe  Fe315     1.0  0.27043  0.60423  0.37581  1.0000
  S   S634      1.0  0.27319  0.59453  0.39876  1.0000
  S   S635      1.0  0.28717  0.60298  0.35530  1.0000
  S   S636      1.0  0.26247  0.62482  0.33845  1.0000
  H   H3817     1.0  0.26591  0.65417  0.32623  1.0000
  Fe  Fe316     1.0  0.26703  0.53119  0.27886  1.0000
  S   S637      1.0  0.25617  0.52031  0.30044  1.0000
  S   S638      1.0  0.29084  0.52826  0.27129  1.0000
  H   H3818     1.0  0.38268  0.68340  0.42415  1.0000
  H   H3819     1.0  0.31748  0.62810  0.41243  1.0000
  H   H3820     1.0  0.26898  0.67590  0.33410  1.0000
  H   H3821     1.0  0.31355  0.65695  0.44392  1.0000
  C   C2215     1.0  0.26366  0.68020  0.38001  1.0000
  S   S639      1.0  0.25265  0.55277  0.27962  1.0000
  Fe  Fe317     1.0  0.30987  0.72415  0.28559  1.0000
  S   S640      1.0  0.29566  0.73432  0.30334  1.0000
  S   S641      1.0  0.33309  0.71593  0.28592  1.0000
  Fe  Fe318     1.0  0.28066  0.72114  0.30376  1.0000
  S   S642      1.0  0.27120  0.70926  0.32556  1.0000
  S   S643      1.0  0.29580  0.70956  0.28709  1.0000
  Fe  Fe319     1.0  0.31616  0.70820  0.37411  1.0000
  S   S644      1.0  0.32863  0.68918  0.36479  1.0000
  S   S645      1.0  0.30254  0.72719  0.36247  1.0000
  Fe  Fe320     1.0  0.32560  0.69632  0.40241  1.0000
  S   S646      1.0  0.33874  0.67589  0.39593  1.0000
  S   S647      1.0  0.32074  0.70393  0.42304  1.0000
  Fe  Fe321     1.0  0.34579  0.69026  0.37465  1.0000
  S   S648      1.0  0.36823  0.68503  0.36222  1.0000
  Fe  Fe322     1.0  0.32049  0.67637  0.38650  1.0000
  S   S649      1.0  0.31267  0.65625  0.38965  1.0000
  S   S650      1.0  0.33421  0.71071  0.38178  1.0000
  S   S651      1.0  0.30657  0.69540  0.39511  1.0000
  Fe  Fe323     1.0  0.41967  0.72402  0.30993  1.0000
  S   S652      1.0  0.43906  0.73378  0.29996  1.0000
  S   S653      1.0  0.39932  0.73432  0.32357  1.0000
  Fe  Fe324     1.0  0.43199  0.69834  0.29688  1.0000
  S   S654      1.0  0.45218  0.70576  0.28564  1.0000
  S   S655      1.0  0.43139  0.67698  0.29400  1.0000
  Fe  Fe325     1.0  0.45169  0.71129  0.30617  1.0000
  H   H3822     1.0  0.41872  0.78228  0.24526  1.0000
  Fe  Fe326     1.0  0.43833  0.72742  0.28016  1.0000
  H   H3823     1.0  0.34230  0.60957  0.43682  1.0000
  S   S656      1.0  0.43240  0.70205  0.31797  1.0000
  S   S657      1.0  0.41799  0.71956  0.28952  1.0000
  S   S658      1.0  0.37927  0.67061  0.27382  1.0000
  S   S659      1.0  0.25461  0.52514  0.26678  1.0000
  H   H3824     1.0  0.43050  0.71407  0.25724  1.0000
  C   C2216     1.0  0.27428  0.54002  0.33970  1.0000
  H   H3825     1.0  0.29263  0.83538  0.23916  1.0000
  C   C2217     1.0  0.26041  0.77882  0.27071  1.0000
  H   H3826     1.0  0.29642  0.78176  0.24642  1.0000
  S   S660      1.0  0.47307  0.70210  0.31260  1.0000
  H   H3827     1.0  0.28931  0.50098  0.30503  1.0000
  H   H3828     1.0  0.27132  0.67301  0.42243  1.0000
  H   H3829     1.0  0.30150  0.51311  0.34870  1.0000
  H   H3830     1.0  0.25192  0.69726  0.24486  1.0000
  H   H3831     1.0  0.46990  0.67756  0.30659  1.0000
  C   C2218     1.0  0.42133  0.74609  0.24787  1.0000
  C   C2219     1.0  0.38040  0.78870  0.27758  1.0000
  H   H3832     1.0  0.23845  0.63870  0.38837  1.0000
  H   H3833     1.0  0.46484  0.72916  0.32219  1.0000
  C   C2220     1.0  0.41655  0.67564  0.28869  1.0000
  C   C2221     1.0  0.40311  0.68473  0.29186  1.0000
  C   C2222     1.0  0.39151  0.68312  0.28746  1.0000
  C   C2223     1.0  0.39348  0.67267  0.27965  1.0000
  C   C2224     1.0  0.40697  0.66386  0.27630  1.0000
  C   C2225     1.0  0.41841  0.66521  0.28099  1.0000
  H   H3834     1.0  0.40165  0.69281  0.29784  1.0000
  H   H3835     1.0  0.38110  0.69008  0.28990  1.0000
  H   H3836     1.0  0.42877  0.65820  0.27856  1.0000
  C   C2226     1.0  0.47584  0.64538  0.23940  1.0000
  H   H3837     1.0  0.27545  0.71144  0.46023  1.0000
  H   H3838     1.0  0.29693  0.66467  0.43852  1.0000
  H   H3839     1.0  0.40858  0.65578  0.27032  1.0000
  H   H3840     1.0  0.29463  0.72141  0.45084  1.0000
  S   S661      1.0  0.28019  0.72677  0.25146  1.0000
  H   H3841     1.0  0.42497  0.77456  0.30596  1.0000
  C   C2227     1.0  0.37541  0.69937  0.35053  1.0000
  C   C2228     1.0  0.37033  0.71336  0.35280  1.0000
  C   C2229     1.0  0.37746  0.72426  0.34428  1.0000
  C   C2230     1.0  0.38945  0.72120  0.33331  1.0000
  C   C2231     1.0  0.39387  0.70744  0.33052  1.0000
  C   C2232     1.0  0.38703  0.69650  0.33926  1.0000
  H   H3842     1.0  0.36135  0.71563  0.36149  1.0000
  H   H3843     1.0  0.37400  0.73491  0.34645  1.0000
  H   H3844     1.0  0.40275  0.70509  0.32178  1.0000
  H   H3845     1.0  0.39092  0.68573  0.33737  1.0000
  C   C2233     1.0  0.34030  0.73114  0.28132  1.0000
  C   C2234     1.0  0.33115  0.74470  0.28014  1.0000
  C   C2235     1.0  0.33661  0.75701  0.27680  1.0000
  C   C2236     1.0  0.35126  0.75581  0.27458  1.0000
  C   C2237     1.0  0.36054  0.74226  0.27565  1.0000
  C   C2238     1.0  0.35503  0.72987  0.27907  1.0000
  H   H3846     1.0  0.31978  0.74580  0.28207  1.0000
  H   H3847     1.0  0.32947  0.76749  0.27579  1.0000
  H   H3848     1.0  0.36216  0.71939  0.27987  1.0000
  C   C2239     1.0  0.27794  0.71414  0.33759  1.0000
  C   C2240     1.0  0.28550  0.70359  0.34705  1.0000
  C   C2241     1.0  0.29285  0.70754  0.35501  1.0000
  C   C2242     1.0  0.29246  0.72205  0.35362  1.0000
  C   C2243     1.0  0.28433  0.73259  0.34468  1.0000
  C   C2244     1.0  0.27711  0.72864  0.33665  1.0000
  H   H3849     1.0  0.28623  0.69238  0.34769  1.0000
  H   H3850     1.0  0.29892  0.69938  0.36207  1.0000
  H   H3851     1.0  0.28390  0.74383  0.34366  1.0000
  H   H3852     1.0  0.27118  0.73683  0.32942  1.0000
  C   C2245     1.0  0.29514  0.54499  0.26282  1.0000
  C   C2246     1.0  0.28724  0.55731  0.26786  1.0000
  C   C2247     1.0  0.28972  0.57085  0.26013  1.0000
  C   C2248     1.0  0.30018  0.57203  0.24739  1.0000
  C   C2249     1.0  0.30859  0.55965  0.24277  1.0000
  C   C2250     1.0  0.30618  0.54612  0.25059  1.0000
  H   H3853     1.0  0.27936  0.55642  0.27781  1.0000
  H   H3854     1.0  0.28345  0.58039  0.26390  1.0000
  H   H3855     1.0  0.30704  0.55691  0.29271  1.0000
  H   H3856     1.0  0.37198  0.67420  0.39571  1.0000
  C   C2251     1.0  0.29802  0.64732  0.35373  1.0000
  C   C2252     1.0  0.30170  0.66047  0.35184  1.0000
  C   C2253     1.0  0.30636  0.66333  0.36271  1.0000
  C   C2254     1.0  0.30750  0.65296  0.37545  1.0000
  C   C2255     1.0  0.30400  0.63977  0.37721  1.0000
  C   C2256     1.0  0.29926  0.63697  0.36641  1.0000
  H   H3857     1.0  0.30066  0.66854  0.34207  1.0000
  H   H3858     1.0  0.30886  0.67358  0.36131  1.0000
  H   H3859     1.0  0.30485  0.63169  0.38702  1.0000
  H   H3860     1.0  0.29665  0.62672  0.36785  1.0000
  C   C2257     1.0  0.26167  0.57961  0.32614  1.0000
  C   C2258     1.0  0.26496  0.57489  0.31327  1.0000
  C   C2259     1.0  0.25644  0.56694  0.31095  1.0000
  C   C2260     1.0  0.37402  0.67981  0.40295  1.0000
  H   H3861     1.0  0.41324  0.76263  0.31036  1.0000
  H   H3862     1.0  0.27706  0.68951  0.41232  1.0000
  H   H3863     1.0  0.45048  0.65925  0.33273  1.0000
  N   N159      1.0  0.32223  0.63412  0.42968  1.0000
  H   H3864     1.0  0.30188  0.52000  0.29982  1.0000
  C   C2261     1.0  0.34918  0.69463  0.45518  1.0000
  C   C2262     1.0  0.33820  0.70690  0.45399  1.0000
  C   C2263     1.0  0.32982  0.70964  0.44388  1.0000
  C   C2264     1.0  0.33216  0.70009  0.43499  1.0000
  C   C2265     1.0  0.34303  0.68769  0.43623  1.0000
  C   C2266     1.0  0.35161  0.68504  0.44623  1.0000
  H   H3865     1.0  0.33639  0.71448  0.46063  1.0000
  H   H3866     1.0  0.32155  0.71933  0.44286  1.0000
  H   H3867     1.0  0.34469  0.68010  0.42965  1.0000
  H   H3868     1.0  0.36005  0.67548  0.44718  1.0000
  Fe  Fe327     1.0  0.24082  0.54170  0.30046  1.0000
  H   H3869     1.0  0.31316  0.66638  0.42552  1.0000
  C   C2267     1.0  0.30814  0.65898  0.43501  1.0000
  H   H3870     1.0  0.31616  0.62639  0.25453  1.0000
  H   H3871     1.0  0.29097  0.50692  0.34078  1.0000
  S   S662      1.0  0.30111  0.74150  0.26829  1.0000
  C   C2268     1.0  0.24942  0.57676  0.33647  1.0000
  H   H3872     1.0  0.31307  0.52016  0.31834  1.0000
  C   C2269     1.0  0.45818  0.70932  0.24032  1.0000
  H   H3873     1.0  0.39496  0.71270  0.39382  1.0000
  C   C2270     1.0  0.27211  0.62688  0.42446  1.0000
  C   C2271     1.0  0.27536  0.63028  0.40943  1.0000
  C   C2272     1.0  0.27620  0.62023  0.40160  1.0000
  C   C2273     1.0  0.27365  0.60664  0.40866  1.0000
  C   C2274     1.0  0.27090  0.60295  0.42376  1.0000
  C   C2275     1.0  0.27013  0.61306  0.43168  1.0000
  H   H3874     1.0  0.27745  0.64067  0.40373  1.0000
  H   H3875     1.0  0.27908  0.62295  0.39006  1.0000
  H   H3876     1.0  0.29086  0.72902  0.46611  1.0000
  H   H3877     1.0  0.27653  0.65810  0.38096  1.0000
  H   H3878     1.0  0.27129  0.71957  0.47503  1.0000
  S   S663      1.0  0.37432  0.66019  0.24077  1.0000
  H   H3879     1.0  0.27435  0.57714  0.30518  1.0000
  N   N160      1.0  0.34187  0.67606  0.31865  1.0000
  C   C2276     1.0  0.32775  0.68294  0.31420  1.0000
  C   C2277     1.0  0.35140  0.66849  0.30702  1.0000
  C   C2278     1.0  0.34834  0.68788  0.31922  1.0000
  C   C2279     1.0  0.33903  0.66607  0.33320  1.0000
  C   C2280     1.0  0.31707  0.69350  0.32307  1.0000
  C   C2281     1.0  0.34571  0.65678  0.30428  1.0000
  C   C2282     1.0  0.36302  0.68329  0.32332  1.0000
  C   C2283     1.0  0.35172  0.65404  0.33758  1.0000
  H   H3880     1.0  0.32947  0.68884  0.30276  1.0000
  H   H3881     1.0  0.32194  0.67464  0.31479  1.0000
  H   H3882     1.0  0.36223  0.66341  0.30902  1.0000
  H   H3883     1.0  0.35333  0.67642  0.29661  1.0000
  H   H3884     1.0  0.34941  0.69569  0.30865  1.0000
  H   H3885     1.0  0.34129  0.69408  0.32729  1.0000
  H   H3886     1.0  0.33467  0.67229  0.34179  1.0000
  H   H3887     1.0  0.33051  0.66047  0.33390  1.0000
  H   H3888     1.0  0.30646  0.69590  0.32033  1.0000
  H   H3889     1.0  0.31562  0.68901  0.33479  1.0000
  H   H3890     1.0  0.32032  0.70393  0.32034  1.0000
  H   H3891     1.0  0.35435  0.65074  0.29697  1.0000
  H   H3892     1.0  0.34245  0.64897  0.31431  1.0000
  H   H3893     1.0  0.33667  0.66153  0.29877  1.0000
  H   H3894     1.0  0.36699  0.69302  0.32220  1.0000
  H   H3895     1.0  0.37132  0.67685  0.31622  1.0000
  H   H3896     1.0  0.36220  0.67761  0.33476  1.0000
  H   H3897     1.0  0.35158  0.65324  0.34902  1.0000
  H   H3898     1.0  0.36246  0.65551  0.33140  1.0000
  H   H3899     1.0  0.35040  0.64345  0.33712  1.0000
  H   H3900     1.0  0.39357  0.76165  0.30239  1.0000
  S   S664      1.0  0.27201  0.65444  0.46458  1.0000
  H   H3901     1.0  0.26857  0.66549  0.36581  1.0000
  H   H3902     1.0  0.34927  0.62405  0.41067  1.0000
  C   C2284     1.0  0.33658  0.61361  0.44661  1.0000
  C   C2285     1.0  0.28932  0.50566  0.31399  1.0000
  C   C2286     1.0  0.26112  0.69728  0.24860  1.0000
  S   S665      1.0  0.44614  0.73981  0.25794  1.0000
  S   S666      1.0  0.28075  0.77371  0.28648  1.0000
  H   H3903     1.0  0.38131  0.76102  0.28303  1.0000
  C   C2287     1.0  0.26681  0.70705  0.38637  1.0000
  H   H3904     1.0  0.31271  0.53660  0.24696  1.0000
  H   H3905     1.0  0.29853  0.74708  0.23584  1.0000
  H   H3906     1.0  0.26098  0.82453  0.23975  1.0000
  S   S667      1.0  0.48264  0.64003  0.26594  1.0000
  H   H3907     1.0  0.25139  0.59932  0.23740  1.0000
  Fe  Fe328     1.0  0.36133  0.77573  0.24507  1.0000
  C   C2288     1.0  0.27857  0.67792  0.41279  1.0000
  H   H3908     1.0  0.38274  0.78433  0.26790  1.0000
  C   C2289     1.0  0.30260  0.79023  0.24411  1.0000
  C   C2290     1.0  0.47479  0.67899  0.24855  1.0000
  Fe  Fe329     1.0  0.39036  0.64000  0.23690  1.0000
  H   H3909     1.0  0.27237  0.68531  0.37254  1.0000
  H   H3910     1.0  0.47890  0.66106  0.28222  1.0000
  C   C2291     1.0  0.34873  0.63274  0.41589  1.0000
  C   C2292     1.0  0.33294  0.69582  0.25710  1.0000
  H   H3911     1.0  0.41725  0.59397  0.26833  1.0000
  S   S668      1.0  0.35792  0.77137  0.26895  1.0000
  H   H3912     1.0  0.30723  0.54066  0.28852  1.0000
  C   C2293     1.0  0.26483  0.71026  0.24719  1.0000
  H   H3913     1.0  0.38862  0.69598  0.37496  1.0000
  C   C2294     1.0  0.28130  0.68436  0.25948  1.0000
  N   N161      1.0  0.32516  0.62992  0.23157  1.0000
  C   C2295     1.0  0.45626  0.64398  0.26017  1.0000
  H   H3914     1.0  0.40629  0.78190  0.30745  1.0000
  H   H3915     1.0  0.35605  0.69716  0.40588  1.0000
  H   H3916     1.0  0.41673  0.73979  0.25801  1.0000
  C   C2296     1.0  0.26647  0.78431  0.27858  1.0000
  C   C2297     1.0  0.26116  0.79851  0.28013  1.0000
  H   H3917     1.0  0.36212  0.70586  0.42238  1.0000
  H   H3918     1.0  0.23890  0.62910  0.43811  1.0000
  C   C2298     1.0  0.29276  0.54471  0.30910  1.0000
  C   C2299     1.0  0.30098  0.51057  0.33866  1.0000
  C   C2300     1.0  0.41286  0.75363  0.23775  1.0000
  H   H3919     1.0  0.30484  0.53194  0.33020  1.0000
  H   H3920     1.0  0.38575  0.67736  0.40139  1.0000
  Fe  Fe330     1.0  0.28563  0.72785  0.27144  1.0000
  H   H3921     1.0  0.38905  0.71492  0.37036  1.0000
  C   C2301     1.0  0.43554  0.74732  0.24507  1.0000
  H   H3922     1.0  0.32396  0.73830  0.23959  1.0000
  C   C2302     1.0  0.32047  0.62295  0.42302  1.0000
  C   C2303     1.0  0.26285  0.59973  0.23372  1.0000
  C   C2304     1.0  0.31310  0.63270  0.24424  1.0000
  H   H3923     1.0  0.28560  0.67901  0.38993  1.0000
  C   C2305     1.0  0.47279  0.66997  0.28753  1.0000
  H   H3924     1.0  0.37507  0.71651  0.41720  1.0000
  Fe  Fe331     1.0  0.24243  0.51565  0.28837  1.0000
  H   H3925     1.0  0.46890  0.67489  0.25950  1.0000
  S   S669      1.0  0.30231  0.58896  0.23691  1.0000
  H   H3926     1.0  0.24318  0.61474  0.39625  1.0000
  H   H3927     1.0  0.40479  0.70153  0.37258  1.0000
  C   C2306     1.0  0.30673  0.54544  0.29754  1.0000
  C   C2307     1.0  0.41854  0.60144  0.25763  1.0000
  H   H3928     1.0  0.45490  0.60008  0.24665  1.0000
  H   H3929     1.0  0.33033  0.69880  0.26771  1.0000
  C   C2308     1.0  0.39345  0.78634  0.28409  1.0000
  H   H3930     1.0  0.32941  0.63599  0.44764  1.0000
  H   H3931     1.0  0.24434  0.75999  0.25675  1.0000
  H   H3932     1.0  0.36797  0.71635  0.24692  1.0000
  C   C2309     1.0  0.36705  0.69592  0.39907  1.0000
  H   H3933     1.0  0.30994  0.50126  0.33677  1.0000
  H   H3934     1.0  0.27677  0.83012  0.22829  1.0000
  C   C2310     1.0  0.26674  0.66490  0.37750  1.0000
  H   H3935     1.0  0.40787  0.60498  0.25490  1.0000
  H   H3936     1.0  0.26797  0.53778  0.32143  1.0000
  H   H3937     1.0  0.36931  0.67493  0.41418  1.0000
  C   C2311     1.0  0.24556  0.74933  0.25459  1.0000
  H   H3938     1.0  0.30414  0.64817  0.42100  1.0000
  H   H3939     1.0  0.25768  0.65954  0.38292  1.0000
  H   H3940     1.0  0.35363  0.62849  0.42539  1.0000
  S   S670      1.0  0.25363  0.59985  0.36733  1.0000
  H   H3941     1.0  0.25181  0.74954  0.24339  1.0000
  N   N162      1.0  0.40499  0.77302  0.28244  1.0000
  C   C2312     1.0  0.41754  0.77409  0.28751  1.0000
  C   C2313     1.0  0.41041  0.77156  0.26704  1.0000
  C   C2314     1.0  0.39994  0.75970  0.29169  1.0000
  C   C2315     1.0  0.41513  0.77324  0.30377  1.0000
  C   C2316     1.0  0.41568  0.78451  0.25622  1.0000
  C   C2317     1.0  0.39093  0.75327  0.28582  1.0000
  H   H3942     1.0  0.42702  0.76541  0.28480  1.0000
  H   H3943     1.0  0.42098  0.78435  0.28191  1.0000
  H   H3944     1.0  0.40231  0.76940  0.26270  1.0000
  H   H3945     1.0  0.41943  0.76206  0.26641  1.0000
  H   H3946     1.0  0.40927  0.75082  0.29386  1.0000
  C   C2318     1.0  0.45080  0.65929  0.32146  1.0000
  S   S671      1.0  0.26896  0.73808  0.28825  1.0000
  H   H3947     1.0  0.27834  0.70221  0.38510  1.0000
  H   H3948     1.0  0.40720  0.79446  0.25597  1.0000
  H   H3949     1.0  0.42180  0.70484  0.24988  1.0000
  C   C2319     1.0  0.32639  0.72676  0.23929  1.0000
  H   H3950     1.0  0.38726  0.74424  0.29427  1.0000
  H   H3951     1.0  0.39730  0.74863  0.27646  1.0000
  Fe  Fe332     1.0  0.28538  0.75037  0.28634  1.0000
  H   H3952     1.0  0.24405  0.69001  0.31061  1.0000
  H   H3953     1.0  0.30820  0.78077  0.26482  1.0000
  C   C2320     1.0  0.25642  0.66674  0.29988  1.0000
  H   H3954     1.0  0.33022  0.64730  0.40929  1.0000
  H   H3955     1.0  0.30934  0.60589  0.42647  1.0000
  N   N163      1.0  0.37453  0.70656  0.40056  1.0000
  C   C2321     1.0  0.28479  0.69741  0.25843  1.0000
  H   H3956     1.0  0.31357  0.78569  0.23869  1.0000
  H   H3957     1.0  0.34726  0.73748  0.39485  1.0000
  C   C2322     1.0  0.39305  0.70422  0.37681  1.0000
  C   C2323     1.0  0.27700  0.67514  0.39884  1.0000
  H   H3958     1.0  0.25610  0.64736  0.29392  1.0000
  H   H3959     1.0  0.36524  0.69824  0.38799  1.0000
  H   H3960     1.0  0.34973  0.64576  0.23767  1.0000
  N   N164      1.0  0.34437  0.70317  0.24679  1.0000
  H   H3961     1.0  0.39651  0.69406  0.39790  1.0000
  C   C2324     1.0  0.32559  0.62809  0.44440  1.0000
  C   C2325     1.0  0.27643  0.71034  0.25242  1.0000
  H   H3962     1.0  0.24677  0.58030  0.34644  1.0000
  H   H3963     1.0  0.26432  0.71110  0.37552  1.0000
  H   H3964     1.0  0.43539  0.64693  0.25591  1.0000
  C   C2326     1.0  0.27147  0.82091  0.23272  1.0000
  C   C2327     1.0  0.30924  0.61415  0.43210  1.0000
  H   H3965     1.0  0.37627  0.80040  0.27393  1.0000
  H   H3966     1.0  0.46278  0.64752  0.30502  1.0000
  H   H3967     1.0  0.36668  0.72185  0.38252  1.0000
  C   C2328     1.0  0.47089  0.64343  0.25430  1.0000
  Fe  Fe333     1.0  0.38862  0.66189  0.25378  1.0000
  H   H3968     1.0  0.35459  0.69935  0.26463  1.0000
  H   H3969     1.0  0.34481  0.61470  0.45158  1.0000
  H   H3970     1.0  0.25905  0.69343  0.31388  1.0000
  Fe  Fe334     1.0  0.27044  0.63556  0.45723  1.0000
  C   C2329     1.0  0.33351  0.64180  0.41962  1.0000
  H   H3971     1.0  0.29969  0.64027  0.43950  1.0000
  H   H3972     1.0  0.37083  0.59663  0.23981  1.0000
  C   C2330     1.0  0.27628  0.53198  0.32778  1.0000
  C   C2331     1.0  0.24972  0.80718  0.27398  1.0000
  H   H3973     1.0  0.46524  0.63879  0.32253  1.0000
  H   H3974     1.0  0.25634  0.66093  0.40635  1.0000
  H   H3975     1.0  0.38021  0.69486  0.43591  1.0000
  H   H3976     1.0  0.31146  0.60848  0.44282  1.0000
  H   H3977     1.0  0.47856  0.74108  0.33107  1.0000
  H   H3978     1.0  0.26909  0.59236  0.42935  1.0000
  H   H3979     1.0  0.24401  0.78314  0.25893  1.0000
  H   H3980     1.0  0.29233  0.55194  0.31605  1.0000
  H   H3981     1.0  0.43890  0.58785  0.25168  1.0000
  H   H3982     1.0  0.36173  0.68640  0.25381  1.0000
  C   C2332     1.0  0.30400  0.81550  0.23168  1.0000
  C   C2333     1.0  0.25219  0.67264  0.40584  1.0000
  H   H3983     1.0  0.37167  0.78418  0.28570  1.0000
  H   H3984     1.0  0.34459  0.71978  0.40311  1.0000
  H   H3985     1.0  0.27302  0.52171  0.33330  1.0000
  C   C2334     1.0  0.47738  0.66895  0.30140  1.0000
  H   H3986     1.0  0.38902  0.78645  0.29565  1.0000
  H   H3987     1.0  0.33476  0.65034  0.42413  1.0000
  C   C2335     1.0  0.24899  0.78754  0.26450  1.0000
  C   C2336     1.0  0.25282  0.59571  0.27644  1.0000
  H   H3988     1.0  0.24551  0.62311  0.41488  1.0000
  H   H3989     1.0  0.25848  0.72025  0.24237  1.0000
  H   H3990     1.0  0.45988  0.61649  0.23680  1.0000
  H   H3991     1.0  0.26445  0.76786  0.26946  1.0000
  H   H3992     1.0  0.39788  0.79621  0.27978  1.0000
  N   N165      1.0  0.26249  0.68119  0.39520  1.0000
  H   H3993     1.0  0.37195  0.74137  0.27359  1.0000
  H   H3994     1.0  0.27894  0.50501  0.32162  1.0000
  H   H3995     1.0  0.25928  0.56319  0.30111  1.0000
  C   C2337     1.0  0.34842  0.69978  0.23205  1.0000
  H   H3996     1.0  0.34083  0.62398  0.24479  1.0000
  S   S672      1.0  0.28790  0.62023  0.46755  1.0000
  S   S673      1.0  0.24164  0.49231  0.29116  1.0000
  C   C2338     1.0  0.46501  0.68395  0.23775  1.0000
  N   N166      1.0  0.47818  0.65457  0.31173  1.0000
  C   C2339     1.0  0.37318  0.70633  0.41616  1.0000
  C   C2340     1.0  0.44662  0.64652  0.25125  1.0000
  C   C2341     1.0  0.30815  0.64498  0.43111  1.0000
  C   C2342     1.0  0.47583  0.72425  0.32285  1.0000
  H   H3997     1.0  0.34010  0.60179  0.24517  1.0000
  H   H3998     1.0  0.28318  0.52671  0.30116  1.0000
  N   N167      1.0  0.33379  0.74585  0.32620  1.0000
  C   C2343     1.0  0.31774  0.75033  0.32807  1.0000
  C   C2344     1.0  0.33689  0.73887  0.34091  1.0000
  C   C2345     1.0  0.33924  0.73512  0.31665  1.0000
  C   C2346     1.0  0.33989  0.75906  0.31926  1.0000
  C   C2347     1.0  0.31206  0.75691  0.31415  1.0000
  C   C2348     1.0  0.33182  0.74849  0.35196  1.0000
  C   C2349     1.0  0.35358  0.72441  0.31808  1.0000
  C   C2350     1.0  0.35612  0.75724  0.31727  1.0000
  H   H3999     1.0  0.31277  0.74097  0.33377  1.0000
  H   H4000     1.0  0.31308  0.75845  0.33481  1.0000
  H   H4001     1.0  0.34844  0.73457  0.34043  1.0000
  H   H4002     1.0  0.33198  0.72931  0.34569  1.0000
  H   H4003     1.0  0.33137  0.72835  0.31851  1.0000
  H   H4004     1.0  0.34043  0.74079  0.30519  1.0000
  H   H4005     1.0  0.33789  0.76350  0.30821  1.0000
  H   H4006     1.0  0.33423  0.76803  0.32482  1.0000
  H   H4007     1.0  0.31478  0.76747  0.30863  1.0000
  H   H4008     1.0  0.31584  0.74959  0.30666  1.0000
  H   H4009     1.0  0.30020  0.75881  0.31694  1.0000
  H   H4010     1.0  0.33611  0.75837  0.34799  1.0000
  H   H4011     1.0  0.32000  0.75121  0.35535  1.0000
  H   H4012     1.0  0.33581  0.74244  0.36182  1.0000
  H   H4013     1.0  0.35246  0.71638  0.32843  1.0000
  H   H4014     1.0  0.36237  0.72964  0.31699  1.0000
  H   H4015     1.0  0.35690  0.71840  0.30938  1.0000
  H   H4016     1.0  0.36194  0.75379  0.30708  1.0000
  H   H4017     1.0  0.36055  0.74975  0.32630  1.0000
  H   H4018     1.0  0.35843  0.76769  0.31680  1.0000
  C   C2351     1.0  0.28034  0.80796  0.24155  1.0000
  H   H4019     1.0  0.34450  0.67465  0.26703  1.0000
  H   H4020     1.0  0.47167  0.66449  0.33002  1.0000
  C   C2352     1.0  0.29285  0.71874  0.46276  1.0000
  C   C2353     1.0  0.33668  0.67927  0.25999  1.0000
  H   H4021     1.0  0.31681  0.49675  0.23642  1.0000
  H   H4022     1.0  0.25751  0.66487  0.34642  1.0000
  H   H4023     1.0  0.27568  0.55118  0.33539  1.0000
  C   C2354     1.0  0.46625  0.64769  0.23050  1.0000
  H   H4024     1.0  0.26579  0.80278  0.28625  1.0000
  C   C2355     1.0  0.33953  0.71912  0.24578  1.0000
  H   H4025     1.0  0.25443  0.70906  0.29186  1.0000
  H   H4026     1.0  0.47468  0.68010  0.27985  1.0000
  H   H4027     1.0  0.27871  0.81027  0.25224  1.0000
  H   H4028     1.0  0.24673  0.70115  0.39289  1.0000
  C   C2356     1.0  0.33926  0.64632  0.23542  1.0000
  H   H4029     1.0  0.25361  0.60313  0.26572  1.0000
  S   S674      1.0  0.40195  0.67468  0.23540  1.0000
  H   H4030     1.0  0.28151  0.53435  0.34716  1.0000
  H   H4031     1.0  0.44937  0.71903  0.24032  1.0000
  Fe  Fe335     1.0  0.23967  0.67400  0.26463  1.0000
  N   N168      1.0  0.26267  0.67261  0.30869  1.0000
  H   H4032     1.0  0.26257  0.59504  0.28015  1.0000
  C   C2357     1.0  0.39006  0.70427  0.39289  1.0000
  H   H4033     1.0  0.28192  0.68574  0.46351  1.0000
  C   C2358     1.0  0.27867  0.66965  0.30320  1.0000
  C   C2359     1.0  0.25984  0.65023  0.30208  1.0000
  C   C2360     1.0  0.30287  0.52359  0.32590  1.0000
  C   C2361     1.0  0.48048  0.65617  0.32553  1.0000
  C   C2362     1.0  0.28736  0.67661  0.30887  1.0000
  H   H4034     1.0  0.45718  0.57780  0.23724  1.0000
  H   H4035     1.0  0.26513  0.71632  0.39130  1.0000
  C   C2363     1.0  0.38333  0.69422  0.42440  1.0000
  C   C2364     1.0  0.25876  0.66498  0.32423  1.0000
  C   C2365     1.0  0.35178  0.72708  0.40150  1.0000
  C   C2366     1.0  0.25591  0.68841  0.30694  1.0000
  H   H4036     1.0  0.28332  0.65794  0.30591  1.0000
  H   H4037     1.0  0.28164  0.67242  0.29125  1.0000
  C   C2367     1.0  0.25920  0.69760  0.29160  1.0000
  H   H4038     1.0  0.29950  0.61816  0.24486  1.0000
  H   H4039     1.0  0.25308  0.58480  0.27548  1.0000
  H   H4040     1.0  0.37347  0.72947  0.39273  1.0000
  H   H4041     1.0  0.44815  0.69087  0.26338  1.0000
  H   H4042     1.0  0.29739  0.50101  0.25201  1.0000
  H   H4043     1.0  0.29830  0.62090  0.43337  1.0000
  C   C2368     1.0  0.25718  0.69673  0.39612  1.0000
  C   C2369     1.0  0.37146  0.60376  0.22930  1.0000
  H   H4044     1.0  0.29021  0.66988  0.31904  1.0000
  H   H4045     1.0  0.28194  0.68751  0.31037  1.0000
  H   H4046     1.0  0.29741  0.67790  0.30079  1.0000
  N   N169      1.0  0.29093  0.52997  0.31794  1.0000
  H   H4047     1.0  0.27997  0.66332  0.40006  1.0000
  C   C2370     1.0  0.36723  0.72138  0.39369  1.0000
  H   H4048     1.0  0.31569  0.62648  0.45265  1.0000
  H   H4049     1.0  0.28547  0.48987  0.23667  1.0000
  C   C2371     1.0  0.48227  0.71110  0.31890  1.0000
  H   H4050     1.0  0.25470  0.69808  0.40738  1.0000
  H   H4051     1.0  0.23909  0.60904  0.42817  1.0000
  H   H4052     1.0  0.27083  0.69671  0.28737  1.0000
  C   C2372     1.0  0.42871  0.70352  0.25737  1.0000
  C   C2373     1.0  0.25888  0.67252  0.33582  1.0000
  Fe  Fe336     1.0  0.23916  0.54580  0.26951  1.0000
  C   C2374     1.0  0.28804  0.50065  0.23413  1.0000
  H   H4053     1.0  0.30953  0.82784  0.24351  1.0000
  C   C2375     1.0  0.24366  0.80176  0.26605  1.0000
  H   H4054     1.0  0.25382  0.68642  0.37608  1.0000
  C   C2376     1.0  0.29143  0.52113  0.30762  1.0000
  H   H4055     1.0  0.32265  0.69946  0.25367  1.0000
  H   H4056     1.0  0.27142  0.64542  0.30065  1.0000
  H   H4057     1.0  0.42260  0.69966  0.26829  1.0000
  Fe  Fe337     1.0  0.28813  0.63872  0.47630  1.0000
  H   H4058     1.0  0.24776  0.66309  0.32686  1.0000
  H   H4059     1.0  0.40180  0.75308  0.24020  1.0000
  H   H4060     1.0  0.28962  0.67279  0.41422  1.0000
  H   H4061     1.0  0.46128  0.67015  0.28962  1.0000
  H   H4062     1.0  0.39455  0.69551  0.42057  1.0000
  H   H4063     1.0  0.26315  0.54073  0.34616  1.0000
  C   C2377     1.0  0.44291  0.69249  0.25434  1.0000
  H   H4064     1.0  0.26872  0.57096  0.23407  1.0000
  N   N170      1.0  0.43411  0.60275  0.23192  1.0000
  C   C2378     1.0  0.29975  0.82499  0.24285  1.0000
  H   H4065     1.0  0.26919  0.59110  0.24072  1.0000
  H   H4066     1.0  0.31640  0.54054  0.30205  1.0000
  H   H4067     1.0  0.31690  0.56043  0.23311  1.0000
  H   H4068     1.0  0.32688  0.67515  0.26578  1.0000
  H   H4069     1.0  0.29389  0.69747  0.26228  1.0000
  H   H4070     1.0  0.33127  0.60519  0.45440  1.0000
  C   C2379     1.0  0.35739  0.69805  0.25331  1.0000
  H   H4071     1.0  0.45237  0.64245  0.27170  1.0000
  H   H4072     1.0  0.46181  0.70762  0.25044  1.0000
  H   H4073     1.0  0.35553  0.63983  0.40797  1.0000
  H   H4074     1.0  0.48710  0.64488  0.23475  1.0000
  H   H4075     1.0  0.29831  0.49873  0.31886  1.0000
  H   H4076     1.0  0.28615  0.76255  0.24086  1.0000
  H   H4077     1.0  0.33053  0.61509  0.42039  1.0000
  C   C2380     1.0  0.46454  0.64941  0.31489  1.0000
  H   H4078     1.0  0.34092  0.67524  0.24995  1.0000
  H   H4079     1.0  0.44140  0.65524  0.32167  1.0000
  S   S675      1.0  0.37200  0.79310  0.23042  1.0000
  H   H4080     1.0  0.30312  0.69522  0.45187  1.0000
  C   C2381     1.0  0.32993  0.60257  0.24224  1.0000
  H   H4081     1.0  0.30752  0.67622  0.45658  1.0000
  H   H4082     1.0  0.31224  0.79803  0.25707  1.0000
  H   H4083     1.0  0.37952  0.69916  0.25007  1.0000
  H   H4084     1.0  0.25408  0.64519  0.31275  1.0000
  H   H4085     1.0  0.29073  0.63247  0.25388  1.0000
  N   N171      1.0  0.45285  0.69661  0.24008  1.0000
  S   S676      1.0  0.38312  0.61942  0.23999  1.0000
  S   S677      1.0  0.26358  0.66839  0.25810  1.0000
  H   H4086     1.0  0.29392  0.79612  0.26528  1.0000
  H   H4087     1.0  0.47986  0.64625  0.33413  1.0000
  H   H4088     1.0  0.23815  0.73429  0.28256  1.0000
  H   H4089     1.0  0.32097  0.60320  0.25175  1.0000
  H   H4090     1.0  0.25448  0.69488  0.28410  1.0000
  C   C2382     1.0  0.23953  0.60147  0.28736  1.0000
  Fe  Fe338     1.0  0.24777  0.62376  0.36013  1.0000
  H   H4091     1.0  0.44932  0.67045  0.31508  1.0000
  H   H4092     1.0  0.44535  0.61672  0.25183  1.0000
  C   C2383     1.0  0.37012  0.70525  0.24537  1.0000
  C   C2384     1.0  0.30420  0.79164  0.25859  1.0000
  H   H4093     1.0  0.28322  0.51622  0.24771  1.0000
  S   S678      1.0  0.36041  0.69167  0.46716  1.0000
  H   H4094     1.0  0.33095  0.59231  0.23925  1.0000
  H   H4095     1.0  0.26026  0.68276  0.47652  1.0000
  H   H4096     1.0  0.24976  0.68189  0.33663  1.0000
  H   H4097     1.0  0.42538  0.78621  0.25826  1.0000
  H   H4098     1.0  0.26014  0.67097  0.28818  1.0000
  N   N172      1.0  0.29597  0.80376  0.23465  1.0000
  C   C2385     1.0  0.30356  0.68595  0.46114  1.0000
  C   C2386     1.0  0.24090  0.56876  0.33414  1.0000
  H   H4099     1.0  0.41324  0.61702  0.23202  1.0000
  H   H4100     1.0  0.42184  0.61074  0.25880  1.0000
  H   H4101     1.0  0.25108  0.67387  0.41692  1.0000
  C   C2387     1.0  0.48360  0.73097  0.32787  1.0000
  C   C2388     1.0  0.29376  0.75844  0.23161  1.0000
  C   C2389     1.0  0.45162  0.64827  0.23638  1.0000
  C   C2390     1.0  0.28721  0.50451  0.24840  1.0000
  H   H4102     1.0  0.34810  0.72469  0.23903  1.0000
  C   C2391     1.0  0.45056  0.61153  0.24255  1.0000
  H   H4103     1.0  0.24558  0.81812  0.27533  1.0000
  H   H4104     1.0  0.46087  0.67444  0.23845  1.0000
  H   H4105     1.0  0.44035  0.68192  0.25560  1.0000
  H   H4106     1.0  0.29493  0.81999  0.25390  1.0000
  C   C2392     1.0  0.33873  0.63125  0.23447  1.0000
  C   C2393     1.0  0.44022  0.61489  0.23235  1.0000
  H   H4107     1.0  0.31070  0.64413  0.24496  1.0000
  H   H4108     1.0  0.27973  0.49878  0.25715  1.0000
  C   C2394     1.0  0.24454  0.56355  0.32151  1.0000
  H   H4109     1.0  0.27866  0.50796  0.23006  1.0000
  H   H4110     1.0  0.47298  0.72328  0.22904  1.0000
  Fe  Fe339     1.0  0.41598  0.65343  0.23214  1.0000
  H   H4111     1.0  0.43141  0.62383  0.23567  1.0000
  H   H4112     1.0  0.27504  0.79880  0.24383  1.0000
  H   H4113     1.0  0.33081  0.65025  0.24425  1.0000
  C   C2395     1.0  0.32725  0.61504  0.22927  1.0000
  H   H4114     1.0  0.47989  0.68751  0.24872  1.0000
  H   H4115     1.0  0.42528  0.58475  0.24569  1.0000
  H   H4116     1.0  0.43020  0.68591  0.23681  1.0000
  H   H4117     1.0  0.31569  0.81085  0.23037  1.0000
  H   H4118     1.0  0.32532  0.70349  0.23097  1.0000
  H   H4119     1.0  0.30457  0.52250  0.23644  1.0000
  H   H4120     1.0  0.48356  0.67000  0.24539  1.0000
  H   H4121     1.0  0.29440  0.63633  0.23477  1.0000
  H   H4122     1.0  0.25580  0.70217  0.47039  1.0000
  C   C2396     1.0  0.27970  0.71178  0.46935  1.0000
  S   S679      1.0  0.25270  0.62992  0.47595  1.0000
  H   H4123     1.0  0.24366  0.59221  0.41610  1.0000
  H   H4124     1.0  0.24170  0.59567  0.29814  1.0000
  H   H4125     1.0  0.24455  0.67033  0.30209  1.0000
  H   H4126     1.0  0.23935  0.61296  0.28650  1.0000
  C   C2397     1.0  0.28862  0.68549  0.47087  1.0000
  H   H4127     1.0  0.26387  0.61004  0.23522  1.0000
  H   H4128     1.0  0.24319  0.58990  0.39915  1.0000
  H   H4129     1.0  0.31168  0.68582  0.46685  1.0000
  H   H4130     1.0  0.45250  0.75619  0.22954  1.0000
  H   H4131     1.0  0.30300  0.71209  0.46547  1.0000
  H   H4132     1.0  0.48312  0.70148  0.27936  1.0000
  H   H4133     1.0  0.37320  0.70516  0.23377  1.0000
  H   H4134     1.0  0.32866  0.66002  0.47611  1.0000
  H   H4135     1.0  0.39387  0.72010  0.23377  1.0000
  H   H4136     1.0  0.35631  0.68937  0.23206  1.0000
  S   S680      1.0  0.30874  0.64480  0.47477  1.0000
  S   S681      1.0  0.34406  0.78019  0.23311  1.0000
  C   C2398     1.0  0.44148  0.75529  0.23182  1.0000
  H   H4137     1.0  0.48715  0.64063  0.29652  1.0000
  H   H4138     1.0  0.43708  0.71092  0.22832  1.0000
  H   H4139     1.0  0.48678  0.62414  0.32145  1.0000
  C   C2399     1.0  0.31472  0.49264  0.22808  1.0000
  H   H4140     1.0  0.41273  0.72357  0.52066  1.0000
  C   C2400     1.0  0.35003  0.69291  0.70937  1.0000
  S   S682      1.0  0.27212  0.57971  0.66325  1.0000
  H   H4141     1.0  0.25999  0.49484  0.57929  1.0000
  Fe  Fe340     1.0  0.27858  0.54694  0.60356  1.0000
  S   S683      1.0  0.29137  0.56398  0.59535  1.0000
  Fe  Fe341     1.0  0.24136  0.77930  0.58087  1.0000
  Fe  Fe342     1.0  0.29803  0.52796  0.58373  1.0000
  S   S684      1.0  0.31249  0.54366  0.57373  1.0000
  S   S685      1.0  0.30570  0.50616  0.57767  1.0000
  Fe  Fe343     1.0  0.31035  0.54584  0.59614  1.0000
  S   S686      1.0  0.33031  0.54572  0.60272  1.0000
  Fe  Fe344     1.0  0.29236  0.56073  0.57364  1.0000
  S   S687      1.0  0.29134  0.58194  0.55759  1.0000
  S   S688      1.0  0.29753  0.52885  0.60628  1.0000
  S   S689      1.0  0.27788  0.54503  0.58172  1.0000
  Fe  Fe345     1.0  0.27029  0.61615  0.48701  1.0000
  H   H4142     1.0  0.24404  0.69987  0.65691  1.0000
  S   S690      1.0  0.26776  0.59468  0.50152  1.0000
  C   C2401     1.0  0.25721  0.70756  0.62485  1.0000
  Fe  Fe346     1.0  0.25577  0.64747  0.48417  1.0000
  H   H4143     1.0  0.27439  0.75623  0.69324  1.0000
  C   C2402     1.0  0.31875  0.55865  0.65238  1.0000
  S   S691      1.0  0.27204  0.63333  0.49652  1.0000
  C   C2403     1.0  0.37432  0.51278  0.65913  1.0000
  H   H4144     1.0  0.33197  0.50936  0.66810  1.0000
  C   C2404     1.0  0.31051  0.82740  0.71934  1.0000
  H   H4145     1.0  0.44147  0.63853  0.60234  1.0000
  Fe  Fe347     1.0  0.27326  0.76966  0.57844  1.0000
  S   S692      1.0  0.25983  0.77710  0.56195  1.0000
  S   S693      1.0  0.29315  0.77609  0.57817  1.0000
  H   H4146     1.0  0.30074  0.51753  0.64896  1.0000
  C   C2405     1.0  0.25526  0.73082  0.66094  1.0000
  Fe  Fe348     1.0  0.25783  0.75421  0.56735  1.0000
  S   S694      1.0  0.25888  0.74176  0.55122  1.0000
  S   S695      1.0  0.25490  0.77425  0.59685  1.0000
  S   S696      1.0  0.27309  0.74644  0.58207  1.0000
  C   C2406     1.0  0.37633  0.71563  0.55977  1.0000
  C   C2407     1.0  0.33016  0.60303  0.69926  1.0000
  H   H4147     1.0  0.25903  0.75558  0.68773  1.0000
  S   S697      1.0  0.26811  0.85751  0.71175  1.0000
  C   C2408     1.0  0.34571  0.51086  0.57039  1.0000
  H   H4148     1.0  0.47196  0.65118  0.60021  1.0000
  H   H4149     1.0  0.31469  0.58527  0.67312  1.0000
  H   H4150     1.0  0.26547  0.74720  0.66111  1.0000
  H   H4151     1.0  0.27464  0.59490  0.60474  1.0000
  C   C2409     1.0  0.27968  0.56486  0.64195  1.0000
  C   C2410     1.0  0.26432  0.72071  0.69206  1.0000
  C   C2411     1.0  0.26106  0.73830  0.66916  1.0000
  H   H4152     1.0  0.33832  0.58552  0.54505  1.0000
  Fe  Fe349     1.0  0.29416  0.77870  0.65334  1.0000
  S   S698      1.0  0.30271  0.79836  0.64162  1.0000
  S   S699      1.0  0.28518  0.76522  0.64509  1.0000
  Fe  Fe350     1.0  0.29909  0.77944  0.68163  1.0000
  S   S700      1.0  0.30867  0.79885  0.67253  1.0000
  S   S701      1.0  0.29475  0.76813  0.70462  1.0000
  Fe  Fe351     1.0  0.29047  0.80719  0.66112  1.0000
  S   S702      1.0  0.27426  0.82814  0.66057  1.0000
  Fe  Fe352     1.0  0.32012  0.78804  0.65396  1.0000
  S   S703      1.0  0.34308  0.78778  0.64200  1.0000
  S   S704      1.0  0.28031  0.78835  0.67158  1.0000
  S   S705      1.0  0.31220  0.76777  0.66440  1.0000
  Fe  Fe353     1.0  0.39958  0.73271  0.57273  1.0000
  S   S706      1.0  0.39468  0.71540  0.59211  1.0000
  S   S707      1.0  0.38636  0.74024  0.55548  1.0000
  Fe  Fe354     1.0  0.42571  0.73569  0.58228  1.0000
  S   S708      1.0  0.42219  0.71868  0.60247  1.0000
  Fe  Fe355     1.0  0.41831  0.70665  0.58841  1.0000
  S   S709      1.0  0.42881  0.68381  0.58707  1.0000
  Fe  Fe356     1.0  0.39881  0.72933  0.60426  1.0000
  S   S710      1.0  0.38334  0.73026  0.62572  1.0000
  S   S711      1.0  0.42305  0.72292  0.56806  1.0000
  S   S712      1.0  0.40246  0.74740  0.58502  1.0000
  H   H4153     1.0  0.31053  0.62349  0.68415  1.0000
  S   S713      1.0  0.36496  0.68552  0.71702  1.0000
  H   H4154     1.0  0.29710  0.67464  0.57492  1.0000
  H   H4155     1.0  0.30212  0.59632  0.59689  1.0000
  H   H4156     1.0  0.33064  0.62335  0.64336  1.0000
  H   H4157     1.0  0.26880  0.69790  0.54161  1.0000
  Fe  Fe357     1.0  0.44350  0.66944  0.67394  1.0000
  S   S714      1.0  0.44487  0.65075  0.69282  1.0000
  S   S715      1.0  0.43410  0.69273  0.67407  1.0000
  Fe  Fe358     1.0  0.46076  0.65162  0.65258  1.0000
  S   S716      1.0  0.46403  0.63148  0.66962  1.0000
  H   H4158     1.0  0.27636  0.72089  0.53519  1.0000
  Fe  Fe359     1.0  0.44054  0.63861  0.67881  1.0000
  S   S717      1.0  0.42559  0.62285  0.68694  1.0000
  Fe  Fe360     1.0  0.46814  0.64538  0.68190  1.0000
  S   S718      1.0  0.43716  0.65794  0.66098  1.0000
  S   S719      1.0  0.46688  0.66482  0.66391  1.0000
  Fe  Fe361     1.0  0.37728  0.59158  0.65419  1.0000
  S   S720      1.0  0.37372  0.57402  0.67400  1.0000
  S   S721      1.0  0.39178  0.60757  0.64901  1.0000
  Fe  Fe362     1.0  0.35311  0.58712  0.64289  1.0000
  S   S722      1.0  0.34794  0.56964  0.66195  1.0000
  S   S723      1.0  0.33764  0.59467  0.62800  1.0000
  Fe  Fe363     1.0  0.35036  0.58359  0.67488  1.0000
  S   S724      1.0  0.33294  0.58657  0.69455  1.0000
  Fe  Fe364     1.0  0.37157  0.56160  0.65901  1.0000
  S   S725      1.0  0.38023  0.53759  0.66116  1.0000
  S   S726      1.0  0.35390  0.60179  0.65605  1.0000
  S   S727      1.0  0.37690  0.57841  0.63893  1.0000
  C   C2412     1.0  0.33875  0.61276  0.69139  1.0000
  H   H4159     1.0  0.28044  0.82006  0.60965  1.0000
  C   C2413     1.0  0.33796  0.59860  0.56599  1.0000
  H   H4160     1.0  0.34724  0.61017  0.68243  1.0000
  H   H4161     1.0  0.32573  0.72428  0.70264  1.0000
  H   H4162     1.0  0.28545  0.66280  0.56375  1.0000
  C   C2414     1.0  0.41601  0.61879  0.67642  1.0000
  C   C2415     1.0  0.41148  0.62887  0.66469  1.0000
  C   C2416     1.0  0.40363  0.62540  0.65678  1.0000
  C   C2417     1.0  0.40023  0.61181  0.66044  1.0000
  C   C2418     1.0  0.40463  0.60177  0.67227  1.0000
  C   C2419     1.0  0.41238  0.60530  0.68027  1.0000
  H   H4163     1.0  0.41397  0.63937  0.66172  1.0000
  H   H4164     1.0  0.40027  0.63325  0.64766  1.0000
  H   H4165     1.0  0.40225  0.59122  0.67513  1.0000
  H   H4166     1.0  0.41575  0.59743  0.68938  1.0000
  C   C2420     1.0  0.45297  0.74725  0.59782  1.0000
  H   H4167     1.0  0.45198  0.61512  0.60607  1.0000
  C   C2421     1.0  0.42080  0.71310  0.70693  1.0000
  C   C2422     1.0  0.42589  0.71012  0.69317  1.0000
  C   C2423     1.0  0.42728  0.69631  0.69129  1.0000
  C   C2424     1.0  0.42306  0.68563  0.70308  1.0000
  H   H4168     1.0  0.24138  0.65108  0.70681  1.0000
  H   H4169     1.0  0.41997  0.72370  0.70843  1.0000
  H   H4170     1.0  0.42901  0.71844  0.68404  1.0000
  H   H4171     1.0  0.42370  0.67509  0.70163  1.0000
  H   H4172     1.0  0.39707  0.64105  0.70937  1.0000
  C   C2425     1.0  0.44054  0.67562  0.59868  1.0000
  H   H4173     1.0  0.26243  0.83553  0.62402  1.0000
  H   H4174     1.0  0.28998  0.63462  0.65680  1.0000
  H   H4175     1.0  0.45840  0.75103  0.61584  1.0000
  C   C2426     1.0  0.44632  0.67094  0.62197  1.0000
  C   C2427     1.0  0.43724  0.67828  0.61246  1.0000
  H   H4176     1.0  0.27882  0.62458  0.66972  1.0000
  C   C2428     1.0  0.45797  0.74499  0.58382  1.0000
  H   H4177     1.0  0.44374  0.67309  0.63256  1.0000
  H   H4178     1.0  0.42751  0.68578  0.61585  1.0000
  C   C2429     1.0  0.31084  0.76439  0.70993  1.0000
  C   C2430     1.0  0.31713  0.75022  0.71532  1.0000
  H   H4179     1.0  0.33067  0.49021  0.60052  1.0000
  C   C2431     1.0  0.46597  0.69738  0.62731  1.0000
  C   C2432     1.0  0.33056  0.77230  0.71284  1.0000
  C   C2433     1.0  0.31770  0.77543  0.70834  1.0000
  H   H4180     1.0  0.31201  0.74166  0.71616  1.0000
  H   H4181     1.0  0.24202  0.76083  0.71374  1.0000
  H   H4182     1.0  0.28871  0.79882  0.71019  1.0000
  H   H4183     1.0  0.31304  0.78638  0.70378  1.0000
  C   C2434     1.0  0.35387  0.77181  0.63709  1.0000
  C   C2435     1.0  0.35078  0.75845  0.64447  1.0000
  C   C2436     1.0  0.36003  0.74581  0.64097  1.0000
  C   C2437     1.0  0.37217  0.74644  0.62974  1.0000
  C   C2438     1.0  0.37520  0.75978  0.62220  1.0000
  C   C2439     1.0  0.36616  0.77243  0.62600  1.0000
  H   H4184     1.0  0.34153  0.75780  0.65319  1.0000
  H   H4185     1.0  0.35766  0.73551  0.64692  1.0000
  H   H4186     1.0  0.38461  0.76037  0.61359  1.0000
  H   H4187     1.0  0.36866  0.78273  0.62030  1.0000
  C   C2440     1.0  0.41308  0.69659  0.55497  1.0000
  C   C2441     1.0  0.26949  0.84970  0.69738  1.0000
  C   C2442     1.0  0.25794  0.85193  0.69104  1.0000
  C   C2443     1.0  0.25959  0.84559  0.67947  1.0000
  C   C2444     1.0  0.27255  0.83649  0.67466  1.0000
  C   C2445     1.0  0.28405  0.83424  0.68105  1.0000
  C   C2446     1.0  0.28260  0.84109  0.69215  1.0000
  H   H4188     1.0  0.24783  0.85872  0.69486  1.0000
  H   H4189     1.0  0.25075  0.84759  0.67438  1.0000
  H   H4190     1.0  0.29422  0.82766  0.67711  1.0000
  H   H4191     1.0  0.29170  0.83987  0.69657  1.0000
  H   H4192     1.0  0.26886  0.68445  0.49655  1.0000
  H   H4193     1.0  0.38195  0.50721  0.66583  1.0000
  H   H4194     1.0  0.26379  0.82299  0.60471  1.0000
  H   H4195     1.0  0.33191  0.73088  0.54087  1.0000
  H   H4196     1.0  0.43420  0.70310  0.52128  1.0000
  Fe  Fe365     1.0  0.24660  0.62944  0.66444  1.0000
  H   H4197     1.0  0.42835  0.61272  0.61482  1.0000
  H   H4198     1.0  0.33518  0.73609  0.72291  1.0000
  C   C2447     1.0  0.25470  0.61751  0.54520  1.0000
  C   C2448     1.0  0.36954  0.72325  0.53263  1.0000
  C   C2449     1.0  0.37495  0.73258  0.53714  1.0000
  C   C2450     1.0  0.37864  0.72869  0.55062  1.0000
  H   H4199     1.0  0.36736  0.72605  0.52200  1.0000
  H   H4200     1.0  0.37670  0.74266  0.52998  1.0000
  C   C2451     1.0  0.29223  0.77283  0.59659  1.0000
  C   C2452     1.0  0.28646  0.76134  0.60567  1.0000
  C   C2453     1.0  0.28428  0.75919  0.62053  1.0000
  C   C2454     1.0  0.28819  0.76834  0.62642  1.0000
  C   C2455     1.0  0.29436  0.77965  0.61739  1.0000
  C   C2456     1.0  0.29630  0.78198  0.60242  1.0000
  H   H4201     1.0  0.28344  0.75413  0.60130  1.0000
  H   H4202     1.0  0.27940  0.75049  0.62741  1.0000
  H   H4203     1.0  0.29734  0.78679  0.62187  1.0000
  H   H4204     1.0  0.30053  0.79104  0.59543  1.0000
  H   H4205     1.0  0.33577  0.78084  0.71184  1.0000
  H   H4206     1.0  0.34339  0.63321  0.68926  1.0000
  H   H4207     1.0  0.28523  0.73288  0.64848  1.0000
  C   C2457     1.0  0.27371  0.74265  0.53678  1.0000
  C   C2458     1.0  0.32552  0.61254  0.53898  1.0000
  H   H4208     1.0  0.25374  0.80270  0.68744  1.0000
  H   H4209     1.0  0.28467  0.71828  0.49242  1.0000
  H   H4210     1.0  0.39821  0.70790  0.53452  1.0000
  H   H4211     1.0  0.30186  0.76395  0.53807  1.0000
  H   H4212     1.0  0.41880  0.70025  0.51077  1.0000
  C   C2459     1.0  0.30115  0.65711  0.51253  1.0000
  C   C2460     1.0  0.30005  0.65096  0.50182  1.0000
  H   H4213     1.0  0.29345  0.65634  0.52268  1.0000
  H   H4214     1.0  0.29159  0.64539  0.50381  1.0000
  H   H4215     1.0  0.23925  0.84192  0.61953  1.0000
  C   C2461     1.0  0.33173  0.55922  0.61030  1.0000
  C   C2462     1.0  0.32032  0.57075  0.61301  1.0000
  C   C2463     1.0  0.32221  0.58172  0.61829  1.0000
  C   C2464     1.0  0.33535  0.58092  0.62137  1.0000
  C   C2465     1.0  0.34660  0.56920  0.61905  1.0000
  C   C2466     1.0  0.34484  0.55851  0.61335  1.0000
  H   H4216     1.0  0.31007  0.57121  0.61104  1.0000
  H   H4217     1.0  0.31340  0.59066  0.62030  1.0000
  H   H4218     1.0  0.35675  0.56847  0.62143  1.0000
  H   H4219     1.0  0.35373  0.54965  0.61134  1.0000
  C   C2467     1.0  0.28597  0.58413  0.54159  1.0000
  C   C2468     1.0  0.27754  0.57556  0.54041  1.0000
  C   C2469     1.0  0.27229  0.57859  0.52788  1.0000
  C   C2470     1.0  0.27552  0.59012  0.51653  1.0000
  C   C2471     1.0  0.28440  0.59829  0.51757  1.0000
  C   C2472     1.0  0.28949  0.59540  0.53011  1.0000
  H   H4220     1.0  0.27482  0.56681  0.54923  1.0000
  H   H4221     1.0  0.26555  0.57213  0.52706  1.0000
  H   H4222     1.0  0.28744  0.60679  0.50867  1.0000
  H   H4223     1.0  0.29613  0.60197  0.53091  1.0000
  C   C2473     1.0  0.26690  0.66733  0.68260  1.0000
  H   H4224     1.0  0.34695  0.59847  0.55637  1.0000
  N   N173      1.0  0.46033  0.67602  0.72293  1.0000
  S   S728      1.0  0.29642  0.67355  0.69997  1.0000
  C   C2474     1.0  0.36156  0.53496  0.64651  1.0000
  C   C2475     1.0  0.35469  0.52706  0.64185  1.0000
  H   H4225     1.0  0.35929  0.54654  0.64330  1.0000
  H   H4226     1.0  0.34707  0.53267  0.63516  1.0000
  C   C2476     1.0  0.30165  0.69513  0.57252  1.0000
  C   C2477     1.0  0.27143  0.49102  0.57802  1.0000
  C   C2478     1.0  0.27979  0.50001  0.57882  1.0000
  C   C2479     1.0  0.29463  0.49528  0.57691  1.0000
  H   H4227     1.0  0.46653  0.66364  0.70639  1.0000
  C   C2480     1.0  0.47282  0.70788  0.60115  1.0000
  H   H4228     1.0  0.27478  0.51066  0.58070  1.0000
  H   H4229     1.0  0.34309  0.75502  0.50201  1.0000
  C   C2481     1.0  0.42757  0.70570  0.53165  1.0000
  H   H4230     1.0  0.41858  0.61523  0.63211  1.0000
  H   H4231     1.0  0.47262  0.77621  0.58051  1.0000
  N   N174      1.0  0.30093  0.61644  0.67091  1.0000
  S   S729      1.0  0.25226  0.73658  0.62114  1.0000
  C   C2482     1.0  0.36789  0.63994  0.70140  1.0000
  H   H4232     1.0  0.32421  0.50948  0.59482  1.0000
  C   C2483     1.0  0.26779  0.60436  0.60895  1.0000
  S   S730      1.0  0.25750  0.64797  0.65651  1.0000
  C   C2484     1.0  0.33063  0.68934  0.70152  1.0000
  C   C2485     1.0  0.30998  0.65196  0.48866  1.0000
  H   H4233     1.0  0.31917  0.62304  0.53422  1.0000
  C   C2486     1.0  0.47260  0.74400  0.57744  1.0000
  C   C2487     1.0  0.46225  0.65869  0.60369  1.0000
  C   C2488     1.0  0.25822  0.65331  0.67165  1.0000
  C   C2489     1.0  0.37456  0.61476  0.70024  1.0000
  C   C2490     1.0  0.27837  0.73914  0.68200  1.0000
  C   C2491     1.0  0.32184  0.66562  0.49681  1.0000
  H   H4234     1.0  0.45051  0.59789  0.64379  1.0000
  C   C2492     1.0  0.26034  0.70704  0.69132  1.0000
  H   H4235     1.0  0.44559  0.66410  0.54473  1.0000
  C   C2493     1.0  0.33883  0.56789  0.56291  1.0000
  C   C2494     1.0  0.41769  0.68868  0.71680  1.0000
  H   H4236     1.0  0.45276  0.70037  0.60563  1.0000
  N   N175      1.0  0.37317  0.76262  0.67579  1.0000
  C   C2495     1.0  0.35705  0.76509  0.67889  1.0000
  C   C2496     1.0  0.37685  0.77718  0.67174  1.0000
  C   C2497     1.0  0.37784  0.75439  0.68957  1.0000
  C   C2498     1.0  0.37946  0.75432  0.66404  1.0000
  C   C2499     1.0  0.35069  0.75157  0.68317  1.0000
  C   C2500     1.0  0.37208  0.78744  0.65824  1.0000
  C   C2501     1.0  0.39403  0.74963  0.68885  1.0000
  C   C2502     1.0  0.48679  0.70838  0.61770  1.0000
  H   H4237     1.0  0.35207  0.77122  0.68755  1.0000
  H   H4238     1.0  0.35284  0.77179  0.66933  1.0000
  H   H4239     1.0  0.38845  0.77638  0.67008  1.0000
  H   H4240     1.0  0.37194  0.78285  0.68076  1.0000
  H   H4241     1.0  0.37323  0.76087  0.69796  1.0000
  H   H4242     1.0  0.37378  0.74439  0.69402  1.0000
  H   H4243     1.0  0.37930  0.74277  0.66847  1.0000
  H   H4244     1.0  0.37265  0.75808  0.65602  1.0000
  H   H4245     1.0  0.35224  0.74485  0.69381  1.0000
  H   H4246     1.0  0.33893  0.75506  0.68413  1.0000
  H   H4247     1.0  0.35483  0.74496  0.67496  1.0000
  C   C2503     1.0  0.38701  0.62281  0.71362  1.0000
  H   H4248     1.0  0.36047  0.79232  0.66065  1.0000
  H   H4249     1.0  0.37769  0.79645  0.65463  1.0000
  C   C2504     1.0  0.24311  0.62548  0.52470  1.0000
  C   C2505     1.0  0.24310  0.76772  0.72024  1.0000
  C   C2506     1.0  0.48509  0.81264  0.54997  1.0000
  C   C2507     1.0  0.25450  0.56990  0.65317  1.0000
  N   N176      1.0  0.37286  0.62495  0.70971  1.0000
  H   H4250     1.0  0.30932  0.69003  0.57968  1.0000
  H   H4251     1.0  0.25375  0.73816  0.65049  1.0000
  C   C2508     1.0  0.37771  0.64455  0.68672  1.0000
  C   C2509     1.0  0.45304  0.66580  0.59431  1.0000
  H   H4252     1.0  0.24038  0.82629  0.61373  1.0000
  C   C2510     1.0  0.29222  0.72637  0.65596  1.0000
  H   H4253     1.0  0.26024  0.63784  0.54455  1.0000
  H   H4254     1.0  0.29698  0.67995  0.55066  1.0000
  C   C2511     1.0  0.33080  0.58240  0.55539  1.0000
  H   H4255     1.0  0.29136  0.71306  0.67730  1.0000
  H   H4256     1.0  0.42035  0.67196  0.54360  1.0000
  H   H4257     1.0  0.36850  0.49803  0.60946  1.0000
  H   H4258     1.0  0.39583  0.68438  0.56229  1.0000
  C   C2512     1.0  0.32868  0.75990  0.52179  1.0000
  H   H4259     1.0  0.45921  0.69907  0.71621  1.0000
  H   H4260     1.0  0.31566  0.60637  0.58808  1.0000
  C   C2513     1.0  0.27897  0.68977  0.54069  1.0000
  H   H4261     1.0  0.31087  0.73551  0.56314  1.0000
  H   H4262     1.0  0.48217  0.79150  0.55116  1.0000
  N   N177      1.0  0.44105  0.61540  0.62814  1.0000
  H   H4263     1.0  0.39594  0.62069  0.70428  1.0000
  C   C2514     1.0  0.40564  0.69751  0.53316  1.0000
  H   H4264     1.0  0.26739  0.63145  0.52804  1.0000
  H   H4265     1.0  0.29866  0.72098  0.51638  1.0000
  H   H4266     1.0  0.34113  0.56002  0.55607  1.0000
  H   H4267     1.0  0.27761  0.82831  0.72488  1.0000
  H   H4268     1.0  0.42747  0.72845  0.52352  1.0000
  C   C2515     1.0  0.31740  0.60708  0.55440  1.0000
  C   C2516     1.0  0.26439  0.70940  0.58067  1.0000
  H   H4269     1.0  0.25322  0.70321  0.70170  1.0000
  H   H4270     1.0  0.40138  0.75865  0.66045  1.0000
  C   C2517     1.0  0.34415  0.58965  0.57928  1.0000
  C   C2518     1.0  0.24427  0.81367  0.70473  1.0000
  H   H4271     1.0  0.30031  0.78563  0.54616  1.0000
  C   C2519     1.0  0.35744  0.51201  0.64592  1.0000
  H   H4272     1.0  0.38038  0.59240  0.69870  1.0000
  C   C2520     1.0  0.28102  0.80005  0.72049  1.0000
  H   H4273     1.0  0.46611  0.62729  0.61546  1.0000
  H   H4274     1.0  0.27526  0.70608  0.50671  1.0000
  C   C2521     1.0  0.25741  0.66342  0.69562  1.0000
  H   H4275     1.0  0.29473  0.76543  0.51492  1.0000
  C   C2522     1.0  0.25412  0.61043  0.60288  1.0000
  C   C2523     1.0  0.29824  0.74315  0.51451  1.0000
  H   H4276     1.0  0.29925  0.81757  0.71061  1.0000
  H   H4277     1.0  0.36635  0.64822  0.70750  1.0000
  H   H4278     1.0  0.28502  0.69219  0.52944  1.0000
  H   H4279     1.0  0.28518  0.68465  0.58722  1.0000
  H   H4280     1.0  0.24707  0.78753  0.71973  1.0000
  H   H4281     1.0  0.27360  0.54376  0.68038  1.0000
  H   H4282     1.0  0.36481  0.61687  0.69600  1.0000
  H   H4283     1.0  0.27422  0.61271  0.60559  1.0000
  H   H4284     1.0  0.25822  0.77966  0.70526  1.0000
  C   C2524     1.0  0.24695  0.78206  0.71143  1.0000
  C   C2525     1.0  0.32391  0.70381  0.70087  1.0000
  H   H4285     1.0  0.41434  0.68044  0.72591  1.0000
  H   H4286     1.0  0.28743  0.73301  0.68719  1.0000
  C   C2526     1.0  0.39477  0.75532  0.65525  1.0000
  C   C2527     1.0  0.47702  0.74812  0.59869  1.0000
  H   H4287     1.0  0.43549  0.70525  0.53785  1.0000
  C   C2528     1.0  0.34200  0.75063  0.51376  1.0000
  H   H4288     1.0  0.35191  0.75105  0.51646  1.0000
  H   H4289     1.0  0.40014  0.70408  0.51217  1.0000
  C   C2529     1.0  0.27245  0.70596  0.56596  1.0000
  H   H4290     1.0  0.31703  0.60549  0.65520  1.0000
  H   H4291     1.0  0.43995  0.58721  0.62591  1.0000
  H   H4292     1.0  0.41299  0.72509  0.53835  1.0000
  H   H4293     1.0  0.30796  0.69617  0.56130  1.0000
  C   C2530     1.0  0.32181  0.73910  0.53996  1.0000
  H   H4294     1.0  0.42094  0.59106  0.62870  1.0000
  H   H4295     1.0  0.39919  0.74151  0.68220  1.0000
  H   H4296     1.0  0.37388  0.65618  0.68252  1.0000
  H   H4297     1.0  0.24472  0.72845  0.66701  1.0000
  C   C2531     1.0  0.25563  0.69502  0.62222  1.0000
  H   H4298     1.0  0.26245  0.72094  0.65803  1.0000
  C   C2532     1.0  0.47201  0.78745  0.58068  1.0000
  C   C2533     1.0  0.42997  0.59358  0.63135  1.0000
  Fe  Fe366     1.0  0.34924  0.69853  0.48821  1.0000
  C   C2534     1.0  0.29795  0.60266  0.68123  1.0000
  C   C2535     1.0  0.36731  0.50486  0.65458  1.0000
  S   S731      1.0  0.32532  0.70435  0.49304  1.0000
  H   H4299     1.0  0.36950  0.49328  0.65782  1.0000
  H   H4300     1.0  0.23939  0.68495  0.67065  1.0000
  H   H4301     1.0  0.28632  0.60383  0.68615  1.0000
  C   C2536     1.0  0.45881  0.66107  0.61761  1.0000
  C   C2537     1.0  0.28855  0.61554  0.65134  1.0000
  C   C2538     1.0  0.29092  0.75561  0.51958  1.0000
  H   H4302     1.0  0.31297  0.78535  0.52964  1.0000
  H   H4303     1.0  0.44476  0.63633  0.62706  1.0000
  H   H4304     1.0  0.37893  0.71256  0.57024  1.0000
  H   H4305     1.0  0.38351  0.48417  0.58535  1.0000
  H   H4306     1.0  0.40140  0.68800  0.57620  1.0000
  Fe  Fe367     1.0  0.32694  0.68899  0.51411  1.0000
  H   H4307     1.0  0.29902  0.58995  0.66557  1.0000
  H   H4308     1.0  0.26800  0.79549  0.64012  1.0000
  C   C2539     1.0  0.27689  0.55783  0.63294  1.0000
  C   C2540     1.0  0.28817  0.68968  0.55091  1.0000
  C   C2541     1.0  0.44343  0.60881  0.64322  1.0000
  S   S732      1.0  0.34782  0.50288  0.64023  1.0000
  C   C2542     1.0  0.26752  0.69447  0.48808  1.0000
  C   C2543     1.0  0.26951  0.68115  0.57173  1.0000
  H   H4309     1.0  0.43706  0.67508  0.55749  1.0000
  H   H4310     1.0  0.29048  0.56580  0.64088  1.0000
  H   H4311     1.0  0.33024  0.67133  0.49474  1.0000
  C   C2544     1.0  0.31038  0.76398  0.54327  1.0000
  C   C2545     1.0  0.25337  0.66422  0.51138  1.0000
  C   C2546     1.0  0.24557  0.69574  0.61452  1.0000
  Fe  Fe368     1.0  0.29625  0.69085  0.71041  1.0000
  H   H4312     1.0  0.32374  0.60896  0.66818  1.0000
  C   C2547     1.0  0.31095  0.77981  0.54113  1.0000
  C   C2548     1.0  0.44942  0.61740  0.65011  1.0000
  C   C2549     1.0  0.33304  0.74903  0.56108  1.0000
  H   H4313     1.0  0.30627  0.76022  0.55494  1.0000
  C   C2550     1.0  0.48219  0.68448  0.72478  1.0000
  H   H4314     1.0  0.31059  0.72264  0.55376  1.0000
  H   H4315     1.0  0.26483  0.74255  0.70307  1.0000
  H   H4316     1.0  0.32382  0.75642  0.56634  1.0000
  H   H4317     1.0  0.34259  0.74921  0.56463  1.0000
  H   H4318     1.0  0.33155  0.73786  0.56477  1.0000
  C   C2551     1.0  0.41956  0.72154  0.52845  1.0000
  H   H4319     1.0  0.43132  0.67914  0.52736  1.0000
  H   H4320     1.0  0.34122  0.73931  0.51572  1.0000
  C   C2552     1.0  0.28366  0.53629  0.67653  1.0000
  S   S733      1.0  0.44632  0.74400  0.57369  1.0000
  N   N178      1.0  0.27166  0.72919  0.67818  1.0000
  H   H4321     1.0  0.28843  0.63750  0.69702  1.0000
  H   H4322     1.0  0.31404  0.52799  0.68998  1.0000
  H   H4323     1.0  0.43317  0.60722  0.65087  1.0000
  H   H4324     1.0  0.30212  0.69588  0.48468  1.0000
  H   H4325     1.0  0.29132  0.68512  0.49739  1.0000
  C   C2553     1.0  0.32094  0.65917  0.48626  1.0000
  C   C2554     1.0  0.30788  0.60139  0.58621  1.0000
  H   H4326     1.0  0.32011  0.58026  0.58446  1.0000
  H   H4327     1.0  0.37452  0.78216  0.64911  1.0000
  H   H4328     1.0  0.29863  0.73309  0.65755  1.0000
  H   H4329     1.0  0.42879  0.65132  0.61163  1.0000
  C   C2555     1.0  0.27887  0.75526  0.53100  1.0000
  H   H4330     1.0  0.30334  0.60017  0.69036  1.0000
  C   C2556     1.0  0.42909  0.60994  0.62630  1.0000
  H   H4331     1.0  0.31381  0.61649  0.55952  1.0000
  C   C2557     1.0  0.40892  0.69672  0.51721  1.0000
  H   H4332     1.0  0.25449  0.70877  0.68285  1.0000
  H   H4333     1.0  0.36857  0.59523  0.71523  1.0000
  C   C2558     1.0  0.25864  0.58664  0.58739  1.0000
  H   H4334     1.0  0.30108  0.63773  0.67272  1.0000
  Fe  Fe369     1.0  0.25337  0.59729  0.66896  1.0000
  H   H4335     1.0  0.46073  0.68554  0.69144  1.0000
  H   H4336     1.0  0.33609  0.61431  0.53871  1.0000
  H   H4337     1.0  0.27125  0.71715  0.70004  1.0000
  H   H4338     1.0  0.35177  0.62076  0.71973  1.0000
  C   C2559     1.0  0.26953  0.81786  0.61356  1.0000
  H   H4339     1.0  0.40061  0.74461  0.65305  1.0000
  C   C2560     1.0  0.28789  0.62874  0.69237  1.0000
  C   C2561     1.0  0.25706  0.69319  0.47982  1.0000
  H   H4340     1.0  0.46020  0.64177  0.71958  1.0000
  H   H4341     1.0  0.33244  0.56331  0.57338  1.0000
  C   C2562     1.0  0.29077  0.68566  0.57570  1.0000
  H   H4342     1.0  0.24722  0.82388  0.69824  1.0000
  H   H4343     1.0  0.44130  0.62697  0.65287  1.0000
  C   C2563     1.0  0.43641  0.63152  0.62602  1.0000
  H   H4344     1.0  0.33921  0.50263  0.57515  1.0000
  Fe  Fe370     1.0  0.25384  0.75146  0.59945  1.0000
  H   H4345     1.0  0.26639  0.66541  0.52485  1.0000
  H   H4346     1.0  0.27781  0.65916  0.58274  1.0000
  C   C2564     1.0  0.33680  0.75808  0.71839  1.0000
  N   N179      1.0  0.24702  0.82202  0.63381  1.0000
  S   S734      1.0  0.25496  0.61188  0.68172  1.0000
  C   C2565     1.0  0.25667  0.79565  0.64561  1.0000
  H   H4347     1.0  0.25108  0.59085  0.58011  1.0000
  H   H4348     1.0  0.33841  0.51946  0.67664  1.0000
  H   H4349     1.0  0.27753  0.63183  0.68911  1.0000
  H   H4350     1.0  0.24665  0.68301  0.65235  1.0000
  C   C2566     1.0  0.33017  0.74706  0.71938  1.0000
  H   H4351     1.0  0.34885  0.71463  0.71032  1.0000
  H   H4352     1.0  0.29973  0.60982  0.58114  1.0000
  S   S735      1.0  0.35169  0.71625  0.49696  1.0000
  H   H4353     1.0  0.44861  0.71581  0.62119  1.0000
  H   H4354     1.0  0.35214  0.48527  0.58767  1.0000
  S   S736      1.0  0.27395  0.69174  0.72354  1.0000
  H   H4355     1.0  0.24880  0.62065  0.60653  1.0000
  H   H4356     1.0  0.47622  0.61256  0.60750  1.0000
  H   H4357     1.0  0.39440  0.76256  0.64450  1.0000
  H   H4358     1.0  0.42307  0.63664  0.60997  1.0000
  Fe  Fe371     1.0  0.32769  0.72054  0.50352  1.0000
  H   H4359     1.0  0.45916  0.62100  0.64337  1.0000
  H   H4360     1.0  0.26172  0.70318  0.49393  1.0000
  C   C2567     1.0  0.33668  0.62575  0.69540  1.0000
  H   H4361     1.0  0.47656  0.74218  0.56664  1.0000
  N   N180      1.0  0.28193  0.69713  0.47925  1.0000
  H   H4362     1.0  0.26401  0.68172  0.58300  1.0000
  H   H4363     1.0  0.27127  0.70645  0.58853  1.0000
  H   H4364     1.0  0.29372  0.69875  0.54577  1.0000
  C   C2568     1.0  0.48213  0.74530  0.58492  1.0000
  H   H4365     1.0  0.25743  0.61374  0.59098  1.0000
  H   H4366     1.0  0.34584  0.74614  0.54064  1.0000
  Fe  Fe372     1.0  0.35076  0.70047  0.51831  1.0000
  C   C2569     1.0  0.33595  0.75371  0.54463  1.0000
  H   H4367     1.0  0.27984  0.71343  0.56085  1.0000
  H   H4368     1.0  0.24090  0.56212  0.64495  1.0000
  C   C2570     1.0  0.34384  0.70758  0.70777  1.0000
  H   H4369     1.0  0.24968  0.82102  0.65505  1.0000
  H   H4370     1.0  0.42202  0.69677  0.55950  1.0000
  H   H4371     1.0  0.28159  0.60769  0.65645  1.0000
  H   H4372     1.0  0.31878  0.78097  0.54652  1.0000
  C   C2571     1.0  0.45716  0.69031  0.71269  1.0000
  C   C2572     1.0  0.28057  0.73048  0.53109  1.0000
  H   H4373     1.0  0.25135  0.84604  0.64251  1.0000
  C   C2573     1.0  0.44013  0.67524  0.54583  1.0000
  H   H4374     1.0  0.33886  0.76435  0.54154  1.0000
  C   C2574     1.0  0.33081  0.71307  0.70336  1.0000
  C   C2575     1.0  0.26718  0.66240  0.67053  1.0000
  H   H4375     1.0  0.40564  0.70714  0.55556  1.0000
  H   H4376     1.0  0.35592  0.58856  0.57651  1.0000
  C   C2576     1.0  0.29307  0.73058  0.52031  1.0000
  S   S737      1.0  0.47029  0.65149  0.62929  1.0000
  H   H4377     1.0  0.31313  0.80536  0.71813  1.0000
  H   H4378     1.0  0.45871  0.71906  0.63210  1.0000
  H   H4379     1.0  0.32167  0.58026  0.55250  1.0000
  H   H4380     1.0  0.25327  0.61394  0.55708  1.0000
  C   C2577     1.0  0.46525  0.69104  0.69692  1.0000
  H   H4381     1.0  0.27988  0.71071  0.66811  1.0000
  C   C2578     1.0  0.45435  0.71089  0.63007  1.0000
  S   S738      1.0  0.24656  0.61485  0.65081  1.0000
  C   C2579     1.0  0.32624  0.62893  0.70747  1.0000
  H   H4382     1.0  0.24789  0.80300  0.62659  1.0000
  H   H4383     1.0  0.25993  0.72113  0.57927  1.0000
  C   C2580     1.0  0.30287  0.58887  0.67530  1.0000
  H   H4384     1.0  0.35710  0.64121  0.69948  1.0000
  C   C2581     1.0  0.31724  0.61947  0.71506  1.0000
  N   N181      1.0  0.39146  0.69598  0.66790  1.0000
  C   C2582     1.0  0.38670  0.68363  0.67940  1.0000
  C   C2583     1.0  0.37969  0.70328  0.65982  1.0000
  C   C2584     1.0  0.39423  0.70676  0.67428  1.0000
  C   C2585     1.0  0.40514  0.69018  0.65818  1.0000
  C   C2586     1.0  0.39622  0.67612  0.69042  1.0000
  C   C2587     1.0  0.37822  0.69533  0.64918  1.0000
  C   C2588     1.0  0.38154  0.71324  0.68519  1.0000
  C   C2589     1.0  0.41160  0.70136  0.64559  1.0000
  H   H4385     1.0  0.37568  0.68706  0.68563  1.0000
  H   H4386     1.0  0.38606  0.67517  0.67443  1.0000
  H   H4387     1.0  0.38083  0.71428  0.65383  1.0000
  H   H4388     1.0  0.36909  0.70497  0.66740  1.0000
  H   H4389     1.0  0.40343  0.70206  0.67957  1.0000
  H   H4390     1.0  0.39744  0.71596  0.66571  1.0000
  H   H4391     1.0  0.41362  0.68487  0.66435  1.0000
  H   H4392     1.0  0.40411  0.68136  0.65391  1.0000
  H   H4393     1.0  0.40722  0.67119  0.68539  1.0000
  H   H4394     1.0  0.39656  0.68342  0.69691  1.0000
  H   H4395     1.0  0.39149  0.66731  0.69816  1.0000
  H   H4396     1.0  0.38738  0.69534  0.63977  1.0000
  H   H4397     1.0  0.37704  0.68418  0.65439  1.0000
  H   H4398     1.0  0.36849  0.70110  0.64490  1.0000
  H   H4399     1.0  0.38489  0.72104  0.68894  1.0000
  H   H4400     1.0  0.37838  0.70500  0.69479  1.0000
  H   H4401     1.0  0.37213  0.71905  0.68046  1.0000
  H   H4402     1.0  0.41941  0.70533  0.64872  1.0000
  H   H4403     1.0  0.40351  0.71071  0.64176  1.0000
  H   H4404     1.0  0.41712  0.69639  0.63623  1.0000
  N   N182      1.0  0.31094  0.53532  0.66817  1.0000
  C   C2590     1.0  0.32111  0.54524  0.66459  1.0000
  C   C2591     1.0  0.31483  0.52344  0.68064  1.0000
  C   C2592     1.0  0.29611  0.54388  0.67294  1.0000
  C   C2593     1.0  0.31217  0.53002  0.65490  1.0000
  C   C2594     1.0  0.32991  0.51378  0.67772  1.0000
  C   C2595     1.0  0.26210  0.82395  0.62716  1.0000
  C   C2596     1.0  0.30703  0.51605  0.65712  1.0000
  H   H4405     1.0  0.32085  0.54904  0.67424  1.0000
  H   H4406     1.0  0.33230  0.53952  0.66119  1.0000
  H   H4407     1.0  0.26239  0.68478  0.62591  1.0000
  H   H4408     1.0  0.31255  0.63214  0.64316  1.0000
  C   C2597     1.0  0.31517  0.58984  0.57726  1.0000
  H   H4409     1.0  0.29345  0.55346  0.66450  1.0000
  H   H4410     1.0  0.30627  0.53849  0.64731  1.0000
  H   H4411     1.0  0.32353  0.52803  0.64894  1.0000
  H   H4412     1.0  0.48046  0.67867  0.61083  1.0000
  C   C2598     1.0  0.25562  0.66738  0.52335  1.0000
  H   H4413     1.0  0.24633  0.69338  0.48713  1.0000
  H   H4414     1.0  0.46396  0.70243  0.69101  1.0000
  H   H4415     1.0  0.29640  0.70592  0.57479  1.0000
  C   C2599     1.0  0.43228  0.63971  0.61158  1.0000
  H   H4416     1.0  0.24337  0.57925  0.60604  1.0000
  H   H4417     1.0  0.30020  0.51263  0.66770  1.0000
  H   H4418     1.0  0.25301  0.80807  0.71048  1.0000
  N   N183      1.0  0.35487  0.50340  0.59420  1.0000
  C   C2600     1.0  0.36631  0.50630  0.59963  1.0000
  H   H4419     1.0  0.32546  0.68218  0.69935  1.0000
  C   C2601     1.0  0.34166  0.50376  0.60614  1.0000
  C   C2602     1.0  0.35212  0.51479  0.58097  1.0000
  C   C2603     1.0  0.36330  0.52114  0.60324  1.0000
  H   H4420     1.0  0.48471  0.80175  0.58001  1.0000
  C   C2604     1.0  0.32854  0.50077  0.60324  1.0000
  C   C2605     1.0  0.24402  0.67300  0.53341  1.0000
  S   S739      1.0  0.48610  0.63773  0.69420  1.0000
  H   H4421     1.0  0.37658  0.50561  0.59154  1.0000
  H   H4422     1.0  0.29990  0.71791  0.65068  1.0000
  H   H4423     1.0  0.34848  0.67255  0.70692  1.0000
  H   H4424     1.0  0.34411  0.49585  0.61600  1.0000
  H   H4425     1.0  0.33788  0.51438  0.60908  1.0000
  H   H4426     1.0  0.34495  0.52475  0.58410  1.0000
  H   H4427     1.0  0.36232  0.51787  0.57452  1.0000
  H   H4428     1.0  0.35436  0.52245  0.61265  1.0000
  H   H4429     1.0  0.37281  0.52218  0.60627  1.0000
  H   H4430     1.0  0.36121  0.53009  0.59398  1.0000
  H   H4431     1.0  0.39942  0.75878  0.68515  1.0000
  N   N184      1.0  0.28023  0.69058  0.56609  1.0000
  H   H4432     1.0  0.30140  0.48604  0.61380  1.0000
  H   H4433     1.0  0.47679  0.68635  0.69603  1.0000
  H   H4434     1.0  0.46062  0.68933  0.62645  1.0000
  H   H4435     1.0  0.30920  0.62184  0.72446  1.0000
  H   H4436     1.0  0.24737  0.63535  0.51954  1.0000
  S   S740      1.0  0.24748  0.67606  0.54851  1.0000
  C   C2606     1.0  0.46249  0.70142  0.59708  1.0000
  N   N185      1.0  0.33819  0.75038  0.60616  1.0000
  C   C2607     1.0  0.34187  0.73743  0.61779  1.0000
  C   C2608     1.0  0.34974  0.74947  0.59271  1.0000
  C   C2609     1.0  0.32419  0.75097  0.60279  1.0000
  C   C2610     1.0  0.33683  0.76371  0.61132  1.0000
  C   C2611     1.0  0.33072  0.73635  0.63219  1.0000
  C   C2612     1.0  0.36470  0.75002  0.59372  1.0000
  C   C2613     1.0  0.32246  0.73705  0.60006  1.0000
  C   C2614     1.0  0.33552  0.77795  0.59996  1.0000
  H   H4437     1.0  0.34395  0.72732  0.61404  1.0000
  H   H4438     1.0  0.35203  0.73722  0.62042  1.0000
  H   H4439     1.0  0.34674  0.75818  0.58352  1.0000
  H   H4440     1.0  0.35118  0.73929  0.58936  1.0000
  H   H4441     1.0  0.31511  0.75402  0.61160  1.0000
  H   H4442     1.0  0.32236  0.75951  0.59308  1.0000
  H   H4443     1.0  0.32724  0.76520  0.62022  1.0000
  H   H4444     1.0  0.34603  0.76272  0.61602  1.0000
  H   H4445     1.0  0.33426  0.72608  0.63961  1.0000
  H   H4446     1.0  0.32983  0.74507  0.63757  1.0000
  H   H4447     1.0  0.31999  0.73641  0.63100  1.0000
  H   H4448     1.0  0.36481  0.75964  0.59719  1.0000
  H   H4449     1.0  0.36948  0.74022  0.60089  1.0000
  H   H4450     1.0  0.37184  0.75041  0.58288  1.0000
  H   H4451     1.0  0.32161  0.72851  0.61001  1.0000
  H   H4452     1.0  0.33118  0.73294  0.59156  1.0000
  H   H4453     1.0  0.31232  0.73935  0.59642  1.0000
  H   H4454     1.0  0.34552  0.77851  0.59164  1.0000
  H   H4455     1.0  0.33347  0.78696  0.60537  1.0000
  H   H4456     1.0  0.32651  0.77986  0.59474  1.0000
  H   H4457     1.0  0.45561  0.66371  0.58365  1.0000
  H   H4458     1.0  0.37717  0.63900  0.67867  1.0000
  H   H4459     1.0  0.34230  0.57865  0.58333  1.0000
  H   H4460     1.0  0.40971  0.68564  0.51625  1.0000
  H   H4461     1.0  0.38741  0.59547  0.71202  1.0000
  H   H4462     1.0  0.24964  0.78259  0.68317  1.0000
  H   H4463     1.0  0.25919  0.58031  0.60988  1.0000
  N   N186      1.0  0.32413  0.75410  0.53773  1.0000
  H   H4464     1.0  0.26242  0.66014  0.50357  1.0000
  H   H4465     1.0  0.31882  0.73787  0.53045  1.0000
  C   C2615     1.0  0.25113  0.58627  0.60331  1.0000
  H   H4466     1.0  0.26994  0.69822  0.68996  1.0000
  C   C2616     1.0  0.24869  0.65416  0.69674  1.0000
  H   H4467     1.0  0.42699  0.63442  0.63464  1.0000
  H   H4468     1.0  0.45887  0.70875  0.58743  1.0000
  H   H4469     1.0  0.34018  0.59540  0.58824  1.0000
  C   C2617     1.0  0.48715  0.68532  0.61211  1.0000
  H   H4470     1.0  0.25484  0.79764  0.65647  1.0000
  H   H4471     1.0  0.47645  0.81611  0.54388  1.0000
  H   H4472     1.0  0.45205  0.61055  0.66038  1.0000
  H   H4473     1.0  0.45719  0.59909  0.61849  1.0000
  H   H4474     1.0  0.46557  0.78903  0.59145  1.0000
  H   H4475     1.0  0.29347  0.70552  0.50556  1.0000
  H   H4476     1.0  0.27412  0.66580  0.66031  1.0000
  C   C2618     1.0  0.30415  0.81466  0.72009  1.0000
  H   H4477     1.0  0.46604  0.79486  0.57263  1.0000
  C   C2619     1.0  0.26849  0.57093  0.65206  1.0000
  Fe  Fe373     1.0  0.27511  0.67267  0.71504  1.0000
  H   H4478     1.0  0.44623  0.70773  0.63989  1.0000
  C   C2620     1.0  0.29080  0.69579  0.48982  1.0000
  H   H4479     1.0  0.42866  0.58988  0.64317  1.0000
  C   C2621     1.0  0.26289  0.55705  0.63383  1.0000
  S   S741      1.0  0.30616  0.70969  0.69897  1.0000
  H   H4480     1.0  0.33469  0.60990  0.56736  1.0000
  C   C2622     1.0  0.46245  0.74890  0.60516  1.0000
  H   H4481     1.0  0.41256  0.67434  0.56722  1.0000
  N   N187      1.0  0.32560  0.59432  0.56350  1.0000
  H   H4482     1.0  0.31998  0.50063  0.61318  1.0000
  N   N188      1.0  0.41836  0.69495  0.53961  1.0000
  C   C2623     1.0  0.45418  0.61095  0.61704  1.0000
  H   H4483     1.0  0.46774  0.69089  0.59422  1.0000
  S   S742      1.0  0.31256  0.67318  0.52303  1.0000
  S   S743      1.0  0.32684  0.70581  0.52527  1.0000
  C   C2624     1.0  0.23953  0.66674  0.50933  1.0000
  H   H4484     1.0  0.31826  0.55595  0.64247  1.0000
  C   C2625     1.0  0.37140  0.52787  0.65519  1.0000
  C   C2626     1.0  0.28554  0.70720  0.49902  1.0000
  C   C2627     1.0  0.48683  0.79064  0.57857  1.0000
  H   H4485     1.0  0.44175  0.74811  0.60283  1.0000
  C   C2628     1.0  0.31196  0.66458  0.50998  1.0000
  H   H4486     1.0  0.29919  0.73999  0.55079  1.0000
  H   H4487     1.0  0.39573  0.74431  0.69988  1.0000
  H   H4488     1.0  0.26064  0.68509  0.56592  1.0000
  C   C2629     1.0  0.28948  0.62332  0.66239  1.0000
  H   H4489     1.0  0.28562  0.55301  0.62533  1.0000
  H   H4490     1.0  0.28311  0.74643  0.67224  1.0000
  H   H4491     1.0  0.26734  0.59262  0.58373  1.0000
  H   H4492     1.0  0.26535  0.60154  0.62087  1.0000
  H   H4493     1.0  0.34931  0.56863  0.56408  1.0000
  C   C2630     1.0  0.30079  0.62681  0.67961  1.0000
  C   C2631     1.0  0.31564  0.61367  0.66141  1.0000
  H   H4494     1.0  0.32146  0.63476  0.65564  1.0000
  H   H4495     1.0  0.31247  0.59901  0.71700  1.0000
  S   S744      1.0  0.31438  0.74300  0.50168  1.0000
  H   H4496     1.0  0.27360  0.67456  0.68169  1.0000
  S   S745      1.0  0.25513  0.67096  0.71025  1.0000
  C   C2632     1.0  0.30996  0.73420  0.55275  1.0000
  H   H4497     1.0  0.33126  0.77060  0.51954  1.0000
  H   H4498     1.0  0.30916  0.56684  0.65569  1.0000
  H   H4499     1.0  0.32797  0.56383  0.64949  1.0000
  H   H4500     1.0  0.38329  0.61642  0.69060  1.0000
  H   H4501     1.0  0.30747  0.60467  0.55343  1.0000
  S   S746      1.0  0.35076  0.68218  0.50894  1.0000
  C   C2633     1.0  0.27558  0.66500  0.57202  1.0000
  H   H4502     1.0  0.27343  0.76480  0.53513  1.0000
  H   H4503     1.0  0.32675  0.60518  0.53190  1.0000
  H   H4504     1.0  0.27083  0.80607  0.61570  1.0000
  C   C2634     1.0  0.37095  0.70633  0.55526  1.0000
  C   C2635     1.0  0.36771  0.70997  0.54161  1.0000
  H   H4505     1.0  0.38896  0.64273  0.68753  1.0000
  H   H4506     1.0  0.27495  0.62279  0.54336  1.0000
  H   H4507     1.0  0.29854  0.58010  0.68359  1.0000
  H   H4508     1.0  0.29550  0.54808  0.68247  1.0000
  C   C2636     1.0  0.26838  0.74886  0.69210  1.0000
  H   H4509     1.0  0.31978  0.76155  0.51638  1.0000
  C   C2637     1.0  0.36003  0.48844  0.59141  1.0000
  C   C2638     1.0  0.40531  0.68507  0.56554  1.0000
  H   H4510     1.0  0.25434  0.72755  0.69707  1.0000
  S   S747      1.0  0.25916  0.54992  0.62132  1.0000
  Fe  Fe374     1.0  0.24623  0.86783  0.72290  1.0000
  H   H4511     1.0  0.26763  0.66048  0.56975  1.0000
  H   H4512     1.0  0.27666  0.67902  0.54257  1.0000
  H   H4513     1.0  0.36954  0.69608  0.56229  1.0000
  H   H4514     1.0  0.44807  0.68204  0.54047  1.0000
  H   H4515     1.0  0.47200  0.60983  0.62655  1.0000
  H   H4516     1.0  0.28465  0.52652  0.68522  1.0000
  H   H4517     1.0  0.30652  0.58639  0.57494  1.0000
  H   H4518     1.0  0.33850  0.52061  0.56555  1.0000
  S   S748      1.0  0.36303  0.69692  0.53578  1.0000
  C   C2639     1.0  0.46776  0.61555  0.61680  1.0000
  C   C2640     1.0  0.42711  0.68007  0.53878  1.0000
  H   H4519     1.0  0.39897  0.68950  0.53903  1.0000
  H   H4520     1.0  0.30722  0.51623  0.68477  1.0000
  H   H4521     1.0  0.46996  0.69271  0.63740  1.0000
  H   H4522     1.0  0.35419  0.50764  0.56121  1.0000
  H   H4523     1.0  0.37492  0.49450  0.57066  1.0000
  H   H4524     1.0  0.28379  0.62359  0.64270  1.0000
  H   H4525     1.0  0.25150  0.74401  0.67591  1.0000
  H   H4526     1.0  0.28808  0.61895  0.70114  1.0000
  H   H4527     1.0  0.26434  0.70929  0.55925  1.0000
  H   H4528     1.0  0.27360  0.81062  0.71870  1.0000
  C   C2641     1.0  0.32012  0.62689  0.65036  1.0000
  H   H4529     1.0  0.48184  0.70885  0.59164  1.0000
  C   C2642     1.0  0.28364  0.71918  0.67036  1.0000
  C   C2643     1.0  0.25172  0.56284  0.64414  1.0000
  H   H4530     1.0  0.28226  0.53390  0.66679  1.0000
  H   H4531     1.0  0.29901  0.61015  0.64573  1.0000
  C   C2644     1.0  0.31920  0.60651  0.71093  1.0000
  C   C2645     1.0  0.24929  0.64891  0.68487  1.0000
  H   H4532     1.0  0.38871  0.61302  0.72230  1.0000
  H   H4533     1.0  0.26525  0.70704  0.63050  1.0000
  C   C2646     1.0  0.24086  0.84295  0.64676  1.0000
  C   C2647     1.0  0.26472  0.62816  0.53991  1.0000
  C   C2648     1.0  0.37793  0.59859  0.70717  1.0000
  C   C2649     1.0  0.23941  0.69030  0.65924  1.0000
  H   H4534     1.0  0.48039  0.71939  0.61835  1.0000
  Fe  Fe375     1.0  0.30513  0.65870  0.71864  1.0000
  C   C2650     1.0  0.34372  0.68389  0.70572  1.0000
  C   C2651     1.0  0.37432  0.48574  0.58042  1.0000
  H   H4535     1.0  0.24583  0.57447  0.66104  1.0000
  C   C2652     1.0  0.41685  0.70233  0.71877  1.0000
  H   H4536     1.0  0.46743  0.71907  0.60198  1.0000
  C   C2653     1.0  0.38968  0.63533  0.71824  1.0000
  H   H4537     1.0  0.25517  0.70422  0.58507  1.0000
  S   S749      1.0  0.37856  0.71746  0.72033  1.0000
  H   H4538     1.0  0.31630  0.50707  0.65500  1.0000
  C   C2654     1.0  0.45987  0.64936  0.72609  1.0000
  N   N189      1.0  0.24383  0.60061  0.60711  1.0000
  H   H4539     1.0  0.25180  0.76148  0.72593  1.0000
  H   H4540     1.0  0.44784  0.66774  0.71364  1.0000
  C   C2655     1.0  0.24620  0.80650  0.63678  1.0000
  H   H4541     1.0  0.24656  0.59095  0.62888  1.0000
  H   H4542     1.0  0.26073  0.60772  0.54107  1.0000
  H   H4543     1.0  0.25504  0.78468  0.64705  1.0000
  H   H4544     1.0  0.31846  0.82919  0.70903  1.0000
  H   H4545     1.0  0.24042  0.63418  0.56485  1.0000
  S   S750      1.0  0.32629  0.64347  0.71416  1.0000
  H   H4546     1.0  0.26366  0.57546  0.58617  1.0000
  C   C2656     1.0  0.24892  0.72083  0.61952  1.0000
  C   C2657     1.0  0.24297  0.80509  0.69453  1.0000
  S   S751      1.0  0.24454  0.68017  0.61033  1.0000
  H   H4547     1.0  0.26904  0.81910  0.63512  1.0000
  H   H4548     1.0  0.24517  0.58998  0.55159  1.0000
  H   H4549     1.0  0.28366  0.48951  0.64142  1.0000
  H   H4550     1.0  0.33092  0.50450  0.68698  1.0000
  H   H4551     1.0  0.28926  0.67474  0.47832  1.0000
  C   C2658     1.0  0.47534  0.67208  0.72547  1.0000
  H   H4552     1.0  0.24383  0.59737  0.53318  1.0000
  H   H4553     1.0  0.48002  0.81602  0.56025  1.0000
  C   C2659     1.0  0.36143  0.62136  0.72291  1.0000
  N   N190      1.0  0.47819  0.69973  0.61457  1.0000
  C   C2660     1.0  0.24218  0.82685  0.64784  1.0000
  S   S752      1.0  0.35319  0.75421  0.72336  1.0000
  C   C2661     1.0  0.45845  0.66468  0.71656  1.0000
  H   H4554     1.0  0.48291  0.66601  0.71753  1.0000
  H   H4555     1.0  0.27428  0.79203  0.72344  1.0000
  H   H4556     1.0  0.30221  0.83749  0.71943  1.0000
  H   H4557     1.0  0.48733  0.67352  0.63454  1.0000
  H   H4558     1.0  0.44564  0.69347  0.71259  1.0000
  H   H4559     1.0  0.25153  0.61676  0.52044  1.0000
  H   H4560     1.0  0.38008  0.64317  0.72207  1.0000
  N   N191      1.0  0.24051  0.62289  0.54085  1.0000
  H   H4561     1.0  0.24239  0.64187  0.68589  1.0000
  H   H4562     1.0  0.48495  0.69071  0.71362  1.0000
  S   S753      1.0  0.23840  0.75684  0.58519  1.0000
  C   C2662     1.0  0.23849  0.78426  0.68969  1.0000
  C   C2663     1.0  0.23850  0.72150  0.61225  1.0000
  C   C2664     1.0  0.23819  0.59813  0.62319  1.0000
  H   H4563     1.0  0.23823  0.64561  0.53888  1.0000
  H   H4564     1.0  0.39541  0.63083  0.72718  1.0000
  C   C2665     1.0  0.23790  0.59688  0.54446  1.0000
  C   C2666     1.0  0.23756  0.83075  0.62352  1.0000
  Fe  Fe376     1.0  0.27472  0.79428  0.78898  1.0000
  S   S754      1.0  0.26945  0.77962  0.81051  1.0000
  S   S755      1.0  0.28357  0.81404  0.78340  1.0000
  Fe  Fe377     1.0  0.26206  0.77985  0.77418  1.0000
  S   S756      1.0  0.25512  0.76405  0.79418  1.0000
  S   S757      1.0  0.25733  0.78349  0.75266  1.0000
  Fe  Fe378     1.0  0.24829  0.78251  0.80516  1.0000
  Fe  Fe379     1.0  0.36618  0.70025  0.72995  1.0000
  Fe  Fe380     1.0  0.27684  0.76219  0.79792  1.0000
  S   S758      1.0  0.28754  0.73976  0.80730  1.0000
  S   S759      1.0  0.25301  0.79845  0.78461  1.0000
  S   S760      1.0  0.28431  0.77662  0.77690  1.0000
  H   H4565     1.0  0.31416  0.66656  0.79716  1.0000
  H   H4566     1.0  0.28370  0.83524  0.81612  1.0000
  H   H4567     1.0  0.24715  0.83247  0.81886  1.0000
  Fe  Fe381     1.0  0.35812  0.70693  0.75956  1.0000
  S   S761      1.0  0.34484  0.69948  0.78132  1.0000
  S   S762      1.0  0.34726  0.71438  0.74117  1.0000
  H   H4568     1.0  0.24765  0.78175  0.83668  1.0000
  S   S763      1.0  0.28377  0.65610  0.73296  1.0000
  H   H4569     1.0  0.36508  0.61057  0.72952  1.0000
  H   H4570     1.0  0.29216  0.80248  0.75651  1.0000
  C   C2667     1.0  0.25439  0.74185  0.75695  1.0000
  H   H4571     1.0  0.24378  0.80642  0.95105  1.0000
  H   H4572     1.0  0.24953  0.73738  0.76828  1.0000
  S   S764      1.0  0.37600  0.69110  0.74910  1.0000
  Fe  Fe382     1.0  0.28389  0.67534  0.74053  1.0000
  S   S765      1.0  0.27846  0.67683  0.76371  1.0000
  H   H4573     1.0  0.31715  0.79311  0.75671  1.0000
  H   H4574     1.0  0.31618  0.64487  0.76897  1.0000
  H   H4575     1.0  0.26224  0.81310  0.74357  1.0000
  C   C2668     1.0  0.28941  0.70983  0.77405  1.0000
  H   H4576     1.0  0.25966  0.85536  0.80145  1.0000
  H   H4577     1.0  0.24471  0.92461  0.77404  1.0000
  C   C2669     1.0  0.27248  0.83782  0.81476  1.0000
  C   C2670     1.0  0.25450  0.84234  0.85374  1.0000
  H   H4578     1.0  0.28399  0.83179  0.73810  1.0000
  C   C2671     1.0  0.26303  0.68926  0.76969  1.0000
  C   C2672     1.0  0.25391  0.69776  0.76060  1.0000
  C   C2673     1.0  0.26010  0.69091  0.78383  1.0000
  H   H4579     1.0  0.25600  0.69652  0.74973  1.0000
  H   H4580     1.0  0.26704  0.68432  0.79095  1.0000
  H   H4581     1.0  0.29768  0.71276  0.77750  1.0000
  C   C2674     1.0  0.28162  0.72036  0.73954  1.0000
  Fe  Fe383     1.0  0.36064  0.73094  0.73327  1.0000
  C   C2675     1.0  0.25916  0.85250  0.76869  1.0000
  H   H4582     1.0  0.28500  0.70170  0.78317  1.0000
  H   H4583     1.0  0.26536  0.75302  0.76415  1.0000
  H   H4584     1.0  0.45762  0.68614  0.74925  1.0000
  H   H4585     1.0  0.29001  0.71292  0.73346  1.0000
  H   H4586     1.0  0.24613  0.70241  0.79975  1.0000
  H   H4587     1.0  0.33064  0.68800  0.73714  1.0000
  S   S766      1.0  0.41094  0.70590  0.73599  1.0000
  C   C2676     1.0  0.32257  0.69269  0.74575  1.0000
  H   H4588     1.0  0.31839  0.69249  0.76812  1.0000
  H   H4589     1.0  0.25877  0.83197  0.86058  1.0000
  C   C2677     1.0  0.23895  0.78609  0.75505  1.0000
  H   H4590     1.0  0.27062  0.79740  0.83552  1.0000
  H   H4591     1.0  0.43849  0.67738  0.73512  1.0000
  H   H4592     1.0  0.27446  0.72725  0.73232  1.0000
  H   H4593     1.0  0.25581  0.73414  0.75027  1.0000
  H   H4594     1.0  0.24318  0.84299  0.85400  1.0000
  H   H4595     1.0  0.25924  0.80943  0.82422  1.0000
  C   C2678     1.0  0.32926  0.71150  0.78791  1.0000
  C   C2679     1.0  0.32079  0.70655  0.80124  1.0000
  C   C2680     1.0  0.30811  0.71542  0.80686  1.0000
  C   C2681     1.0  0.30379  0.72948  0.79939  1.0000
  C   C2682     1.0  0.31234  0.73467  0.78612  1.0000
  C   C2683     1.0  0.32503  0.72560  0.78028  1.0000
  H   H4596     1.0  0.32408  0.69580  0.80732  1.0000
  H   H4597     1.0  0.30165  0.71139  0.81718  1.0000
  H   H4598     1.0  0.30925  0.74564  0.78044  1.0000
  H   H4599     1.0  0.33163  0.72957  0.77003  1.0000
  H   H4600     1.0  0.27224  0.72703  0.78066  1.0000
  H   H4601     1.0  0.28231  0.79304  0.74308  1.0000
  S   S767      1.0  0.24427  0.88465  0.73491  1.0000
  H   H4602     1.0  0.44593  0.69901  0.73796  1.0000
  H   H4603     1.0  0.43884  0.68762  0.75400  1.0000
  H   H4604     1.0  0.27230  0.83062  0.80810  1.0000
  H   H4605     1.0  0.26999  0.86140  0.81033  1.0000
  H   H4606     1.0  0.25477  0.90371  0.75098  1.0000
  H   H4607     1.0  0.34363  0.66934  0.77724  1.0000
  H   H4608     1.0  0.30473  0.67484  0.77632  1.0000
  H   H4609     1.0  0.24322  0.73625  0.81174  1.0000
  C   C2684     1.0  0.24201  0.70801  0.76560  1.0000
  C   C2685     1.0  0.27088  0.84096  0.77046  1.0000
  C   C2686     1.0  0.26921  0.82882  0.78150  1.0000
  C   C2687     1.0  0.25593  0.82839  0.79096  1.0000
  C   C2688     1.0  0.28093  0.82315  0.73525  1.0000
  H   H4610     1.0  0.28110  0.84129  0.76306  1.0000
  H   H4611     1.0  0.25461  0.81904  0.79952  1.0000
  H   H4612     1.0  0.27047  0.75393  0.74531  1.0000
  H   H4613     1.0  0.35900  0.65660  0.75811  1.0000
  H   H4614     1.0  0.46989  0.64571  0.73010  1.0000
  H   H4615     1.0  0.36481  0.63127  0.73864  1.0000
  H   H4616     1.0  0.29941  0.65191  0.77945  1.0000
  H   H4617     1.0  0.31274  0.78481  0.74528  1.0000
  H   H4618     1.0  0.33657  0.68924  0.76010  1.0000
  S   S768      1.0  0.30615  0.67613  0.72820  1.0000
  H   H4619     1.0  0.26877  0.71833  0.76924  1.0000
  C   C2689     1.0  0.24438  0.84012  0.78954  1.0000
  C   C2690     1.0  0.44935  0.67624  0.73689  1.0000
  H   H4620     1.0  0.25965  0.83010  0.74771  1.0000
  C   C2691     1.0  0.31391  0.79521  0.74634  1.0000
  S   S769      1.0  0.37033  0.72450  0.75262  1.0000
  C   C2692     1.0  0.23823  0.85284  0.82520  1.0000
  H   H4621     1.0  0.33229  0.66407  0.74565  1.0000
  H   H4622     1.0  0.30177  0.73305  0.76276  1.0000
  H   H4623     1.0  0.30347  0.75775  0.75543  1.0000
  H   H4624     1.0  0.31180  0.69159  0.74589  1.0000
  C   C2693     1.0  0.29144  0.74089  0.76214  1.0000
  C   C2694     1.0  0.28881  0.72947  0.74448  1.0000
  C   C2695     1.0  0.23987  0.79655  0.85080  1.0000
  H   H4625     1.0  0.27569  0.71330  0.74842  1.0000
  H   H4626     1.0  0.29029  0.73875  0.73528  1.0000
  H   H4627     1.0  0.27494  0.84260  0.83908  1.0000
  H   H4628     1.0  0.25471  0.85094  0.85878  1.0000
  C   C2696     1.0  0.35250  0.66370  0.75035  1.0000
  C   C2697     1.0  0.29536  0.75472  0.75179  1.0000
  C   C2698     1.0  0.35630  0.63162  0.73331  1.0000
  N   N192      1.0  0.26237  0.83515  0.82921  1.0000
  C   C2699     1.0  0.32374  0.67129  0.79275  1.0000
  H   H4629     1.0  0.35712  0.66099  0.73965  1.0000
  H   H4630     1.0  0.24149  0.89071  0.80510  1.0000
  C   C2700     1.0  0.24827  0.70114  0.78882  1.0000
  H   H4631     1.0  0.34744  0.62796  0.74198  1.0000
  C   C2701     1.0  0.26824  0.74641  0.75594  1.0000
  H   H4632     1.0  0.26078  0.85605  0.83339  1.0000
  H   H4633     1.0  0.27843  0.80802  0.81920  1.0000
  H   H4634     1.0  0.24425  0.86144  0.82163  1.0000
  C   C2702     1.0  0.23912  0.79041  0.83998  1.0000
  H   H4635     1.0  0.27783  0.81810  0.83937  1.0000
  H   H4636     1.0  0.30018  0.75323  0.74075  1.0000
  H   H4637     1.0  0.28603  0.76389  0.75164  1.0000
  H   H4638     1.0  0.24674  0.92255  0.75104  1.0000
  H   H4639     1.0  0.26036  0.86171  0.75990  1.0000
  H   H4640     1.0  0.29424  0.70459  0.76480  1.0000
  H   H4641     1.0  0.28701  0.74337  0.77303  1.0000
  H   H4642     1.0  0.27839  0.85337  0.79527  1.0000
  C   C2703     1.0  0.26974  0.85297  0.80516  1.0000
  C   C2704     1.0  0.44814  0.68804  0.74471  1.0000
  H   H4643     1.0  0.24702  0.88630  0.77968  1.0000
  H   H4644     1.0  0.30858  0.67044  0.75939  1.0000
  H   H4645     1.0  0.25648  0.90040  0.77352  1.0000
  H   H4646     1.0  0.30162  0.81629  0.74899  1.0000
  C   C2705     1.0  0.29979  0.80665  0.74673  1.0000
  C   C2706     1.0  0.27716  0.72276  0.77070  1.0000
  H   H4647     1.0  0.24905  0.79268  0.85569  1.0000
  C   C2707     1.0  0.24595  0.85211  0.77832  1.0000
  H   H4648     1.0  0.47586  0.66456  0.73608  1.0000
  C   C2708     1.0  0.24724  0.83725  0.82767  1.0000
  N   N193      1.0  0.28126  0.73464  0.75816  1.0000
  C   C2709     1.0  0.28882  0.79773  0.73269  1.0000
  H   H4649     1.0  0.32033  0.68313  0.79044  1.0000
  C   C2710     1.0  0.26731  0.81972  0.83662  1.0000
  H   H4650     1.0  0.31499  0.64779  0.78656  1.0000
  C   C2711     1.0  0.26891  0.80818  0.82824  1.0000
  H   H4651     1.0  0.32984  0.66823  0.80136  1.0000
  H   H4652     1.0  0.29995  0.72342  0.74490  1.0000
  H   H4653     1.0  0.35175  0.64276  0.72813  1.0000
  H   H4654     1.0  0.35354  0.67485  0.74875  1.0000
  H   H4655     1.0  0.45050  0.64846  0.73520  1.0000
  H   H4656     1.0  0.26990  0.81474  0.75743  1.0000
  H   H4657     1.0  0.25992  0.88619  0.79696  1.0000
  C   C2712     1.0  0.26362  0.84448  0.83828  1.0000
  H   H4658     1.0  0.24626  0.67585  0.74363  1.0000
  C   C2713     1.0  0.25001  0.89463  0.79621  1.0000
  Fe  Fe384     1.0  0.38715  0.70940  0.74031  1.0000
  H   H4659     1.0  0.25219  0.90439  0.79773  1.0000
  H   H4660     1.0  0.32276  0.79890  0.73776  1.0000
  H   H4661     1.0  0.33756  0.65031  0.75971  1.0000
  C   C2714     1.0  0.24694  0.89702  0.78126  1.0000
  H   H4662     1.0  0.45144  0.66595  0.74485  1.0000
  H   H4663     1.0  0.24652  0.75154  0.75317  1.0000
  C   C2715     1.0  0.24478  0.91212  0.75099  1.0000
  C   C2716     1.0  0.26752  0.81986  0.74669  1.0000
  H   H4664     1.0  0.25977  0.81681  0.84704  1.0000
  H   H4665     1.0  0.32222  0.70438  0.74281  1.0000
  H   H4666     1.0  0.33644  0.65381  0.78270  1.0000
  H   H4667     1.0  0.24105  0.83121  0.83749  1.0000
  N   N194      1.0  0.32733  0.67042  0.76620  1.0000
  C   C2717     1.0  0.31252  0.66770  0.76944  1.0000
  C   C2718     1.0  0.32646  0.68633  0.76057  1.0000
  C   C2719     1.0  0.33344  0.66573  0.77947  1.0000
  C   C2720     1.0  0.33685  0.66201  0.75527  1.0000
  C   C2721     1.0  0.31096  0.65212  0.77653  1.0000
  H   H4668     1.0  0.29821  0.78878  0.73084  1.0000
  H   H4669     1.0  0.47549  0.69185  0.73177  1.0000
  H   H4670     1.0  0.24186  0.91353  0.74059  1.0000
  N   N195      1.0  0.29342  0.81056  0.73368  1.0000
  C   C2722     1.0  0.23921  0.70970  0.77973  1.0000
  H   H4671     1.0  0.31617  0.82531  0.72811  1.0000
  H   H4672     1.0  0.66649  0.46972  0.20111  1.0000
  H   H4673     1.0  0.67591  0.16486  0.21943  1.0000
  Fe  Fe385     1.0  0.69759  0.13967  0.13309  1.0000
  S   S770      1.0  0.68744  0.12198  0.14802  1.0000
  S   S771      1.0  0.68798  0.15597  0.11581  1.0000
  H   H4674     1.0  0.67052  0.40050  0.21928  1.0000
  S   S772      1.0  0.71626  0.11166  0.16191  1.0000
  S   S773      1.0  0.71008  0.24544  0.03241  1.0000
  Fe  Fe386     1.0  0.70952  0.10827  0.14355  1.0000
  H   H4675     1.0  0.69767  0.20161  0.22314  1.0000
  Fe  Fe387     1.0  0.69504  0.12709  0.16492  1.0000
  S   S774      1.0  0.68282  0.12907  0.18714  1.0000
  H   H4676     1.0  0.69477  0.15885  0.21844  1.0000
  S   S775      1.0  0.70303  0.14621  0.15031  1.0000
  Fe  Fe388     1.0  0.53254  0.33567  0.18526  1.0000
  S   S776      1.0  0.52513  0.35843  0.17411  1.0000
  S   S777      1.0  0.54432  0.31651  0.17569  1.0000
  Fe  Fe389     1.0  0.53223  0.36441  0.19105  1.0000
  S   S778      1.0  0.54657  0.38070  0.18385  1.0000
  H   H4677     1.0  0.64879  0.45849  0.22624  1.0000
  S   S779      1.0  0.59411  0.43327  0.19448  1.0000
  H   H4678     1.0  0.70894  0.29179  0.05234  1.0000
  Fe  Fe390     1.0  0.62827  0.28108  0.13352  1.0000
  S   S780      1.0  0.62353  0.29071  0.11161  1.0000
  S   S781      1.0  0.62983  0.25776  0.14366  1.0000
  Fe  Fe391     1.0  0.63400  0.30820  0.13655  1.0000
  S   S782      1.0  0.63074  0.32004  0.11452  1.0000
  S   S783      1.0  0.63772  0.31819  0.15251  1.0000
  Fe  Fe392     1.0  0.61159  0.31020  0.12065  1.0000
  S   S784      1.0  0.59043  0.32505  0.11764  1.0000
  Fe  Fe393     1.0  0.64312  0.29947  0.10753  1.0000
  S   S785      1.0  0.66151  0.29749  0.08824  1.0000
  S   S786      1.0  0.61421  0.29948  0.14309  1.0000
  S   S787      1.0  0.64836  0.28877  0.12907  1.0000
  Fe  Fe394     1.0  0.69702  0.23498  0.05298  1.0000
  H   H4679     1.0  0.51609  0.30935  0.16506  1.0000
  S   S788      1.0  0.67365  0.24277  0.06190  1.0000
  H   H4680     1.0  0.56872  0.44035  0.17534  1.0000
  S   S789      1.0  0.51053  0.36517  0.20609  1.0000
  H   H4681     1.0  0.70873  0.18083  0.21702  1.0000
  C   C2723     1.0  0.72280  0.17341  0.10077  1.0000
  H   H4682     1.0  0.71334  0.16254  0.22507  1.0000
  H   H4683     1.0  0.72744  0.30404  0.08494  1.0000
  H   H4684     1.0  0.58882  0.28067  0.20008  1.0000
  S   S790      1.0  0.70700  0.21253  0.04953  1.0000
  H   H4685     1.0  0.51471  0.32612  0.16905  1.0000
  H   H4686     1.0  0.64446  0.37906  0.15981  1.0000
  Fe  Fe395     1.0  0.61742  0.42282  0.19115  1.0000
  C   C2724     1.0  0.67797  0.19537  0.16617  1.0000
  S   S791      1.0  0.62714  0.41893  0.16887  1.0000
  H   H4687     1.0  0.73015  0.28377  0.05915  1.0000
  H   H4688     1.0  0.69587  0.19959  0.14064  1.0000
  H   H4689     1.0  0.61763  0.46355  0.21154  1.0000
  Fe  Fe396     1.0  0.71290  0.34782  0.16483  1.0000
  S   S792      1.0  0.72391  0.36624  0.15557  1.0000
  S   S793      1.0  0.71380  0.33502  0.18713  1.0000
  Fe  Fe397     1.0  0.70181  0.35209  0.13817  1.0000
  S   S794      1.0  0.71180  0.37093  0.12683  1.0000
  S   S795      1.0  0.69156  0.34557  0.12428  1.0000
  S   S796      1.0  0.72803  0.40825  0.19670  1.0000
  C   C2725     1.0  0.72670  0.12419  0.07906  1.0000
  Fe  Fe398     1.0  0.70373  0.37765  0.14790  1.0000
  S   S797      1.0  0.69398  0.40091  0.14806  1.0000
  S   S798      1.0  0.72140  0.33810  0.14554  1.0000
  S   S799      1.0  0.69208  0.35987  0.15867  1.0000
  C   C2726     1.0  0.50702  0.35159  0.15064  1.0000
  H   H4690     1.0  0.54495  0.32338  0.22676  1.0000
  H   H4691     1.0  0.73363  0.18743  0.05033  1.0000
  H   H4692     1.0  0.69960  0.26276  0.08370  1.0000
  H   H4693     1.0  0.72387  0.08973  0.07636  1.0000
  C   C2727     1.0  0.64579  0.41401  0.16418  1.0000
  C   C2728     1.0  0.65326  0.42340  0.15344  1.0000
  C   C2729     1.0  0.66804  0.41923  0.14860  1.0000
  C   C2730     1.0  0.67539  0.40550  0.15416  1.0000
  C   C2731     1.0  0.66790  0.39597  0.16474  1.0000
  C   C2732     1.0  0.65310  0.40028  0.16988  1.0000
  H   H4694     1.0  0.64759  0.43392  0.14884  1.0000
  H   H4695     1.0  0.67379  0.42662  0.14041  1.0000
  H   H4696     1.0  0.67353  0.38536  0.16913  1.0000
  H   H4697     1.0  0.64729  0.39291  0.17802  1.0000
  S   S800      1.0  0.62705  0.24489  0.20946  1.0000
  H   H4698     1.0  0.49380  0.32681  0.16101  1.0000
  H   H4699     1.0  0.57289  0.28019  0.18599  1.0000
  H   H4700     1.0  0.56414  0.27114  0.17135  1.0000
  C   C2733     1.0  0.70992  0.26626  0.08020  1.0000
  C   C2734     1.0  0.51179  0.34241  0.12830  1.0000
  H   H4701     1.0  0.73359  0.30564  0.16226  1.0000
  H   H4702     1.0  0.68803  0.43447  0.17623  1.0000
  C   C2735     1.0  0.65314  0.32513  0.14506  1.0000
  C   C2736     1.0  0.65965  0.32568  0.13057  1.0000
  C   C2737     1.0  0.67164  0.33173  0.12440  1.0000
  C   C2738     1.0  0.67733  0.33699  0.13275  1.0000
  C   C2739     1.0  0.67107  0.33615  0.14736  1.0000
  C   C2740     1.0  0.65884  0.33035  0.15349  1.0000
  H   H4703     1.0  0.65542  0.32152  0.12405  1.0000
  H   H4704     1.0  0.67649  0.33235  0.11310  1.0000
  H   H4705     1.0  0.67554  0.34007  0.15388  1.0000
  H   H4706     1.0  0.65389  0.32979  0.16475  1.0000
  C   C2741     1.0  0.66485  0.28209  0.08119  1.0000
  C   C2742     1.0  0.67678  0.27953  0.07002  1.0000
  C   C2743     1.0  0.67973  0.26732  0.06428  1.0000
  C   C2744     1.0  0.67044  0.25785  0.06933  1.0000
  C   C2745     1.0  0.65845  0.26044  0.08041  1.0000
  C   C2746     1.0  0.65579  0.27238  0.08649  1.0000
  H   H4707     1.0  0.68373  0.28705  0.06575  1.0000
  H   H4708     1.0  0.68896  0.26547  0.05566  1.0000
  H   H4709     1.0  0.65117  0.25323  0.08428  1.0000
  H   H4710     1.0  0.64662  0.27416  0.09511  1.0000
  C   C2747     1.0  0.67369  0.47385  0.20495  1.0000
  H   H4711     1.0  0.73443  0.33760  0.21250  1.0000
  H   H4712     1.0  0.72087  0.18891  0.14103  1.0000
  H   H4713     1.0  0.53083  0.45582  0.19758  1.0000
  C   C2748     1.0  0.71067  0.29938  0.05774  1.0000
  S   S801      1.0  0.64496  0.20467  0.21332  1.0000
  H   H4714     1.0  0.60410  0.26880  0.16351  1.0000
  H   H4715     1.0  0.70058  0.30333  0.06497  1.0000
  C   C2749     1.0  0.55439  0.38650  0.19475  1.0000
  H   H4716     1.0  0.62926  0.38418  0.14452  1.0000
  C   C2750     1.0  0.66558  0.40789  0.21036  1.0000
  C   C2751     1.0  0.54147  0.43468  0.22151  1.0000
  H   H4717     1.0  0.66093  0.47877  0.22463  1.0000
  H   H4718     1.0  0.57913  0.40614  0.19090  1.0000
  H   H4719     1.0  0.67175  0.42970  0.21910  1.0000
  H   H4720     1.0  0.64970  0.40220  0.13739  1.0000
  H   H4721     1.0  0.67031  0.40699  0.12184  1.0000
  H   H4722     1.0  0.65383  0.37954  0.10085  1.0000
  H   H4723     1.0  0.66089  0.43161  0.19152  1.0000
  C   C2752     1.0  0.65207  0.17265  0.18398  1.0000
  C   C2753     1.0  0.55643  0.31926  0.15911  1.0000
  C   C2754     1.0  0.55639  0.33292  0.15017  1.0000
  C   C2755     1.0  0.56650  0.33461  0.13707  1.0000
  C   C2756     1.0  0.57695  0.32275  0.13323  1.0000
  C   C2757     1.0  0.57683  0.30914  0.14213  1.0000
  C   C2758     1.0  0.56642  0.30738  0.15490  1.0000
  H   H4724     1.0  0.54862  0.34213  0.15331  1.0000
  H   H4725     1.0  0.56654  0.34515  0.13011  1.0000
  H   H4726     1.0  0.58469  0.29999  0.13899  1.0000
  H   H4727     1.0  0.56615  0.29683  0.16165  1.0000
  H   H4728     1.0  0.59571  0.25729  0.14769  1.0000
  H   H4729     1.0  0.71457  0.13317  0.09813  1.0000
  H   H4730     1.0  0.71498  0.18224  0.12937  1.0000
  C   C2759     1.0  0.70030  0.16631  0.10525  1.0000
  C   C2760     1.0  0.71316  0.16481  0.10916  1.0000
  H   H4731     1.0  0.72129  0.17777  0.16605  1.0000
  H   H4732     1.0  0.50025  0.35125  0.16168  1.0000
  C   C2761     1.0  0.70667  0.18511  0.08470  1.0000
  C   C2762     1.0  0.69715  0.17634  0.09293  1.0000
  H   H4733     1.0  0.71566  0.15712  0.11871  1.0000
  C   C2763     1.0  0.72260  0.10311  0.09968  1.0000
  H   H4734     1.0  0.70405  0.19293  0.07534  1.0000
  H   H4735     1.0  0.68726  0.17742  0.08982  1.0000
  C   C2764     1.0  0.63141  0.24847  0.19061  1.0000
  C   C2765     1.0  0.63018  0.26260  0.18260  1.0000
  C   C2766     1.0  0.63089  0.26547  0.16777  1.0000
  C   C2767     1.0  0.63255  0.25424  0.16109  1.0000
  C   C2768     1.0  0.63492  0.24008  0.16889  1.0000
  C   C2769     1.0  0.63458  0.23721  0.18357  1.0000
  H   H4736     1.0  0.62805  0.27135  0.18791  1.0000
  H   H4737     1.0  0.62949  0.27642  0.16170  1.0000
  H   H4738     1.0  0.63642  0.23133  0.16374  1.0000
  H   H4739     1.0  0.63627  0.22624  0.18946  1.0000
  C   C2770     1.0  0.71143  0.34742  0.19753  1.0000
  C   C2771     1.0  0.67028  0.14539  0.18613  1.0000
  C   C2772     1.0  0.66671  0.15293  0.17299  1.0000
  C   C2773     1.0  0.72206  0.19220  0.01604  1.0000
  H   H4740     1.0  0.67104  0.14829  0.16362  1.0000
  H   H4741     1.0  0.73153  0.27003  0.09611  1.0000
  C   C2774     1.0  0.56204  0.44750  0.18268  1.0000
  C   C2775     1.0  0.73100  0.07805  0.13560  1.0000
  H   H4742     1.0  0.59955  0.28013  0.18250  1.0000
  C   C2776     1.0  0.73507  0.17072  0.00692  1.0000
  H   H4743     1.0  0.69334  0.15857  0.19227  1.0000
  H   H4744     1.0  0.67907  0.21798  0.16346  1.0000
  C   C2777     1.0  0.53992  0.47289  0.19827  1.0000
  C   C2778     1.0  0.72375  0.29254  0.06475  1.0000
  C   C2779     1.0  0.50359  0.32737  0.15230  1.0000
  C   C2780     1.0  0.72753  0.14813  0.18259  1.0000
  H   H4745     1.0  0.69627  0.19917  0.17765  1.0000
  C   C2781     1.0  0.56221  0.25130  0.18695  1.0000
  N   N196      1.0  0.72079  0.28677  0.08082  1.0000
  C   C2782     1.0  0.55646  0.38864  0.21793  1.0000
  H   H4746     1.0  0.67992  0.46471  0.21165  1.0000
  H   H4747     1.0  0.71305  0.30877  0.04903  1.0000
  H   H4748     1.0  0.55296  0.25020  0.18349  1.0000
  H   H4749     1.0  0.67926  0.39668  0.18534  1.0000
  C   C2783     1.0  0.53593  0.45811  0.20511  1.0000
  S   S802      1.0  0.71911  0.12562  0.12730  1.0000
  H   H4750     1.0  0.70584  0.31731  0.07630  1.0000
  H   H4751     1.0  0.68666  0.38968  0.20070  1.0000
  N   N197      1.0  0.66983  0.21441  0.10944  1.0000
  C   C2784     1.0  0.68086  0.22194  0.10995  1.0000
  C   C2785     1.0  0.65527  0.22340  0.11443  1.0000
  C   C2786     1.0  0.67190  0.21343  0.09400  1.0000
  C   C2787     1.0  0.67224  0.19964  0.11907  1.0000
  C   C2788     1.0  0.69662  0.21488  0.10435  1.0000
  C   C2789     1.0  0.65174  0.22564  0.12992  1.0000
  C   C2790     1.0  0.65853  0.21425  0.08863  1.0000
  C   C2791     1.0  0.66128  0.19064  0.12103  1.0000
  H   H4752     1.0  0.67889  0.23324  0.10358  1.0000
  H   H4753     1.0  0.68012  0.22271  0.12109  1.0000
  H   H4754     1.0  0.64659  0.21877  0.11383  1.0000
  H   H4755     1.0  0.65393  0.23427  0.10715  1.0000
  H   H4756     1.0  0.67677  0.22224  0.08643  1.0000
  H   H4757     1.0  0.67967  0.20347  0.09178  1.0000
  H   H4758     1.0  0.68280  0.19303  0.11492  1.0000
  H   H4759     1.0  0.67263  0.20030  0.12994  1.0000
  H   H4760     1.0  0.69870  0.21330  0.09327  1.0000
  H   H4761     1.0  0.70357  0.22203  0.10402  1.0000
  H   H4762     1.0  0.70018  0.20447  0.11152  1.0000
  H   H4763     1.0  0.64038  0.23133  0.13249  1.0000
  H   H4764     1.0  0.65279  0.21540  0.13805  1.0000
  H   H4765     1.0  0.65809  0.23263  0.13110  1.0000
  H   H4766     1.0  0.65173  0.22528  0.08750  1.0000
  H   H4767     1.0  0.65205  0.20647  0.09553  1.0000
  H   H4768     1.0  0.66198  0.21194  0.07769  1.0000
  H   H4769     1.0  0.65029  0.19583  0.12583  1.0000
  H   H4770     1.0  0.66414  0.18020  0.12854  1.0000
  H   H4771     1.0  0.66158  0.18806  0.11078  1.0000
  C   C2792     1.0  0.65121  0.37273  0.12436  1.0000
  H   H4772     1.0  0.73456  0.12787  0.06918  1.0000
  C   C2793     1.0  0.65539  0.16500  0.19720  1.0000
  H   H4773     1.0  0.65844  0.36424  0.16418  1.0000
  C   C2794     1.0  0.73067  0.17728  0.05103  1.0000
  C   C2795     1.0  0.67913  0.43189  0.17358  1.0000
  N   N198      1.0  0.67700  0.41247  0.19753  1.0000
  Fe  Fe399     1.0  0.63225  0.19614  0.20352  1.0000
  S   S803      1.0  0.62347  0.18210  0.22425  1.0000
  H   H4774     1.0  0.67733  0.37713  0.11425  1.0000
  H   H4775     1.0  0.65495  0.17241  0.16171  1.0000
  S   S804      1.0  0.73263  0.21673  0.00917  1.0000
  H   H4776     1.0  0.71268  0.26867  0.06830  1.0000
  S   S805      1.0  0.71804  0.44326  0.21097  1.0000
  H   H4777     1.0  0.53738  0.41887  0.21221  1.0000
  H   H4778     1.0  0.63923  0.37109  0.10984  1.0000
  S   S806      1.0  0.61300  0.21422  0.20504  1.0000
  H   H4779     1.0  0.67444  0.44070  0.20102  1.0000
  H   H4780     1.0  0.68342  0.42604  0.16475  1.0000
  Fe  Fe400     1.0  0.72981  0.42058  0.21154  1.0000
  H   H4781     1.0  0.70415  0.31796  0.09439  1.0000
  C   C2796     1.0  0.66445  0.15132  0.19830  1.0000
  H   H4782     1.0  0.64699  0.36225  0.15437  1.0000
  N   N199      1.0  0.59323  0.34473  0.16089  1.0000
  C   C2797     1.0  0.57842  0.35311  0.15932  1.0000
  C   C2798     1.0  0.59409  0.32913  0.16180  1.0000
  C   C2799     1.0  0.60442  0.34986  0.14816  1.0000
  C   C2800     1.0  0.59598  0.34685  0.17428  1.0000
  C   C2801     1.0  0.57616  0.36960  0.15607  1.0000
  C   C2802     1.0  0.58450  0.32151  0.17517  1.0000
  C   C2803     1.0  0.60253  0.34967  0.13331  1.0000
  C   C2804     1.0  0.61005  0.33775  0.17859  1.0000
  H   H4783     1.0  0.57516  0.35034  0.15079  1.0000
  H   H4784     1.0  0.57035  0.35023  0.16932  1.0000
  H   H4785     1.0  0.60528  0.32282  0.16123  1.0000
  H   H4786     1.0  0.59100  0.32783  0.15238  1.0000
  H   H4787     1.0  0.60525  0.36087  0.14791  1.0000
  H   H4788     1.0  0.61519  0.34307  0.14899  1.0000
  H   H4789     1.0  0.59630  0.35823  0.17308  1.0000
  H   H4790     1.0  0.58703  0.34470  0.18365  1.0000
  H   H4791     1.0  0.56489  0.37441  0.15517  1.0000
  H   H4792     1.0  0.57781  0.37338  0.16488  1.0000
  H   H4793     1.0  0.58295  0.37391  0.14571  1.0000
  H   H4794     1.0  0.57301  0.32651  0.17579  1.0000
  H   H4795     1.0  0.58595  0.31024  0.17436  1.0000
  H   H4796     1.0  0.58740  0.32108  0.18529  1.0000
  H   H4797     1.0  0.61104  0.35420  0.12484  1.0000
  H   H4798     1.0  0.59214  0.35620  0.13096  1.0000
  H   H4799     1.0  0.60388  0.33857  0.13215  1.0000
  H   H4800     1.0  0.61054  0.32607  0.18097  1.0000
  H   H4801     1.0  0.61082  0.34027  0.18853  1.0000
  H   H4802     1.0  0.61959  0.34018  0.17025  1.0000
  H   H4803     1.0  0.72905  0.35674  0.18408  1.0000
  H   H4804     1.0  0.55770  0.25652  0.19623  1.0000
  N   N200      1.0  0.58486  0.26189  0.17665  1.0000
  C   C2805     1.0  0.58085  0.26997  0.18854  1.0000
  C   C2806     1.0  0.57114  0.26035  0.17423  1.0000
  C   C2807     1.0  0.59268  0.27071  0.16329  1.0000
  C   C2808     1.0  0.59444  0.24759  0.18130  1.0000
  C   C2809     1.0  0.67959  0.43186  0.20882  1.0000
  H   H4805     1.0  0.55375  0.45497  0.17707  1.0000
  C   C2810     1.0  0.59221  0.26863  0.14860  1.0000
  C   C2811     1.0  0.59879  0.23696  0.17131  1.0000
  H   H4806     1.0  0.69346  0.34031  0.21297  1.0000
  H   H4807     1.0  0.73015  0.14038  0.08841  1.0000
  H   H4808     1.0  0.57300  0.25545  0.16493  1.0000
  H   H4809     1.0  0.53245  0.34095  0.13386  1.0000
  H   H4810     1.0  0.58858  0.28239  0.16289  1.0000
  H   H4811     1.0  0.50388  0.31982  0.14572  1.0000
  H   H4812     1.0  0.60469  0.24915  0.18232  1.0000
  H   H4813     1.0  0.59000  0.24199  0.19238  1.0000
  N   N201      1.0  0.50282  0.34249  0.14328  1.0000
  H   H4814     1.0  0.69142  0.18259  0.14422  1.0000
  H   H4815     1.0  0.67153  0.19002  0.16260  1.0000
  H   H4816     1.0  0.51807  0.34736  0.15232  1.0000
  C   C2812     1.0  0.72290  0.17808  0.01518  1.0000
  C   C2813     1.0  0.70712  0.36786  0.21371  1.0000
  C   C2814     1.0  0.69209  0.17029  0.18768  1.0000
  H   H4817     1.0  0.59966  0.27455  0.14002  1.0000
  H   H4818     1.0  0.58142  0.27322  0.14623  1.0000
  H   H4819     1.0  0.60825  0.23912  0.16267  1.0000
  H   H4820     1.0  0.59011  0.23681  0.16651  1.0000
  H   H4821     1.0  0.60159  0.22586  0.17769  1.0000
  C   C2815     1.0  0.63060  0.39515  0.13893  1.0000
  C   C2816     1.0  0.53132  0.42729  0.21835  1.0000
  Fe  Fe401     1.0  0.72512  0.24338  0.04619  1.0000
  H   H4822     1.0  0.53056  0.48068  0.19462  1.0000
  C   C2817     1.0  0.71376  0.18217  0.14086  1.0000
  H   H4823     1.0  0.72770  0.17173  0.06242  1.0000
  H   H4824     1.0  0.60047  0.26417  0.19690  1.0000
  H   H4825     1.0  0.63761  0.38925  0.11071  1.0000
  H   H4826     1.0  0.64530  0.40436  0.12070  1.0000
  C   C2818     1.0  0.67395  0.21160  0.15963  1.0000
  H   H4827     1.0  0.71796  0.25698  0.08442  1.0000
  C   C2819     1.0  0.67744  0.39696  0.11905  1.0000
  C   C2820     1.0  0.66291  0.37544  0.14189  1.0000
  H   H4828     1.0  0.66398  0.41857  0.18173  1.0000
  H   H4829     1.0  0.70102  0.09949  0.10712  1.0000
  S   S807      1.0  0.64171  0.19016  0.18217  1.0000
  H   H4830     1.0  0.65977  0.36306  0.12254  1.0000
  H   H4831     1.0  0.68524  0.40010  0.10895  1.0000
  H   H4832     1.0  0.71267  0.19783  0.02244  1.0000
  C   C2821     1.0  0.66929  0.38698  0.11666  1.0000
  H   H4833     1.0  0.70415  0.39025  0.17716  1.0000
  S   S808      1.0  0.54125  0.34155  0.20080  1.0000
  H   H4834     1.0  0.56801  0.39732  0.17645  1.0000
  Fe  Fe402     1.0  0.59188  0.41599  0.21451  1.0000
  H   H4835     1.0  0.66785  0.38253  0.14492  1.0000
  C   C2822     1.0  0.68437  0.16232  0.22560  1.0000
  C   C2823     1.0  0.64608  0.39663  0.13117  1.0000
  S   S809      1.0  0.71322  0.08749  0.13698  1.0000
  H   H4836     1.0  0.53151  0.32553  0.12816  1.0000
  H   H4837     1.0  0.70799  0.39833  0.18911  1.0000
  C   C2824     1.0  0.52814  0.33739  0.12666  1.0000
  H   H4838     1.0  0.67165  0.36609  0.13957  1.0000
  C   C2825     1.0  0.70207  0.19616  0.16720  1.0000
  C   C2826     1.0  0.64514  0.37871  0.11065  1.0000
  C   C2827     1.0  0.73103  0.09671  0.06900  1.0000
  C   C2828     1.0  0.65236  0.37003  0.15567  1.0000
  H   H4839     1.0  0.62335  0.39972  0.13131  1.0000
  C   C2829     1.0  0.56479  0.39479  0.18806  1.0000
  H   H4840     1.0  0.73210  0.33006  0.09940  1.0000
  H   H4841     1.0  0.56794  0.44043  0.21561  1.0000
  Fe  Fe403     1.0  0.72173  0.22298  0.03037  1.0000
  C   C2830     1.0  0.69488  0.17277  0.17119  1.0000
  H   H4842     1.0  0.49152  0.30908  0.22395  1.0000
  C   C2831     1.0  0.72037  0.35717  0.19342  1.0000
  H   H4843     1.0  0.72183  0.10650  0.10968  1.0000
  H   H4844     1.0  0.62659  0.40172  0.14724  1.0000
  H   H4845     1.0  0.68107  0.17527  0.19253  1.0000
  N   N202      1.0  0.65694  0.38305  0.12872  1.0000
  H   H4846     1.0  0.70091  0.40932  0.17372  1.0000
  C   C2832     1.0  0.68528  0.39928  0.19175  1.0000
  H   H4847     1.0  0.69607  0.42066  0.19432  1.0000
  H   H4848     1.0  0.70278  0.20652  0.15928  1.0000
  C   C2833     1.0  0.55888  0.44977  0.21390  1.0000
  H   H4849     1.0  0.67621  0.21411  0.14776  1.0000
  N   N203      1.0  0.69365  0.18815  0.16295  1.0000
  C   C2834     1.0  0.70042  0.34780  0.20983  1.0000
  C   C2835     1.0  0.73378  0.27564  0.08458  1.0000
  S   S810      1.0  0.71136  0.23459  0.06695  1.0000
  H   H4850     1.0  0.68097  0.47826  0.19509  1.0000
  C   C2836     1.0  0.59328  0.27387  0.19200  1.0000
  H   H4851     1.0  0.73730  0.31984  0.20248  1.0000
  C   C2837     1.0  0.55032  0.38338  0.20977  1.0000
  H   H4852     1.0  0.71417  0.17281  0.02100  1.0000
  H   H4853     1.0  0.53349  0.34230  0.11568  1.0000
  H   H4854     1.0  0.56919  0.45345  0.18417  1.0000
  C   C2838     1.0  0.61271  0.47461  0.21190  1.0000
  H   H4855     1.0  0.57562  0.26368  0.19884  1.0000
  Fe  Fe404     1.0  0.62516  0.22195  0.21618  1.0000
  Fe  Fe405     1.0  0.59911  0.44597  0.20735  1.0000
  Fe  Fe406     1.0  0.61824  0.42033  0.22203  1.0000
  H   H4856     1.0  0.63134  0.47882  0.21546  1.0000
  H   H4857     1.0  0.65122  0.16970  0.20652  1.0000
  H   H4858     1.0  0.71845  0.14671  0.19142  1.0000
  Fe  Fe407     1.0  0.72369  0.13042  0.14596  1.0000
  H   H4859     1.0  0.72492  0.10651  0.06299  1.0000
  H   H4860     1.0  0.50874  0.33522  0.12340  1.0000
  H   H4861     1.0  0.56370  0.42882  0.20004  1.0000
  H   H4862     1.0  0.50955  0.35307  0.12087  1.0000
  C   C2839     1.0  0.71751  0.18840  0.16882  1.0000
  H   H4863     1.0  0.69131  0.40984  0.21135  1.0000
  H   H4864     1.0  0.51007  0.37284  0.14904  1.0000
  C   C2840     1.0  0.72931  0.14281  0.17042  1.0000
  H   H4865     1.0  0.70545  0.16597  0.16780  1.0000
  C   C2841     1.0  0.71949  0.18368  0.08861  1.0000
  H   H4866     1.0  0.67253  0.44248  0.16944  1.0000
  C   C2842     1.0  0.55521  0.43822  0.19676  1.0000
  H   H4867     1.0  0.51267  0.36886  0.13192  1.0000
  H   H4868     1.0  0.70152  0.11760  0.09832  1.0000
  H   H4869     1.0  0.54772  0.43382  0.19362  1.0000
  H   H4870     1.0  0.70617  0.10401  0.08798  1.0000
  C   C2843     1.0  0.72121  0.13643  0.08733  1.0000
  H   H4871     1.0  0.52331  0.43504  0.21256  1.0000
  S   S811      1.0  0.62278  0.43717  0.20194  1.0000
  H   H4872     1.0  0.73072  0.08842  0.18800  1.0000
  H   H4873     1.0  0.63883  0.44057  0.22132  1.0000
  C   C2844     1.0  0.70829  0.27948  0.08626  1.0000
  H   H4874     1.0  0.72086  0.18021  0.04670  1.0000
  H   H4875     1.0  0.66222  0.21537  0.16325  1.0000
  H   H4876     1.0  0.72533  0.37474  0.19843  1.0000
  H   H4877     1.0  0.68801  0.43573  0.21108  1.0000
  C   C2845     1.0  0.70494  0.31065  0.08738  1.0000
  H   H4878     1.0  0.72858  0.06336  0.12452  1.0000
  H   H4879     1.0  0.64768  0.39724  0.21782  1.0000
  H   H4880     1.0  0.60369  0.26700  0.22333  1.0000
  H   H4881     1.0  0.69815  0.28684  0.08416  1.0000
  H   H4882     1.0  0.70623  0.27592  0.09820  1.0000
  H   H4883     1.0  0.71774  0.29386  0.10042  1.0000
  H   H4884     1.0  0.73096  0.34587  0.11507  1.0000
  H   H4885     1.0  0.71758  0.12358  0.07509  1.0000
  H   H4886     1.0  0.52716  0.45979  0.21468  1.0000
  H   H4887     1.0  0.56380  0.45809  0.20554  1.0000
  C   C2846     1.0  0.59864  0.48021  0.21021  1.0000
  H   H4888     1.0  0.64892  0.40740  0.19981  1.0000
  Fe  Fe408     1.0  0.50416  0.35710  0.19008  1.0000
  Fe  Fe409     1.0  0.73074  0.35756  0.13562  1.0000
  S   S812      1.0  0.73632  0.15966  0.19956  1.0000
  C   C2847     1.0  0.69813  0.35817  0.21780  1.0000
  H   H4889     1.0  0.72516  0.19508  0.16185  1.0000
  H   H4890     1.0  0.66102  0.39017  0.20397  1.0000
  H   H4891     1.0  0.69985  0.17392  0.19118  1.0000
  S   S813      1.0  0.73546  0.26173  0.04235  1.0000
  S   S814      1.0  0.58864  0.46941  0.20735  1.0000
  C   C2848     1.0  0.70706  0.10634  0.09791  1.0000
  S   S815      1.0  0.61512  0.40495  0.21072  1.0000
  H   H4892     1.0  0.65862  0.41724  0.21475  1.0000
  H   H4893     1.0  0.52665  0.32130  0.15291  1.0000
  H   H4894     1.0  0.54255  0.47725  0.20612  1.0000
  C   C2849     1.0  0.65761  0.16656  0.17191  1.0000
  Fe  Fe410     1.0  0.72238  0.21300  0.06206  1.0000
  H   H4895     1.0  0.54230  0.37708  0.21508  1.0000
  H   H4896     1.0  0.70601  0.47867  0.22129  1.0000
  H   H4897     1.0  0.66559  0.39259  0.10654  1.0000
  H   H4898     1.0  0.72156  0.13733  0.16997  1.0000
  H   H4899     1.0  0.68737  0.16780  0.16876  1.0000
  C   C2850     1.0  0.56688  0.39690  0.21125  1.0000
  C   C2851     1.0  0.71835  0.36726  0.20163  1.0000
  C   C2852     1.0  0.65536  0.40027  0.20759  1.0000
  Fe  Fe411     1.0  0.72253  0.39168  0.21665  1.0000
  N   N204      1.0  0.54781  0.44556  0.20913  1.0000
  C   C2853     1.0  0.70039  0.39959  0.18237  1.0000
  H   H4900     1.0  0.68381  0.39144  0.12732  1.0000
  H   H4901     1.0  0.64278  0.36835  0.13295  1.0000
  Fe  Fe412     1.0  0.51925  0.34183  0.21473  1.0000
  H   H4902     1.0  0.69486  0.30675  0.09106  1.0000
  H   H4903     1.0  0.54890  0.47276  0.18880  1.0000
  C   C2854     1.0  0.68664  0.41820  0.20281  1.0000
  H   H4904     1.0  0.56839  0.24027  0.19038  1.0000
  N   N205      1.0  0.73327  0.10977  0.08733  1.0000
  C   C2855     1.0  0.57110  0.39986  0.19623  1.0000
  C   C2856     1.0  0.51606  0.32085  0.16011  1.0000
  H   H4905     1.0  0.67362  0.19438  0.17790  1.0000
  C   C2857     1.0  0.50601  0.36752  0.14299  1.0000
  C   C2858     1.0  0.71832  0.29851  0.08872  1.0000
  C   C2859     1.0  0.66968  0.42359  0.18649  1.0000
  H   H4906     1.0  0.66722  0.14548  0.20846  1.0000
  C   C2860     1.0  0.69797  0.18843  0.14705  1.0000
  H   H4907     1.0  0.71856  0.18697  0.18002  1.0000
  S   S816      1.0  0.51125  0.33395  0.20003  1.0000
  H   H4908     1.0  0.49479  0.37335  0.14293  1.0000
  H   H4909     1.0  0.71758  0.17087  0.14611  1.0000
  H   H4910     1.0  0.71446  0.14571  0.08128  1.0000
  S   S817      1.0  0.70399  0.38097  0.22350  1.0000
  H   H4911     1.0  0.72627  0.09121  0.10243  1.0000
  S   S818      1.0  0.57380  0.40377  0.22207  1.0000
  H   H4912     1.0  0.73053  0.30060  0.06168  1.0000
  Fe  Fe413     1.0  0.60536  0.20114  0.22670  1.0000
  C   C2861     1.0  0.73327  0.19909  0.00839  1.0000
  S   S819      1.0  0.73148  0.19459  0.07844  1.0000
  H   H4913     1.0  0.73273  0.17225  0.10384  1.0000
  S   S820      1.0  0.73644  0.15277  0.00655  1.0000
  H   H4914     1.0  0.69884  0.47615  0.20785  1.0000
  H   H4915     1.0  0.55004  0.42604  0.22576  1.0000
  H   H4916     1.0  0.68416  0.18480  0.22113  1.0000
  H   H4917     1.0  0.73203  0.17407  0.22388  1.0000
  C   C2862     1.0  0.73585  0.06647  0.12879  1.0000
  H   H4918     1.0  0.73634  0.30481  0.17944  1.0000
  H   H4919     1.0  0.73681  0.09120  0.14606  1.0000
  H   H4920     1.0  0.73552  0.07911  0.17378  1.0000
  C   C2863     1.0  0.70965  0.17340  0.22758  1.0000
  H   H4921     1.0  0.73672  0.26715  0.07832  1.0000
  H   H4922     1.0  0.68942  0.35865  0.22714  1.0000
  S   S821      1.0  0.59474  0.42965  0.22787  1.0000
  S   S822      1.0  0.73475  0.32483  0.26916  1.0000
  S   S823      1.0  0.64947  0.28860  0.43648  1.0000
  C   C2864     1.0  0.73234  0.25540  0.27034  1.0000
  H   H4923     1.0  0.72508  0.33553  0.44235  1.0000
  H   H4924     1.0  0.58918  0.47853  0.27663  1.0000
  H   H4925     1.0  0.65401  0.22045  0.31791  1.0000
  H   H4926     1.0  0.49186  0.23026  0.31736  1.0000
  H   H4927     1.0  0.71803  0.30153  0.37591  1.0000
  H   H4928     1.0  0.67954  0.20666  0.23277  1.0000
  H   H4929     1.0  0.73669  0.43884  0.25306  1.0000
  Fe  Fe414     1.0  0.64396  0.29151  0.34715  1.0000
  S   S824      1.0  0.64122  0.27790  0.36939  1.0000
  S   S825      1.0  0.66312  0.30168  0.33737  1.0000
  Fe  Fe415     1.0  0.61535  0.28884  0.34325  1.0000
  S   S826      1.0  0.61006  0.27586  0.36577  1.0000
  S   S827      1.0  0.60387  0.29243  0.32523  1.0000
  Fe  Fe416     1.0  0.61889  0.29101  0.37246  1.0000
  S   S828      1.0  0.60949  0.29929  0.39301  1.0000
  Fe  Fe417     1.0  0.63287  0.26413  0.36083  1.0000
  S   S829      1.0  0.63786  0.24028  0.36865  1.0000
  S   S830      1.0  0.62187  0.30541  0.35034  1.0000
  S   S831      1.0  0.63789  0.27628  0.33809  1.0000
  Fe  Fe418     1.0  0.69198  0.20891  0.30875  1.0000
  S   S832      1.0  0.68549  0.23022  0.29433  1.0000
  S   S833      1.0  0.69169  0.20572  0.33205  1.0000
  Fe  Fe419     1.0  0.69926  0.19243  0.28527  1.0000
  S   S834      1.0  0.69372  0.21229  0.26863  1.0000
  S   S835      1.0  0.70475  0.17060  0.28029  1.0000
  Fe  Fe420     1.0  0.70508  0.22222  0.27857  1.0000
  H   H4930     1.0  0.54815  0.33224  0.25331  1.0000
  Fe  Fe421     1.0  0.67473  0.21839  0.28579  1.0000
  S   S836      1.0  0.65354  0.22721  0.27952  1.0000
  S   S837      1.0  0.71253  0.20170  0.29368  1.0000
  S   S838      1.0  0.67928  0.19775  0.30176  1.0000
  Fe  Fe422     1.0  0.54872  0.25724  0.31149  1.0000
  S   S839      1.0  0.56551  0.24872  0.29381  1.0000
  S   S840      1.0  0.55525  0.26007  0.33048  1.0000
  Fe  Fe423     1.0  0.52403  0.25801  0.29762  1.0000
  S   S841      1.0  0.53929  0.24979  0.27896  1.0000
  Fe  Fe424     1.0  0.55086  0.23455  0.29549  1.0000
  S   S842      1.0  0.55676  0.21091  0.29638  1.0000
  Fe  Fe425     1.0  0.55206  0.26493  0.27940  1.0000
  S   S843      1.0  0.56217  0.27904  0.25946  1.0000
  S   S844      1.0  0.53490  0.24176  0.31429  1.0000
  S   S845      1.0  0.53601  0.27446  0.29699  1.0000
  C   C2865     1.0  0.50036  0.25239  0.27604  1.0000
  C   C2866     1.0  0.69480  0.39033  0.26332  1.0000
  H   H4931     1.0  0.68582  0.40372  0.23863  1.0000
  H   H4932     1.0  0.51444  0.22025  0.27073  1.0000
  S   S846      1.0  0.61538  0.21082  0.23818  1.0000
  H   H4933     1.0  0.50524  0.27270  0.22940  1.0000
  H   H4934     1.0  0.52702  0.22600  0.27685  1.0000
  H   H4935     1.0  0.49243  0.19319  0.29668  1.0000
  S   S847      1.0  0.64484  0.18065  0.25254  1.0000
  H   H4936     1.0  0.51324  0.23057  0.29753  1.0000
  H   H4937     1.0  0.60773  0.22384  0.28132  1.0000
  Fe  Fe426     1.0  0.71011  0.34876  0.39428  1.0000
  S   S848      1.0  0.68695  0.34966  0.39622  1.0000
  H   H4938     1.0  0.54301  0.46272  0.22862  1.0000
  H   H4939     1.0  0.70856  0.42639  0.31418  1.0000
  S   S849      1.0  0.69377  0.35469  0.36104  1.0000
  H   H4940     1.0  0.71435  0.28949  0.43671  1.0000
  Fe  Fe427     1.0  0.68825  0.36827  0.37724  1.0000
  S   S850      1.0  0.67183  0.38910  0.37641  1.0000
  Fe  Fe428     1.0  0.69475  0.33601  0.37981  1.0000
  S   S851      1.0  0.68650  0.31598  0.38377  1.0000
  S   S852      1.0  0.71090  0.36851  0.37642  1.0000
  H   H4941     1.0  0.70234  0.28161  0.35002  1.0000
  H   H4942     1.0  0.53523  0.43972  0.23072  1.0000
  S   S853      1.0  0.64734  0.45957  0.29454  1.0000
  H   H4943     1.0  0.64747  0.20472  0.32740  1.0000
  Fe  Fe429     1.0  0.68847  0.45353  0.28308  1.0000
  S   S854      1.0  0.67668  0.43864  0.28070  1.0000
  S   S855      1.0  0.71201  0.44893  0.27410  1.0000
  Fe  Fe430     1.0  0.66127  0.45824  0.27271  1.0000
  S   S856      1.0  0.65520  0.46122  0.25160  1.0000
  Fe  Fe431     1.0  0.66392  0.44066  0.30273  1.0000
  S   S857      1.0  0.66024  0.41854  0.31415  1.0000
  S   S858      1.0  0.67405  0.47324  0.27340  1.0000
  S   S859      1.0  0.67729  0.45402  0.30593  1.0000
  Fe  Fe432     1.0  0.66176  0.47296  0.29598  1.0000
  H   H4944     1.0  0.70437  0.25341  0.33224  1.0000
  H   H4945     1.0  0.60545  0.23283  0.32859  1.0000
  C   C2867     1.0  0.64827  0.44812  0.24849  1.0000
  C   C2868     1.0  0.64462  0.43657  0.25948  1.0000
  C   C2869     1.0  0.63898  0.42640  0.25665  1.0000
  C   C2870     1.0  0.63689  0.42773  0.24288  1.0000
  H   H4946     1.0  0.50682  0.27350  0.24660  1.0000
  H   H4947     1.0  0.48972  0.30256  0.27739  1.0000
  H   H4948     1.0  0.64609  0.43552  0.27015  1.0000
  H   H4949     1.0  0.63607  0.41752  0.26520  1.0000
  H   H4950     1.0  0.51147  0.25302  0.27245  1.0000
  N   N206      1.0  0.70303  0.30387  0.45897  1.0000
  C   C2871     1.0  0.66385  0.41071  0.33134  1.0000
  C   C2872     1.0  0.66467  0.41898  0.34029  1.0000
  C   C2873     1.0  0.66710  0.41231  0.35416  1.0000
  C   C2874     1.0  0.66909  0.39735  0.35894  1.0000
  C   C2875     1.0  0.66844  0.38912  0.34988  1.0000
  C   C2876     1.0  0.66564  0.39580  0.33620  1.0000
  H   H4951     1.0  0.66318  0.43051  0.33664  1.0000
  H   H4952     1.0  0.66752  0.41873  0.36116  1.0000
  H   H4953     1.0  0.66967  0.37763  0.35356  1.0000
  H   H4954     1.0  0.66490  0.38938  0.32936  1.0000
  H   H4955     1.0  0.62453  0.21764  0.33750  1.0000
  C   C2877     1.0  0.72514  0.43552  0.47142  1.0000
  C   C2878     1.0  0.68389  0.17576  0.23075  1.0000
  H   H4956     1.0  0.70014  0.15131  0.24586  1.0000
  C   C2879     1.0  0.54878  0.29277  0.25266  1.0000
  C   C2880     1.0  0.55249  0.30336  0.24053  1.0000
  H   H4957     1.0  0.69541  0.40493  0.47786  1.0000
  C   C2881     1.0  0.52768  0.31629  0.24335  1.0000
  H   H4958     1.0  0.59878  0.26120  0.28456  1.0000
  H   H4959     1.0  0.72797  0.38604  0.28484  1.0000
  C   C2882     1.0  0.56366  0.20772  0.27907  1.0000
  C   C2883     1.0  0.56225  0.19525  0.27618  1.0000
  C   C2884     1.0  0.56774  0.19254  0.26238  1.0000
  C   C2885     1.0  0.57527  0.20190  0.25165  1.0000
  C   C2886     1.0  0.57688  0.21428  0.25458  1.0000
  C   C2887     1.0  0.57078  0.21736  0.26824  1.0000
  H   H4960     1.0  0.55682  0.18775  0.28455  1.0000
  H   H4961     1.0  0.56650  0.18298  0.26008  1.0000
  H   H4962     1.0  0.58257  0.22161  0.24623  1.0000
  H   H4963     1.0  0.57176  0.22706  0.27046  1.0000
  H   H4964     1.0  0.73267  0.43864  0.47577  1.0000
  C   C2888     1.0  0.65154  0.21418  0.27187  1.0000
  C   C2889     1.0  0.64854  0.21805  0.25819  1.0000
  C   C2890     1.0  0.64672  0.20768  0.25215  1.0000
  C   C2891     1.0  0.64807  0.19338  0.25971  1.0000
  C   C2892     1.0  0.65153  0.18940  0.27320  1.0000
  C   C2893     1.0  0.65326  0.19980  0.27928  1.0000
  H   H4965     1.0  0.64783  0.22900  0.25215  1.0000
  H   H4966     1.0  0.64439  0.21079  0.24158  1.0000
  H   H4967     1.0  0.65268  0.17834  0.27904  1.0000
  H   H4968     1.0  0.65573  0.19671  0.28980  1.0000
  H   H4969     1.0  0.71949  0.30631  0.42708  1.0000
  H   H4970     1.0  0.65088  0.39266  0.26616  1.0000
  H   H4971     1.0  0.68232  0.25900  0.30311  1.0000
  H   H4972     1.0  0.72024  0.18725  0.23324  1.0000
  H   H4973     1.0  0.60169  0.47238  0.24270  1.0000
  H   H4974     1.0  0.70098  0.25310  0.30166  1.0000
  C   C2894     1.0  0.66990  0.30563  0.35009  1.0000
  C   C2895     1.0  0.67012  0.29636  0.36355  1.0000
  C   C2896     1.0  0.67529  0.29968  0.37372  1.0000
  C   C2897     1.0  0.68010  0.31239  0.37061  1.0000
  C   C2898     1.0  0.68009  0.32163  0.35708  1.0000
  C   C2899     1.0  0.67518  0.31813  0.34676  1.0000
  H   H4975     1.0  0.66659  0.28645  0.36606  1.0000
  H   H4976     1.0  0.67546  0.29241  0.38410  1.0000
  H   H4977     1.0  0.68396  0.33138  0.35452  1.0000
  H   H4978     1.0  0.67517  0.32529  0.33631  1.0000
  C   C2900     1.0  0.59112  0.28244  0.32679  1.0000
  C   C2901     1.0  0.58792  0.28124  0.31429  1.0000
  C   C2902     1.0  0.57735  0.27390  0.31524  1.0000
  C   C2903     1.0  0.56963  0.26806  0.32870  1.0000
  C   C2904     1.0  0.57312  0.26893  0.34115  1.0000
  C   C2905     1.0  0.58389  0.27598  0.34021  1.0000
  H   H4979     1.0  0.59357  0.28609  0.30387  1.0000
  H   H4980     1.0  0.57493  0.27298  0.30561  1.0000
  H   H4981     1.0  0.56725  0.26439  0.35160  1.0000
  H   H4982     1.0  0.58624  0.27685  0.34990  1.0000
  C   C2906     1.0  0.65301  0.23114  0.35825  1.0000
  C   C2907     1.0  0.65861  0.23743  0.34401  1.0000
  C   C2908     1.0  0.67022  0.22952  0.33568  1.0000
  C   C2909     1.0  0.67663  0.21555  0.34181  1.0000
  C   C2910     1.0  0.67124  0.20944  0.35613  1.0000
  C   C2911     1.0  0.65928  0.21711  0.36425  1.0000
  H   H4983     1.0  0.65392  0.24826  0.33934  1.0000
  H   H4984     1.0  0.67446  0.23430  0.32465  1.0000
  H   H4985     1.0  0.67623  0.19865  0.36088  1.0000
  H   H4986     1.0  0.65500  0.21219  0.37524  1.0000
  H   H4987     1.0  0.56414  0.30993  0.25978  1.0000
  C   C2912     1.0  0.68282  0.28782  0.30423  1.0000
  H   H4988     1.0  0.49772  0.29630  0.25437  1.0000
  S   S860      1.0  0.51438  0.33122  0.23823  1.0000
  H   H4989     1.0  0.73138  0.26174  0.25972  1.0000
  H   H4990     1.0  0.50014  0.20306  0.27923  1.0000
  C   C2913     1.0  0.71397  0.37004  0.44645  1.0000
  C   C2914     1.0  0.71914  0.35520  0.44977  1.0000
  H   H4991     1.0  0.71688  0.44553  0.46913  1.0000
  C   C2915     1.0  0.71689  0.35327  0.42652  1.0000
  C   C2916     1.0  0.71189  0.36816  0.42304  1.0000
  H   H4992     1.0  0.54197  0.34414  0.26577  1.0000
  H   H4993     1.0  0.68700  0.29160  0.47099  1.0000
  C   C2917     1.0  0.54242  0.32122  0.27622  1.0000
  H   H4994     1.0  0.70924  0.37323  0.41268  1.0000
  N   N207      1.0  0.67951  0.39592  0.26166  1.0000
  C   C2918     1.0  0.66732  0.39161  0.28896  1.0000
  C   C2919     1.0  0.59912  0.48117  0.27725  1.0000
  H   H4995     1.0  0.58113  0.29255  0.27230  1.0000
  H   H4996     1.0  0.69567  0.41795  0.25099  1.0000
  C   C2920     1.0  0.63812  0.29261  0.42446  1.0000
  C   C2921     1.0  0.64416  0.29050  0.41048  1.0000
  C   C2922     1.0  0.63551  0.29284  0.40072  1.0000
  C   C2923     1.0  0.62066  0.29716  0.40487  1.0000
  C   C2924     1.0  0.61461  0.29970  0.41875  1.0000
  C   C2925     1.0  0.62331  0.29743  0.42855  1.0000
  H   H4997     1.0  0.65563  0.28704  0.40718  1.0000
  H   H4998     1.0  0.64043  0.29153  0.38993  1.0000
  H   H4999     1.0  0.60314  0.30318  0.42204  1.0000
  H   H5000     1.0  0.61855  0.29915  0.43932  1.0000
  H   H5001     1.0  0.72581  0.29454  0.45688  1.0000
  H   H5002     1.0  0.65687  0.39621  0.29545  1.0000
  H   H5003     1.0  0.60616  0.24715  0.41567  1.0000
  C   C2926     1.0  0.70570  0.41189  0.30254  1.0000
  H   H5004     1.0  0.54719  0.31053  0.31103  1.0000
  N   N208      1.0  0.60998  0.25355  0.25267  1.0000
  H   H5005     1.0  0.59746  0.22757  0.26804  1.0000
  H   H5006     1.0  0.72926  0.18377  0.27178  1.0000
  H   H5007     1.0  0.61920  0.46542  0.28242  1.0000
  H   H5008     1.0  0.55510  0.29425  0.28635  1.0000
  C   C2927     1.0  0.72139  0.40732  0.27238  1.0000
  C   C2928     1.0  0.60145  0.26481  0.26115  1.0000
  H   H5009     1.0  0.58149  0.32744  0.28397  1.0000
  S   S861      1.0  0.71831  0.34197  0.41494  1.0000
  C   C2929     1.0  0.55879  0.32799  0.28614  1.0000
  H   H5010     1.0  0.72725  0.32213  0.24421  1.0000
  H   H5011     1.0  0.68086  0.48017  0.23143  1.0000
  C   C2930     1.0  0.72101  0.29692  0.43619  1.0000
  C   C2931     1.0  0.61485  0.23911  0.26200  1.0000
  H   H5012     1.0  0.50002  0.19740  0.32197  1.0000
  S   S862      1.0  0.71884  0.23766  0.26509  1.0000
  H   H5013     1.0  0.54742  0.29215  0.31274  1.0000
  H   H5014     1.0  0.63798  0.25279  0.25668  1.0000
  H   H5015     1.0  0.70482  0.16065  0.25585  1.0000
  H   H5016     1.0  0.60636  0.27610  0.27458  1.0000
  S   S863      1.0  0.49999  0.26230  0.29971  1.0000
  C   C2932     1.0  0.58248  0.30382  0.26869  1.0000
  C   C2933     1.0  0.50994  0.19564  0.31350  1.0000
  H   H5017     1.0  0.70489  0.37200  0.32566  1.0000
  C   C2934     1.0  0.70341  0.45089  0.23612  1.0000
  C   C2935     1.0  0.73269  0.17319  0.26944  1.0000
  H   H5018     1.0  0.62073  0.23120  0.25517  1.0000
  H   H5019     1.0  0.71587  0.41416  0.46608  1.0000
  H   H5020     1.0  0.55951  0.33793  0.27760  1.0000
  C   C2936     1.0  0.49391  0.24782  0.26766  1.0000
  C   C2937     1.0  0.71811  0.38695  0.31221  1.0000
  C   C2938     1.0  0.60291  0.23250  0.27314  1.0000
  H   H5021     1.0  0.58740  0.30621  0.27621  1.0000
  C   C2939     1.0  0.68525  0.26706  0.32419  1.0000
  H   H5022     1.0  0.65551  0.37857  0.25675  1.0000
  H   H5023     1.0  0.52437  0.21792  0.30829  1.0000
  C   C2940     1.0  0.60771  0.46662  0.25125  1.0000
  H   H5024     1.0  0.72244  0.40255  0.26316  1.0000
  H   H5025     1.0  0.69912  0.32505  0.44514  1.0000
  H   H5026     1.0  0.60545  0.25001  0.31793  1.0000
  C   C2941     1.0  0.72072  0.34692  0.43980  1.0000
  C   C2942     1.0  0.72049  0.27705  0.36046  1.0000
  H   H5027     1.0  0.67448  0.26524  0.32513  1.0000
  H   H5028     1.0  0.65981  0.40862  0.27202  1.0000
  H   H5029     1.0  0.53299  0.18716  0.31343  1.0000
  C   C2943     1.0  0.71597  0.30267  0.34921  1.0000
  H   H5030     1.0  0.71158  0.32585  0.34139  1.0000
  C   C2944     1.0  0.63361  0.26181  0.24852  1.0000
  H   H5031     1.0  0.70732  0.30357  0.35891  1.0000
  C   C2945     1.0  0.52413  0.21666  0.27525  1.0000
  H   H5032     1.0  0.68205  0.15327  0.23473  1.0000
  H   H5033     1.0  0.60686  0.24822  0.35864  1.0000
  H   H5034     1.0  0.71819  0.48061  0.29414  1.0000
  H   H5035     1.0  0.64288  0.38972  0.45809  1.0000
  S   S864      1.0  0.71149  0.38068  0.45903  1.0000
  H   H5036     1.0  0.61444  0.23046  0.35598  1.0000
  N   N209      1.0  0.62522  0.23945  0.32537  1.0000
  S   S865      1.0  0.63085  0.41416  0.23945  1.0000
  H   H5037     1.0  0.62846  0.25162  0.39471  1.0000
  H   H5038     1.0  0.70774  0.29708  0.29849  1.0000
  H   H5039     1.0  0.62636  0.26946  0.42287  1.0000
  C   C2946     1.0  0.70675  0.27448  0.30846  1.0000
  H   H5040     1.0  0.62068  0.26316  0.30176  1.0000
  H   H5041     1.0  0.53142  0.28548  0.26903  1.0000
  N   N210      1.0  0.69188  0.27318  0.30880  1.0000
  C   C2947     1.0  0.71404  0.44775  0.25632  1.0000
  H   H5042     1.0  0.69901  0.36682  0.26665  1.0000
  H   H5043     1.0  0.62499  0.23556  0.29844  1.0000
  H   H5044     1.0  0.66567  0.28046  0.29987  1.0000
  H   H5045     1.0  0.72694  0.47558  0.24312  1.0000
  H   H5046     1.0  0.59922  0.24144  0.34843  1.0000
  C   C2948     1.0  0.55359  0.45521  0.22800  1.0000
  H   H5047     1.0  0.67566  0.39010  0.29502  1.0000
  H   H5048     1.0  0.70966  0.37316  0.27419  1.0000
  C   C2949     1.0  0.69481  0.26866  0.28342  1.0000
  C   C2950     1.0  0.70208  0.45199  0.25016  1.0000
  C   C2951     1.0  0.72873  0.44100  0.23426  1.0000
  H   H5049     1.0  0.70522  0.27166  0.27877  1.0000
  H   H5050     1.0  0.66621  0.38110  0.28827  1.0000
  C   C2952     1.0  0.67025  0.40210  0.27431  1.0000
  H   H5051     1.0  0.52181  0.19511  0.28633  1.0000
  C   C2953     1.0  0.62484  0.25679  0.40400  1.0000
  H   H5052     1.0  0.55305  0.44606  0.23746  1.0000
  C   C2954     1.0  0.64884  0.25133  0.40896  1.0000
  H   H5053     1.0  0.61665  0.25617  0.43294  1.0000
  Fe  Fe433     1.0  0.64111  0.29438  0.45823  1.0000
  H   H5054     1.0  0.69797  0.39764  0.26792  1.0000
  H   H5055     1.0  0.53376  0.32411  0.28545  1.0000
  C   C2955     1.0  0.60864  0.25756  0.40924  1.0000
  H   H5056     1.0  0.70130  0.33109  0.46502  1.0000
  H   H5057     1.0  0.59013  0.26366  0.26505  1.0000
  H   H5058     1.0  0.71980  0.14398  0.27228  1.0000
  H   H5059     1.0  0.72975  0.37505  0.24487  1.0000
  C   C2956     1.0  0.70313  0.41741  0.31633  1.0000
  H   H5060     1.0  0.70572  0.48023  0.26166  1.0000
  C   C2957     1.0  0.64608  0.44954  0.23476  1.0000
  H   H5061     1.0  0.68353  0.27481  0.33109  1.0000
  H   H5062     1.0  0.70678  0.38803  0.43016  1.0000
  H   H5063     1.0  0.56139  0.46091  0.22879  1.0000
  H   H5064     1.0  0.62972  0.25897  0.44809  1.0000
  H   H5065     1.0  0.62876  0.24920  0.34070  1.0000
  H   H5066     1.0  0.63893  0.24209  0.44343  1.0000
  C   C2958     1.0  0.70281  0.30758  0.47283  1.0000
  S   S866      1.0  0.73059  0.35718  0.33913  1.0000
  H   H5067     1.0  0.53303  0.20204  0.29234  1.0000
  C   C2959     1.0  0.61575  0.23260  0.30684  1.0000
  H   H5068     1.0  0.70698  0.26358  0.35971  1.0000
  H   H5069     1.0  0.56989  0.33135  0.30055  1.0000
  C   C2960     1.0  0.72692  0.24294  0.27573  1.0000
  H   H5070     1.0  0.69538  0.24398  0.32554  1.0000
  H   H5071     1.0  0.64919  0.26291  0.40545  1.0000
  H   H5072     1.0  0.68775  0.24899  0.34239  1.0000
  H   H5073     1.0  0.68129  0.32352  0.43418  1.0000
  S   S867      1.0  0.71791  0.33369  0.37903  1.0000
  C   C2961     1.0  0.63623  0.25381  0.43905  1.0000
  C   C2962     1.0  0.54581  0.30294  0.30544  1.0000
  C   C2963     1.0  0.63925  0.38225  0.45413  1.0000
  S   S868      1.0  0.58308  0.19755  0.23489  1.0000
  N   N211      1.0  0.69549  0.17450  0.23830  1.0000
  H   H5074     1.0  0.70645  0.42150  0.29360  1.0000
  C   C2964     1.0  0.64036  0.43941  0.23196  1.0000
  H   H5075     1.0  0.71316  0.27959  0.37061  1.0000
  H   H5076     1.0  0.60450  0.46730  0.29718  1.0000
  C   C2965     1.0  0.68275  0.15983  0.26194  1.0000
  H   H5077     1.0  0.69577  0.40900  0.30225  1.0000
  H   H5078     1.0  0.73173  0.41601  0.29104  1.0000
  H   H5079     1.0  0.69501  0.28796  0.45382  1.0000
  C   C2966     1.0  0.59511  0.26457  0.23293  1.0000
  H   H5080     1.0  0.60411  0.45765  0.28484  1.0000
  H   H5081     1.0  0.69403  0.45389  0.23160  1.0000
  H   H5082     1.0  0.65003  0.38442  0.41980  1.0000
  C   C2967     1.0  0.52261  0.20488  0.28917  1.0000
  C   C2968     1.0  0.62289  0.25825  0.24218  1.0000
  H   H5083     1.0  0.72599  0.43275  0.44993  1.0000
  H   H5084     1.0  0.69960  0.18662  0.25142  1.0000
  C   C2969     1.0  0.72081  0.31703  0.34386  1.0000
  H   H5085     1.0  0.67347  0.16055  0.25754  1.0000
  H   H5086     1.0  0.68464  0.14916  0.26936  1.0000
  C   C2970     1.0  0.61258  0.23917  0.32003  1.0000
  H   H5087     1.0  0.58685  0.26209  0.22902  1.0000
  H   H5088     1.0  0.60638  0.24263  0.23826  1.0000
  C   C2971     1.0  0.70752  0.32158  0.47129  1.0000
  H   H5089     1.0  0.53304  0.21225  0.26697  1.0000
  C   C2972     1.0  0.69741  0.29033  0.46306  1.0000
  C   C2973     1.0  0.63250  0.22442  0.33183  1.0000
  H   H5090     1.0  0.63785  0.22459  0.34025  1.0000
  H   H5091     1.0  0.60095  0.27572  0.25403  1.0000
  H   H5092     1.0  0.69491  0.25996  0.27836  1.0000
  H   H5093     1.0  0.64607  0.25818  0.43511  1.0000
  H   H5094     1.0  0.53975  0.31230  0.27344  1.0000
  H   H5095     1.0  0.64070  0.21560  0.31207  1.0000
  H   H5096     1.0  0.66844  0.41243  0.24642  1.0000
  N   N212      1.0  0.63792  0.33887  0.38737  1.0000
  C   C2974     1.0  0.64997  0.34655  0.38000  1.0000
  C   C2975     1.0  0.63971  0.32674  0.38023  1.0000
  C   C2976     1.0  0.63799  0.33273  0.40310  1.0000
  C   C2977     1.0  0.62392  0.34940  0.38617  1.0000
  C   C2978     1.0  0.65033  0.35880  0.38654  1.0000
  C   C2979     1.0  0.63897  0.33102  0.36423  1.0000
  C   C2980     1.0  0.65247  0.32392  0.40660  1.0000
  C   C2981     1.0  0.61055  0.34279  0.39082  1.0000
  H   H5097     1.0  0.66051  0.33887  0.37955  1.0000
  H   H5098     1.0  0.64952  0.35156  0.36858  1.0000
  H   H5099     1.0  0.63154  0.32028  0.38590  1.0000
  H   H5100     1.0  0.65011  0.31914  0.38090  1.0000
  H   H5101     1.0  0.63416  0.34133  0.40931  1.0000
  H   H5102     1.0  0.63040  0.32546  0.40803  1.0000
  H   H5103     1.0  0.62193  0.35749  0.39272  1.0000
  H   H5104     1.0  0.62440  0.35559  0.37487  1.0000
  H   H5105     1.0  0.64109  0.36794  0.38519  1.0000
  H   H5106     1.0  0.65090  0.35520  0.39802  1.0000
  H   H5107     1.0  0.66008  0.36300  0.38068  1.0000
  H   H5108     1.0  0.62865  0.33815  0.36238  1.0000
  H   H5109     1.0  0.64793  0.33598  0.35735  1.0000
  H   H5110     1.0  0.63997  0.32113  0.36054  1.0000
  H   H5111     1.0  0.65092  0.31942  0.41837  1.0000
  H   H5112     1.0  0.66056  0.33053  0.40377  1.0000
  H   H5113     1.0  0.65685  0.31469  0.40132  1.0000
  H   H5114     1.0  0.60127  0.35034  0.39582  1.0000
  H   H5115     1.0  0.61149  0.33243  0.39878  1.0000
  H   H5116     1.0  0.60760  0.34153  0.38131  1.0000
  H   H5117     1.0  0.73222  0.29076  0.43383  1.0000
  H   H5118     1.0  0.59495  0.24035  0.27890  1.0000
  H   H5119     1.0  0.68605  0.42806  0.23751  1.0000
  H   H5120     1.0  0.71062  0.30204  0.34102  1.0000
  C   C2982     1.0  0.60950  0.24140  0.35069  1.0000
  H   H5121     1.0  0.69433  0.20971  0.23784  1.0000
  C   C2983     1.0  0.61972  0.24784  0.33709  1.0000
  C   C2984     1.0  0.61581  0.47638  0.25407  1.0000
  H   H5122     1.0  0.71575  0.33572  0.23430  1.0000
  C   C2985     1.0  0.72207  0.17602  0.23222  1.0000
  N   N213      1.0  0.72749  0.28941  0.35213  1.0000
  C   C2986     1.0  0.69336  0.31628  0.45105  1.0000
  H   H5123     1.0  0.64728  0.36598  0.44156  1.0000
  H   H5124     1.0  0.63181  0.38842  0.44697  1.0000
  H   H5125     1.0  0.68401  0.32108  0.45876  1.0000
  H   H5126     1.0  0.52109  0.18036  0.32939  1.0000
  C   C2987     1.0  0.52400  0.30565  0.25543  1.0000
  H   H5127     1.0  0.72360  0.22537  0.29388  1.0000
  C   C2988     1.0  0.49237  0.25630  0.28892  1.0000
  H   H5128     1.0  0.53468  0.30548  0.30404  1.0000
  H   H5129     1.0  0.64480  0.24719  0.31832  1.0000
  C   C2989     1.0  0.68500  0.42092  0.24838  1.0000
  C   C2990     1.0  0.50268  0.22534  0.31954  1.0000
  H   H5130     1.0  0.52365  0.19807  0.32648  1.0000
  H   H5131     1.0  0.67242  0.35020  0.47079  1.0000
  H   H5132     1.0  0.61734  0.25863  0.27541  1.0000
  H   H5133     1.0  0.72920  0.31718  0.33385  1.0000
  H   H5134     1.0  0.54922  0.33156  0.29434  1.0000
  H   H5135     1.0  0.60654  0.23697  0.30152  1.0000
  N   N214      1.0  0.60368  0.16802  0.27951  1.0000
  C   C2991     1.0  0.60639  0.17081  0.26332  1.0000
  C   C2992     1.0  0.60064  0.18234  0.28347  1.0000
  C   C2993     1.0  0.59076  0.16131  0.28568  1.0000
  C   C2994     1.0  0.61680  0.15790  0.28405  1.0000
  C   C2995     1.0  0.60825  0.15768  0.25698  1.0000
  C   C2996     1.0  0.61319  0.18998  0.27862  1.0000
  C   C2997     1.0  0.58217  0.16299  0.30089  1.0000
  C   C2998     1.0  0.61726  0.15486  0.30004  1.0000
  H   H5136     1.0  0.59755  0.17919  0.25927  1.0000
  H   H5137     1.0  0.61618  0.17513  0.25815  1.0000
  H   H5138     1.0  0.59709  0.18156  0.29521  1.0000
  H   H5139     1.0  0.59157  0.18983  0.27895  1.0000
  H   H5140     1.0  0.58284  0.16593  0.27868  1.0000
  H   H5141     1.0  0.59383  0.14960  0.28591  1.0000
  H   H5142     1.0  0.61819  0.14722  0.28172  1.0000
  H   H5143     1.0  0.62678  0.16140  0.27744  1.0000
  H   H5144     1.0  0.61833  0.14976  0.25843  1.0000
  H   H5145     1.0  0.59905  0.15238  0.26132  1.0000
  H   H5146     1.0  0.60890  0.16132  0.24523  1.0000
  H   H5147     1.0  0.62274  0.18327  0.28269  1.0000
  H   H5148     1.0  0.61601  0.19358  0.26681  1.0000
  H   H5149     1.0  0.60995  0.19972  0.28310  1.0000
  H   H5150     1.0  0.58891  0.15958  0.30890  1.0000
  H   H5151     1.0  0.57414  0.15618  0.30456  1.0000
  H   H5152     1.0  0.57609  0.17422  0.30081  1.0000
  H   H5153     1.0  0.61221  0.14572  0.30637  1.0000
  H   H5154     1.0  0.61233  0.16424  0.30499  1.0000
  H   H5155     1.0  0.62859  0.15207  0.30098  1.0000
  C   C2999     1.0  0.67409  0.38424  0.25920  1.0000
  H   H5156     1.0  0.70933  0.39242  0.28721  1.0000
  C   C3000     1.0  0.71314  0.28619  0.29654  1.0000
  H   H5157     1.0  0.69487  0.30792  0.43193  1.0000
  H   H5158     1.0  0.59016  0.30458  0.25811  1.0000
  N   N215      1.0  0.66316  0.37888  0.43555  1.0000
  C   C3001     1.0  0.65602  0.38962  0.42413  1.0000
  C   C3002     1.0  0.65183  0.37195  0.44657  1.0000
  C   C3003     1.0  0.67409  0.36770  0.42829  1.0000
  C   C3004     1.0  0.67017  0.38679  0.44169  1.0000
  C   C3005     1.0  0.66608  0.39714  0.41114  1.0000
  H   H5159     1.0  0.62271  0.23925  0.26789  1.0000
  C   C3006     1.0  0.67994  0.35348  0.43799  1.0000
  C   C3007     1.0  0.67385  0.37982  0.45657  1.0000
  H   H5160     1.0  0.72106  0.38833  0.32168  1.0000
  H   H5161     1.0  0.64797  0.39839  0.42866  1.0000
  H   H5162     1.0  0.65635  0.36361  0.45515  1.0000
  C   C3008     1.0  0.56814  0.31427  0.26675  1.0000
  H   H5163     1.0  0.66956  0.36465  0.42076  1.0000
  H   H5164     1.0  0.68354  0.37202  0.42153  1.0000
  H   H5165     1.0  0.68037  0.38884  0.43423  1.0000
  H   H5166     1.0  0.66370  0.39780  0.44233  1.0000
  H   H5167     1.0  0.67187  0.40335  0.41437  1.0000
  H   H5168     1.0  0.67386  0.38948  0.40494  1.0000
  H   H5169     1.0  0.65964  0.40484  0.40360  1.0000
  C   C3009     1.0  0.63587  0.24690  0.31380  1.0000
  C   C3010     1.0  0.72895  0.29486  0.37568  1.0000
  H   H5170     1.0  0.67499  0.38833  0.46117  1.0000
  H   H5171     1.0  0.67162  0.34721  0.44372  1.0000
  H   H5172     1.0  0.68534  0.35495  0.44560  1.0000
  H   H5173     1.0  0.68814  0.34681  0.43100  1.0000
  H   H5174     1.0  0.68409  0.37181  0.45593  1.0000
  H   H5175     1.0  0.66528  0.37519  0.46467  1.0000
  C   C3011     1.0  0.60065  0.25138  0.24413  1.0000
  C   C3012     1.0  0.63301  0.23407  0.42146  1.0000
  C   C3013     1.0  0.65707  0.24436  0.39614  1.0000
  C   C3014     1.0  0.63286  0.22519  0.41094  1.0000
  H   H5176     1.0  0.65550  0.24661  0.41714  1.0000
  H   H5177     1.0  0.64208  0.22840  0.42685  1.0000
  H   H5178     1.0  0.62312  0.23323  0.43002  1.0000
  H   H5179     1.0  0.65932  0.23249  0.39942  1.0000
  H   H5180     1.0  0.66763  0.24739  0.39204  1.0000
  H   H5181     1.0  0.65168  0.24816  0.38700  1.0000
  H   H5182     1.0  0.63871  0.21397  0.41431  1.0000
  H   H5183     1.0  0.63796  0.22892  0.39960  1.0000
  H   H5184     1.0  0.62179  0.22443  0.41162  1.0000
  H   H5185     1.0  0.61729  0.22073  0.31003  1.0000
  H   H5186     1.0  0.72184  0.31215  0.44707  1.0000
  C   C3015     1.0  0.69383  0.25256  0.33131  1.0000
  C   C3016     1.0  0.51342  0.22071  0.30622  1.0000
  C   C3017     1.0  0.69243  0.26292  0.29981  1.0000
  H   H5187     1.0  0.65754  0.39598  0.24679  1.0000
  N   N216      1.0  0.51060  0.20880  0.30147  1.0000
  H   H5188     1.0  0.61553  0.45744  0.24727  1.0000
  H   H5189     1.0  0.50018  0.24483  0.25771  1.0000
  H   H5190     1.0  0.69148  0.42128  0.32020  1.0000
  H   H5191     1.0  0.72454  0.28464  0.29672  1.0000
  C   C3018     1.0  0.66701  0.28830  0.30516  1.0000
  H   H5192     1.0  0.62891  0.27159  0.25294  1.0000
  H   H5193     1.0  0.62896  0.24986  0.23595  1.0000
  H   H5194     1.0  0.52976  0.33657  0.26165  1.0000
  C   C3019     1.0  0.68684  0.31321  0.44010  1.0000
  H   H5195     1.0  0.60348  0.26601  0.41554  1.0000
  Fe  Fe434     1.0  0.63413  0.19264  0.23428  1.0000
  C   C3020     1.0  0.69078  0.20213  0.23391  1.0000
  H   H5196     1.0  0.63303  0.37582  0.46359  1.0000
  C   C3021     1.0  0.72742  0.44230  0.24833  1.0000
  H   H5197     1.0  0.60369  0.26070  0.39977  1.0000
  H   H5198     1.0  0.49275  0.31639  0.23831  1.0000
  H   H5199     1.0  0.51307  0.30665  0.26140  1.0000
  C   C3022     1.0  0.54073  0.33430  0.26351  1.0000
  H   H5200     1.0  0.67467  0.37462  0.26811  1.0000
  C   C3023     1.0  0.52272  0.19018  0.32097  1.0000
  C   C3024     1.0  0.64423  0.21598  0.32154  1.0000
  S   S869      1.0  0.65717  0.29430  0.47025  1.0000
  H   H5201     1.0  0.67730  0.42747  0.25577  1.0000
  H   H5202     1.0  0.69155  0.37319  0.28316  1.0000
  C   C3025     1.0  0.69871  0.37503  0.27244  1.0000
  H   H5203     1.0  0.56733  0.29766  0.29401  1.0000
  H   H5204     1.0  0.50213  0.21644  0.32917  1.0000
  H   H5205     1.0  0.49578  0.22461  0.28971  1.0000
  H   H5206     1.0  0.68720  0.29297  0.29298  1.0000
  N   N217      1.0  0.63362  0.24966  0.41527  1.0000
  H   H5207     1.0  0.62620  0.26802  0.39932  1.0000
  H   H5208     1.0  0.64113  0.24095  0.30513  1.0000
  H   H5209     1.0  0.63839  0.26612  0.29715  1.0000
  H   H5210     1.0  0.67856  0.30681  0.44556  1.0000
  C   C3026     1.0  0.72537  0.32687  0.23325  1.0000
  C   C3027     1.0  0.62991  0.26239  0.30627  1.0000
  H   H5211     1.0  0.67511  0.41002  0.27622  1.0000
  C   C3028     1.0  0.72284  0.16447  0.27277  1.0000
  H   H5212     1.0  0.57061  0.32472  0.26014  1.0000
  H   H5213     1.0  0.62698  0.26993  0.31353  1.0000
  H   H5214     1.0  0.72216  0.35009  0.45991  1.0000
  C   C3029     1.0  0.67942  0.40789  0.24834  1.0000
  H   H5215     1.0  0.70219  0.39008  0.25263  1.0000
  S   S870      1.0  0.62749  0.31567  0.46182  1.0000
  H   H5216     1.0  0.71289  0.28585  0.28563  1.0000
  C   C3030     1.0  0.71052  0.37652  0.43295  1.0000
  H   H5217     1.0  0.68110  0.38030  0.24955  1.0000
  H   H5218     1.0  0.68298  0.29515  0.31087  1.0000
  H   H5219     1.0  0.66197  0.29919  0.29977  1.0000
  C   C3031     1.0  0.71152  0.27278  0.35256  1.0000
  C   C3032     1.0  0.53446  0.29375  0.25988  1.0000
  H   H5220     1.0  0.71451  0.26407  0.30793  1.0000
  H   H5221     1.0  0.50930  0.18647  0.30952  1.0000
  C   C3033     1.0  0.62760  0.25772  0.42726  1.0000
  H   H5222     1.0  0.69170  0.45594  0.25618  1.0000
  H   H5223     1.0  0.71210  0.41654  0.27211  1.0000
  H   H5224     1.0  0.61382  0.25887  0.33312  1.0000
  H   H5225     1.0  0.66101  0.28658  0.31647  1.0000
  H   H5226     1.0  0.70706  0.27696  0.31864  1.0000
  C   C3034     1.0  0.73343  0.43178  0.45682  1.0000
  N   N218      1.0  0.55684  0.31642  0.28021  1.0000
  C   C3035     1.0  0.60647  0.26490  0.27459  1.0000
  C   C3036     1.0  0.55684  0.30238  0.29110  1.0000
  C   C3037     1.0  0.49643  0.21390  0.29706  1.0000
  C   C3038     1.0  0.71931  0.39572  0.28641  1.0000
  C   C3039     1.0  0.65861  0.38833  0.25715  1.0000
  H   H5227     1.0  0.68611  0.27772  0.28022  1.0000
  H   H5228     1.0  0.69986  0.38061  0.30887  1.0000
  H   H5229     1.0  0.71972  0.47323  0.27924  1.0000
  H   H5230     1.0  0.71700  0.27324  0.46112  1.0000
  C   C3040     1.0  0.71818  0.30190  0.45030  1.0000
  H   H5231     1.0  0.70671  0.40901  0.32536  1.0000
  C   C3041     1.0  0.70737  0.27645  0.46935  1.0000
  C   C3042     1.0  0.72734  0.15082  0.26960  1.0000
  H   H5232     1.0  0.60036  0.46215  0.26104  1.0000
  H   H5233     1.0  0.56354  0.30267  0.23490  1.0000
  H   H5234     1.0  0.68152  0.18815  0.25249  1.0000
  C   C3043     1.0  0.60744  0.46716  0.28556  1.0000
  H   H5235     1.0  0.68007  0.16789  0.26862  1.0000
  H   H5236     1.0  0.62437  0.46922  0.25937  1.0000
  C   C3044     1.0  0.73677  0.28669  0.33791  1.0000
  H   H5237     1.0  0.57493  0.31359  0.29856  1.0000
  C   C3045     1.0  0.50168  0.27954  0.23744  1.0000
  C   C3046     1.0  0.69649  0.16122  0.25020  1.0000
  H   H5238     1.0  0.72624  0.37745  0.30910  1.0000
  C   C3047     1.0  0.57212  0.32474  0.29248  1.0000
  N   N219      1.0  0.71870  0.40003  0.30001  1.0000
  H   H5239     1.0  0.72832  0.28490  0.38416  1.0000
  C   C3048     1.0  0.70364  0.38233  0.31761  1.0000
  H   H5240     1.0  0.58998  0.27422  0.23747  1.0000
  H   H5241     1.0  0.72378  0.35131  0.25133  1.0000
  C   C3049     1.0  0.73134  0.35314  0.25625  1.0000
  Fe  Fe435     1.0  0.71646  0.35353  0.36137  1.0000
  H   H5242     1.0  0.59092  0.24787  0.25139  1.0000
  C   C3050     1.0  0.49272  0.20401  0.28972  1.0000
  C   C3051     1.0  0.54193  0.31507  0.23585  1.0000
  C   C3052     1.0  0.72786  0.23494  0.28959  1.0000
  H   H5243     1.0  0.67317  0.17865  0.23768  1.0000
  C   C3053     1.0  0.73673  0.29130  0.36087  1.0000
  H   H5244     1.0  0.69536  0.39021  0.32316  1.0000
  C   C3054     1.0  0.69200  0.18747  0.24470  1.0000
  H   H5245     1.0  0.71912  0.32064  0.46661  1.0000
  H   H5246     1.0  0.70156  0.26756  0.47308  1.0000
  H   H5247     1.0  0.72270  0.31888  0.22912  1.0000
  H   H5248     1.0  0.71804  0.26923  0.34263  1.0000
  H   H5249     1.0  0.52543  0.42167  0.22867  1.0000
  H   H5250     1.0  0.72855  0.26734  0.36401  1.0000
  H   H5251     1.0  0.61970  0.26811  0.23412  1.0000
  H   H5252     1.0  0.49085  0.28227  0.26737  1.0000
  S   S871      1.0  0.72214  0.40510  0.23138  1.0000
  H   H5253     1.0  0.50615  0.23377  0.32225  1.0000
  H   H5254     1.0  0.73252  0.48086  0.25608  1.0000
  H   H5255     1.0  0.50580  0.28943  0.23242  1.0000
  C   C3055     1.0  0.71345  0.48196  0.28484  1.0000
  H   H5256     1.0  0.73017  0.28698  0.33041  1.0000
  C   C3056     1.0  0.71672  0.44548  0.22814  1.0000
  C   C3057     1.0  0.70915  0.41966  0.47485  1.0000
  Fe  Fe436     1.0  0.64271  0.31478  0.47526  1.0000
  H   H5257     1.0  0.64290  0.26419  0.23971  1.0000
  C   C3058     1.0  0.73173  0.40548  0.29883  1.0000
  H   H5258     1.0  0.70237  0.48043  0.28926  1.0000
  H   H5259     1.0  0.73161  0.40772  0.30926  1.0000
  C   C3059     1.0  0.48759  0.29328  0.26093  1.0000
  H   H5260     1.0  0.63524  0.48076  0.26757  1.0000
  S   S872      1.0  0.65337  0.33327  0.47130  1.0000
  H   H5261     1.0  0.73487  0.30131  0.37846  1.0000
  H   H5262     1.0  0.72454  0.31959  0.35219  1.0000
  C   C3060     1.0  0.73450  0.23924  0.29792  1.0000
  H   H5263     1.0  0.73533  0.23293  0.30860  1.0000
  H   H5264     1.0  0.62168  0.48155  0.24343  1.0000
  S   S873      1.0  0.62863  0.28161  0.47741  1.0000
  H   H5265     1.0  0.55308  0.38630  0.22952  1.0000
  H   H5266     1.0  0.72415  0.16857  0.24237  1.0000
  H   H5267     1.0  0.73131  0.41120  0.27031  1.0000
  H   H5268     1.0  0.70205  0.42933  0.46961  1.0000
  C   C3061     1.0  0.73485  0.36658  0.25246  1.0000
  Fe  Fe437     1.0  0.65198  0.21812  0.62618  1.0000
  S   S874      1.0  0.64027  0.20193  0.62614  1.0000
  S   S875      1.0  0.67575  0.21415  0.62252  1.0000
  Fe  Fe438     1.0  0.62481  0.23988  0.63353  1.0000
  S   S876      1.0  0.61064  0.22562  0.63427  1.0000
  S   S877      1.0  0.61594  0.26091  0.63996  1.0000
  Fe  Fe439     1.0  0.62588  0.20838  0.64611  1.0000
  S   S878      1.0  0.61875  0.19316  0.66677  1.0000
  Fe  Fe440     1.0  0.62638  0.22080  0.61420  1.0000
  S   S879      1.0  0.62196  0.21876  0.59390  1.0000
  S   S880      1.0  0.63866  0.22315  0.64695  1.0000
  S   S881      1.0  0.63943  0.23651  0.61260  1.0000
  Fe  Fe441     1.0  0.51990  0.28587  0.57510  1.0000
  S   S882      1.0  0.52545  0.30477  0.57891  1.0000
  H   H5269     1.0  0.71181  0.36220  0.66132  1.0000
  Fe  Fe442     1.0  0.55049  0.26823  0.57455  1.0000
  S   S883      1.0  0.55819  0.28542  0.57874  1.0000
  S   S884      1.0  0.56511  0.24726  0.57074  1.0000
  Fe  Fe443     1.0  0.53735  0.28873  0.59468  1.0000
  S   S885      1.0  0.53335  0.29315  0.61670  1.0000
  Fe  Fe444     1.0  0.54574  0.30000  0.56260  1.0000
  S   S886      1.0  0.55614  0.31775  0.54795  1.0000
  S   S887      1.0  0.53070  0.27002  0.59205  1.0000
  S   S888      1.0  0.53928  0.28256  0.55711  1.0000
  Fe  Fe445     1.0  0.72249  0.24473  0.52511  1.0000
  S   S889      1.0  0.71083  0.24325  0.54808  1.0000
  S   S890      1.0  0.71389  0.26450  0.50971  1.0000
  Fe  Fe446     1.0  0.71385  0.22003  0.54835  1.0000
  S   S891      1.0  0.69678  0.20753  0.55861  1.0000
  H   H5270     1.0  0.71328  0.31111  0.50486  1.0000
  H   H5271     1.0  0.70778  0.41980  0.67123  1.0000
  H   H5272     1.0  0.49266  0.34019  0.65821  1.0000
  S   S892      1.0  0.59234  0.30372  0.48824  1.0000
  C   C3062     1.0  0.68611  0.42695  0.61340  1.0000
  H   H5273     1.0  0.58974  0.43013  0.63729  1.0000
  C   C3063     1.0  0.73726  0.40577  0.52946  1.0000
  H   H5274     1.0  0.70565  0.32368  0.48214  1.0000
  S   S893      1.0  0.65131  0.26498  0.50663  1.0000
  H   H5275     1.0  0.50544  0.30613  0.60633  1.0000
  S   S894      1.0  0.62981  0.30416  0.49599  1.0000
  S   S895      1.0  0.71418  0.35234  0.52224  1.0000
  H   H5276     1.0  0.50486  0.28543  0.63110  1.0000
  H   H5277     1.0  0.70842  0.17687  0.55811  1.0000
  S   S896      1.0  0.72329  0.48121  0.58269  1.0000
  H   H5278     1.0  0.65947  0.15733  0.62736  1.0000
  H   H5279     1.0  0.64794  0.19573  0.66314  1.0000
  C   C3064     1.0  0.57642  0.27824  0.63983  1.0000
  H   H5280     1.0  0.60646  0.46434  0.59840  1.0000
  H   H5281     1.0  0.59622  0.45356  0.61949  1.0000
  H   H5282     1.0  0.73536  0.38646  0.59893  1.0000
  Fe  Fe447     1.0  0.71300  0.16194  0.68688  1.0000
  S   S897      1.0  0.71906  0.34569  0.49014  1.0000
  C   C3065     1.0  0.64981  0.17661  0.69706  1.0000
  Fe  Fe448     1.0  0.63983  0.42461  0.67928  1.0000
  S   S898      1.0  0.61749  0.43040  0.69207  1.0000
  S   S899      1.0  0.65849  0.41078  0.68870  1.0000
  Fe  Fe449     1.0  0.61082  0.42704  0.67361  1.0000
  S   S900      1.0  0.59285  0.41528  0.67887  1.0000
  S   S901      1.0  0.63320  0.41953  0.66176  1.0000
  Fe  Fe450     1.0  0.56585  0.37466  0.63971  1.0000
  S   S902      1.0  0.54451  0.37827  0.65503  1.0000
  S   S903      1.0  0.58341  0.38711  0.63314  1.0000
  Fe  Fe451     1.0  0.56224  0.34628  0.63602  1.0000
  S   S904      1.0  0.54106  0.34708  0.65154  1.0000
  S   S905      1.0  0.57335  0.32938  0.62309  1.0000
  Fe  Fe452     1.0  0.53619  0.37030  0.64033  1.0000
  Fe  Fe453     1.0  0.55112  0.35482  0.66481  1.0000
  S   S906      1.0  0.55136  0.34677  0.68823  1.0000
  S   S907      1.0  0.55702  0.36904  0.62398  1.0000
  S   S908      1.0  0.57280  0.35169  0.65035  1.0000
  Fe  Fe454     1.0  0.63045  0.29582  0.71318  1.0000
  C   C3066     1.0  0.56169  0.32922  0.69070  1.0000
  C   C3067     1.0  0.56793  0.32345  0.70266  1.0000
  H   H5283     1.0  0.68948  0.31867  0.71348  1.0000
  H   H5284     1.0  0.56564  0.32949  0.71084  1.0000
  H   H5285     1.0  0.58951  0.26798  0.60215  1.0000
  C   C3068     1.0  0.59056  0.40687  0.66644  1.0000
  C   C3069     1.0  0.60204  0.40203  0.65587  1.0000
  C   C3070     1.0  0.59977  0.39592  0.64572  1.0000
  C   C3071     1.0  0.58609  0.39416  0.64641  1.0000
  C   C3072     1.0  0.57475  0.39836  0.65742  1.0000
  C   C3073     1.0  0.57697  0.40481  0.66733  1.0000
  H   H5286     1.0  0.61264  0.40302  0.65557  1.0000
  H   H5287     1.0  0.60863  0.39242  0.63739  1.0000
  H   H5288     1.0  0.56418  0.39703  0.65807  1.0000
  H   H5289     1.0  0.56806  0.40840  0.67558  1.0000
  S   S909      1.0  0.51605  0.38026  0.63145  1.0000
  H   H5290     1.0  0.72439  0.40445  0.49764  1.0000
  H   H5291     1.0  0.61127  0.24115  0.67487  1.0000
  C   C3074     1.0  0.66222  0.39403  0.71487  1.0000
  C   C3075     1.0  0.65288  0.39992  0.70548  1.0000
  C   C3076     1.0  0.63909  0.39728  0.70965  1.0000
  S   S910      1.0  0.49611  0.28682  0.57864  1.0000
  C   C3077     1.0  0.72700  0.18225  0.53302  1.0000
  H   H5292     1.0  0.67278  0.39630  0.71177  1.0000
  H   H5293     1.0  0.63193  0.40153  0.70235  1.0000
  Fe  Fe455     1.0  0.68279  0.15894  0.70252  1.0000
  C   C3078     1.0  0.66235  0.42787  0.62865  1.0000
  C   C3079     1.0  0.67612  0.42008  0.62395  1.0000
  H   H5294     1.0  0.65477  0.42249  0.63684  1.0000
  H   H5295     1.0  0.67905  0.40876  0.62861  1.0000
  H   H5296     1.0  0.68429  0.14470  0.62438  1.0000
  C   C3080     1.0  0.50638  0.36589  0.59118  1.0000
  H   H5297     1.0  0.65891  0.42888  0.71427  1.0000
  H   H5298     1.0  0.70984  0.29898  0.47919  1.0000
  H   H5299     1.0  0.60728  0.44814  0.71422  1.0000
  C   C3081     1.0  0.59303  0.33459  0.71824  1.0000
  H   H5300     1.0  0.73024  0.19330  0.59037  1.0000
  H   H5301     1.0  0.62385  0.38706  0.72660  1.0000
  H   H5302     1.0  0.69011  0.41504  0.49153  1.0000
  H   H5303     1.0  0.62213  0.37169  0.69435  1.0000
  H   H5304     1.0  0.66524  0.46058  0.60694  1.0000
  H   H5305     1.0  0.50567  0.30978  0.62853  1.0000
  C   C3082     1.0  0.72029  0.38242  0.58850  1.0000
  H   H5306     1.0  0.58962  0.44687  0.60401  1.0000
  Fe  Fe456     1.0  0.64322  0.28371  0.48989  1.0000
  H   H5307     1.0  0.68536  0.35069  0.48852  1.0000
  S   S911      1.0  0.70342  0.41701  0.60826  1.0000
  H   H5308     1.0  0.71878  0.35047  0.58135  1.0000
  C   C3083     1.0  0.66827  0.44928  0.61170  1.0000
  C   C3084     1.0  0.69641  0.26468  0.50909  1.0000
  C   C3085     1.0  0.69130  0.25202  0.51388  1.0000
  C   C3086     1.0  0.67738  0.25221  0.51325  1.0000
  C   C3087     1.0  0.66858  0.26502  0.50764  1.0000
  C   C3088     1.0  0.67363  0.27772  0.50294  1.0000
  C   C3089     1.0  0.68749  0.27757  0.50379  1.0000
  H   H5309     1.0  0.69809  0.24204  0.51801  1.0000
  H   H5310     1.0  0.67354  0.24236  0.51683  1.0000
  H   H5311     1.0  0.66680  0.28770  0.49882  1.0000
  H   H5312     1.0  0.69125  0.28744  0.50042  1.0000
  H   H5313     1.0  0.49070  0.30268  0.60244  1.0000
  C   C3090     1.0  0.73117  0.20200  0.67900  1.0000
  C   C3091     1.0  0.72910  0.19089  0.70847  1.0000
  C   C3092     1.0  0.49387  0.31118  0.63238  1.0000
  S   S912      1.0  0.65552  0.26147  0.67943  1.0000
  H   H5314     1.0  0.60896  0.45195  0.58687  1.0000
  N   N220      1.0  0.48808  0.30353  0.62480  1.0000
  H   H5315     1.0  0.70558  0.29230  0.52179  1.0000
  C   C3093     1.0  0.70849  0.42993  0.49468  1.0000
  H   H5316     1.0  0.50401  0.28225  0.54906  1.0000
  C   C3094     1.0  0.54477  0.30281  0.61859  1.0000
  C   C3095     1.0  0.55687  0.30527  0.60786  1.0000
  C   C3096     1.0  0.56580  0.31312  0.60952  1.0000
  C   C3097     1.0  0.56245  0.31888  0.62172  1.0000
  C   C3098     1.0  0.55041  0.31634  0.63250  1.0000
  C   C3099     1.0  0.54167  0.30819  0.63100  1.0000
  H   H5317     1.0  0.55935  0.30121  0.59825  1.0000
  H   H5318     1.0  0.57512  0.31504  0.60116  1.0000
  H   H5319     1.0  0.54791  0.32050  0.64208  1.0000
  H   H5320     1.0  0.53235  0.30628  0.63937  1.0000
  C   C3100     1.0  0.56627  0.31382  0.53141  1.0000
  C   C3101     1.0  0.56104  0.30717  0.52388  1.0000
  C   C3102     1.0  0.56900  0.30447  0.51046  1.0000
  C   C3103     1.0  0.58246  0.30794  0.50475  1.0000
  C   C3104     1.0  0.58779  0.31443  0.51236  1.0000
  C   C3105     1.0  0.57959  0.31758  0.52558  1.0000
  H   H5321     1.0  0.55070  0.30441  0.52823  1.0000
  H   H5322     1.0  0.56480  0.29955  0.50455  1.0000
  H   H5323     1.0  0.59810  0.31725  0.50796  1.0000
  H   H5324     1.0  0.58363  0.32281  0.53134  1.0000
  C   C3106     1.0  0.62722  0.26210  0.65009  1.0000
  C   C3107     1.0  0.62141  0.26835  0.66198  1.0000
  C   C3108     1.0  0.63019  0.26842  0.67074  1.0000
  H   H5325     1.0  0.61005  0.27277  0.66473  1.0000
  H   H5326     1.0  0.62543  0.27306  0.67997  1.0000
  C   C3109     1.0  0.68271  0.21074  0.60533  1.0000
  C   C3110     1.0  0.67668  0.20245  0.60033  1.0000
  C   C3111     1.0  0.68149  0.20082  0.58609  1.0000
  C   C3112     1.0  0.69222  0.20763  0.57686  1.0000
  C   C3113     1.0  0.69849  0.21559  0.58199  1.0000
  C   C3114     1.0  0.69370  0.21717  0.59620  1.0000
  H   H5327     1.0  0.66818  0.19746  0.60735  1.0000
  H   H5328     1.0  0.67656  0.19474  0.58210  1.0000
  H   H5329     1.0  0.70660  0.22107  0.57489  1.0000
  H   H5330     1.0  0.69801  0.22403  0.59982  1.0000
  C   C3115     1.0  0.60550  0.22674  0.58874  1.0000
  C   C3116     1.0  0.60203  0.22104  0.57910  1.0000
  C   C3117     1.0  0.58945  0.22730  0.57407  1.0000
  C   C3118     1.0  0.58030  0.23958  0.57830  1.0000
  C   C3119     1.0  0.58369  0.24542  0.58798  1.0000
  C   C3120     1.0  0.59626  0.23888  0.59332  1.0000
  H   H5331     1.0  0.60911  0.21167  0.57552  1.0000
  H   H5332     1.0  0.58689  0.22268  0.56667  1.0000
  H   H5333     1.0  0.57663  0.25489  0.59132  1.0000
  H   H5334     1.0  0.59900  0.24331  0.60071  1.0000
  C   C3121     1.0  0.70949  0.13517  0.65028  1.0000
  C   C3122     1.0  0.71705  0.14555  0.64901  1.0000
  C   C3123     1.0  0.49354  0.30855  0.60888  1.0000
  C   C3124     1.0  0.65420  0.18421  0.68303  1.0000
  C   C3125     1.0  0.64463  0.18954  0.67376  1.0000
  C   C3126     1.0  0.63087  0.18678  0.67825  1.0000
  H   H5335     1.0  0.66482  0.18632  0.67944  1.0000
  S   S913      1.0  0.69996  0.12770  0.66712  1.0000
  N   N221      1.0  0.65867  0.24826  0.56246  1.0000
  C   C3127     1.0  0.66058  0.23939  0.55165  1.0000
  C   C3128     1.0  0.65969  0.26338  0.55433  1.0000
  C   C3129     1.0  0.64438  0.24858  0.57280  1.0000
  C   C3130     1.0  0.67011  0.24150  0.57099  1.0000
  C   C3131     1.0  0.65725  0.22431  0.55784  1.0000
  C   C3132     1.0  0.67488  0.26559  0.54666  1.0000
  C   C3133     1.0  0.63131  0.25458  0.56587  1.0000
  C   C3134     1.0  0.67080  0.24976  0.58180  1.0000
  H   H5336     1.0  0.65394  0.24508  0.54354  1.0000
  H   H5337     1.0  0.67178  0.23776  0.54527  1.0000
  H   H5338     1.0  0.65490  0.27120  0.56141  1.0000
  H   H5339     1.0  0.65325  0.26710  0.54591  1.0000
  H   H5340     1.0  0.64357  0.23769  0.57955  1.0000
  H   H5341     1.0  0.64307  0.25522  0.58063  1.0000
  H   H5342     1.0  0.66862  0.23071  0.57743  1.0000
  H   H5343     1.0  0.68087  0.23932  0.56381  1.0000
  H   H5344     1.0  0.64579  0.22472  0.56297  1.0000
  H   H5345     1.0  0.65979  0.21871  0.54889  1.0000
  H   H5346     1.0  0.66388  0.21757  0.56555  1.0000
  H   H5347     1.0  0.67422  0.27615  0.53891  1.0000
  H   H5348     1.0  0.68100  0.26566  0.55441  1.0000
  H   H5349     1.0  0.68091  0.25726  0.54053  1.0000
  H   H5350     1.0  0.63048  0.26608  0.56051  1.0000
  H   H5351     1.0  0.62145  0.25369  0.57440  1.0000
  H   H5352     1.0  0.63151  0.24837  0.55813  1.0000
  H   H5353     1.0  0.66679  0.24417  0.59299  1.0000
  H   H5354     1.0  0.66466  0.26099  0.58027  1.0000
  H   H5355     1.0  0.68209  0.25008  0.58080  1.0000
  C   C3135     1.0  0.71424  0.40143  0.52995  1.0000
  S   S914      1.0  0.68704  0.33324  0.51688  1.0000
  C   C3136     1.0  0.59252  0.35252  0.68786  1.0000
  H   H5356     1.0  0.63270  0.23106  0.70419  1.0000
  H   H5357     1.0  0.49167  0.38427  0.61951  1.0000
  S   S915      1.0  0.60825  0.47266  0.68870  1.0000
  S   S916      1.0  0.71569  0.44704  0.57322  1.0000
  H   H5358     1.0  0.70694  0.15351  0.57701  1.0000
  H   H5359     1.0  0.73398  0.42842  0.63079  1.0000
  H   H5360     1.0  0.65607  0.31439  0.49928  1.0000
  H   H5361     1.0  0.51789  0.36844  0.60543  1.0000
  H   H5362     1.0  0.72351  0.38884  0.55649  1.0000
  H   H5363     1.0  0.66936  0.31456  0.51704  1.0000
  H   H5364     1.0  0.62194  0.46205  0.58444  1.0000
  Fe  Fe457     1.0  0.61601  0.30291  0.48211  1.0000
  C   C3137     1.0  0.66252  0.32224  0.49688  1.0000
  C   C3138     1.0  0.67159  0.34255  0.48091  1.0000
  H   H5365     1.0  0.49557  0.29504  0.65277  1.0000
  H   H5366     1.0  0.64739  0.31138  0.65387  1.0000
  C   C3139     1.0  0.63605  0.17387  0.70155  1.0000
  C   C3140     1.0  0.68796  0.33017  0.71353  1.0000
  H   H5367     1.0  0.70881  0.30910  0.53609  1.0000
  H   H5368     1.0  0.56179  0.36415  0.59458  1.0000
  H   H5369     1.0  0.63649  0.42955  0.70977  1.0000
  C   C3141     1.0  0.66313  0.33250  0.48392  1.0000
  H   H5370     1.0  0.73238  0.40327  0.47967  1.0000
  C   C3142     1.0  0.57723  0.30990  0.70398  1.0000
  C   C3143     1.0  0.64641  0.31442  0.72502  1.0000
  C   C3144     1.0  0.71577  0.41833  0.54311  1.0000
  N   N222      1.0  0.59059  0.35931  0.70029  1.0000
  C   C3145     1.0  0.67470  0.17979  0.64516  1.0000
  H   H5371     1.0  0.59064  0.43174  0.59728  1.0000
  S   S917      1.0  0.72611  0.17829  0.67425  1.0000
  H   H5372     1.0  0.70026  0.38970  0.57197  1.0000
  C   C3146     1.0  0.62672  0.23092  0.69634  1.0000
  H   H5373     1.0  0.55556  0.27464  0.62978  1.0000
  C   C3147     1.0  0.68221  0.44156  0.60726  1.0000
  H   H5374     1.0  0.51080  0.35461  0.65316  1.0000
  H   H5375     1.0  0.68249  0.24382  0.69145  1.0000
  H   H5376     1.0  0.71399  0.16068  0.58790  1.0000
  C   C3148     1.0  0.67900  0.34276  0.49093  1.0000
  S   S918      1.0  0.69466  0.37327  0.49986  1.0000
  H   H5377     1.0  0.60491  0.38329  0.69674  1.0000
  H   H5378     1.0  0.58780  0.27887  0.63506  1.0000
  H   H5379     1.0  0.70901  0.42684  0.63210  1.0000
  H   H5380     1.0  0.66531  0.36073  0.68428  1.0000
  C   C3149     1.0  0.49275  0.28240  0.55332  1.0000
  C   C3150     1.0  0.56421  0.32114  0.68041  1.0000
  H   H5381     1.0  0.57010  0.28740  0.63322  1.0000
  H   H5382     1.0  0.72138  0.07601  0.72386  1.0000
  H   H5383     1.0  0.55704  0.25623  0.63571  1.0000
  H   H5384     1.0  0.59526  0.32806  0.71013  1.0000
  H   H5385     1.0  0.72470  0.21113  0.59291  1.0000
  H   H5386     1.0  0.57918  0.23347  0.64300  1.0000
  C   C3151     1.0  0.57835  0.25231  0.65139  1.0000
  C   C3152     1.0  0.71994  0.09724  0.72654  1.0000
  Fe  Fe458     1.0  0.70089  0.34959  0.50871  1.0000
  C   C3153     1.0  0.57971  0.30185  0.69367  1.0000
  H   H5387     1.0  0.73600  0.27373  0.53763  1.0000
  S   S919      1.0  0.60933  0.45017  0.66193  1.0000
  H   H5388     1.0  0.59634  0.21934  0.69882  1.0000
  C   C3154     1.0  0.52636  0.33926  0.60343  1.0000
  H   H5389     1.0  0.72503  0.17371  0.52915  1.0000
  N   N223      1.0  0.57388  0.26416  0.63913  1.0000
  H   H5390     1.0  0.69488  0.21243  0.66945  1.0000
  H   H5391     1.0  0.71263  0.23625  0.60648  1.0000
  C   C3155     1.0  0.59521  0.43758  0.63905  1.0000
  Fe  Fe459     1.0  0.64124  0.27162  0.69738  1.0000
  H   H5392     1.0  0.65911  0.29478  0.71902  1.0000
  S   S920      1.0  0.72393  0.22181  0.52500  1.0000
  H   H5393     1.0  0.70467  0.39042  0.65584  1.0000
  C   C3156     1.0  0.68775  0.19747  0.70826  1.0000
  C   C3157     1.0  0.65839  0.44247  0.62255  1.0000
  Fe  Fe460     1.0  0.63234  0.44293  0.65159  1.0000
  H   H5394     1.0  0.52676  0.34209  0.62466  1.0000
  H   H5395     1.0  0.64660  0.16325  0.66522  1.0000
  H   H5396     1.0  0.72195  0.31885  0.72563  1.0000
  H   H5397     1.0  0.54005  0.35745  0.60974  1.0000
  C   C3158     1.0  0.49240  0.34981  0.64973  1.0000
  H   H5398     1.0  0.67651  0.33395  0.71815  1.0000
  C   C3159     1.0  0.57331  0.28171  0.65475  1.0000
  H   H5399     1.0  0.59366  0.37298  0.67157  1.0000
  H   H5400     1.0  0.66352  0.34578  0.69967  1.0000
  H   H5401     1.0  0.59555  0.24625  0.68838  1.0000
  C   C3160     1.0  0.70322  0.40165  0.64942  1.0000
  H   H5402     1.0  0.55977  0.38594  0.69474  1.0000
  Fe  Fe461     1.0  0.72960  0.45800  0.57951  1.0000
  C   C3161     1.0  0.70849  0.16339  0.57892  1.0000
  H   H5403     1.0  0.70282  0.37034  0.57681  1.0000
  H   H5404     1.0  0.49885  0.37628  0.59245  1.0000
  C   C3162     1.0  0.60416  0.23276  0.71417  1.0000
  H   H5405     1.0  0.72947  0.42880  0.64972  1.0000
  C   C3163     1.0  0.71510  0.43651  0.50293  1.0000
  H   H5406     1.0  0.63832  0.46623  0.68947  1.0000
  H   H5407     1.0  0.61461  0.46407  0.72436  1.0000
  C   C3164     1.0  0.72534  0.35066  0.58860  1.0000
  C   C3165     1.0  0.72751  0.40174  0.63518  1.0000
  H   H5408     1.0  0.49266  0.23684  0.57940  1.0000
  C   C3166     1.0  0.73047  0.20510  0.70263  1.0000
  H   H5409     1.0  0.70597  0.40174  0.68053  1.0000
  C   C3167     1.0  0.72983  0.35627  0.72044  1.0000
  H   H5410     1.0  0.60582  0.19446  0.71282  1.0000
  H   H5411     1.0  0.69754  0.23916  0.67716  1.0000
  C   C3168     1.0  0.60814  0.20008  0.71987  1.0000
  C   C3169     1.0  0.72272  0.19274  0.63827  1.0000
  C   C3170     1.0  0.67660  0.20916  0.68776  1.0000
  C   C3171     1.0  0.72181  0.22913  0.61100  1.0000
  H   H5412     1.0  0.73444  0.39064  0.51896  1.0000
  C   C3172     1.0  0.73670  0.28149  0.52701  1.0000
  H   H5413     1.0  0.63298  0.46418  0.72269  1.0000
  C   C3173     1.0  0.63778  0.22397  0.68456  1.0000
  H   H5414     1.0  0.59300  0.35870  0.66490  1.0000
  H   H5415     1.0  0.72696  0.14354  0.56249  1.0000
  H   H5416     1.0  0.71586  0.13455  0.61487  1.0000
  H   H5417     1.0  0.55052  0.26286  0.66231  1.0000
  Fe  Fe462     1.0  0.70844  0.13646  0.71168  1.0000
  C   C3174     1.0  0.66688  0.14218  0.65232  1.0000
  H   H5418     1.0  0.57846  0.37804  0.70878  1.0000
  H   H5419     1.0  0.71060  0.37785  0.59293  1.0000
  Fe  Fe463     1.0  0.71388  0.36952  0.48190  1.0000
  H   H5420     1.0  0.67846  0.13752  0.64897  1.0000
  H   H5421     1.0  0.59327  0.23050  0.71728  1.0000
  H   H5422     1.0  0.55655  0.33413  0.58330  1.0000
  H   H5423     1.0  0.61165  0.37501  0.68139  1.0000
  H   H5424     1.0  0.50107  0.35737  0.59864  1.0000
  N   N224      1.0  0.69028  0.35456  0.69597  1.0000
  C   C3175     1.0  0.69269  0.33851  0.69804  1.0000
  C   C3176     1.0  0.69417  0.36091  0.68008  1.0000
  C   C3177     1.0  0.67488  0.36110  0.70171  1.0000
  C   C3178     1.0  0.69944  0.35763  0.70404  1.0000
  H   H5425     1.0  0.70224  0.37986  0.55875  1.0000
  C   C3179     1.0  0.71031  0.35840  0.67317  1.0000
  C   C3180     1.0  0.66370  0.35737  0.69613  1.0000
  C   C3181     1.0  0.69922  0.37363  0.70240  1.0000
  H   H5426     1.0  0.68725  0.33572  0.69112  1.0000
  H   H5427     1.0  0.70423  0.33370  0.69457  1.0000
  H   H5428     1.0  0.68974  0.37269  0.67757  1.0000
  H   H5429     1.0  0.68918  0.35651  0.67399  1.0000
  H   H5430     1.0  0.67205  0.35821  0.71364  1.0000
  H   H5431     1.0  0.67301  0.37300  0.69905  1.0000
  H   H5432     1.0  0.69609  0.35330  0.71573  1.0000
  H   H5433     1.0  0.71075  0.35178  0.70120  1.0000
  C   C3182     1.0  0.72428  0.32919  0.72429  1.0000
  C   C3183     1.0  0.49092  0.30654  0.64895  1.0000
  C   C3184     1.0  0.58392  0.34980  0.71382  1.0000
  H   H5434     1.0  0.71578  0.36457  0.67686  1.0000
  N   N225      1.0  0.61420  0.22392  0.70378  1.0000
  H   H5435     1.0  0.71526  0.10271  0.71733  1.0000
  H   H5436     1.0  0.72098  0.40857  0.68034  1.0000
  H   H5437     1.0  0.62003  0.23225  0.72631  1.0000
  H   H5438     1.0  0.71751  0.14863  0.65845  1.0000
  H   H5439     1.0  0.69413  0.37681  0.71286  1.0000
  H   H5440     1.0  0.69348  0.38113  0.69427  1.0000
  H   H5441     1.0  0.71034  0.37524  0.69943  1.0000
  H   H5442     1.0  0.64390  0.21331  0.68907  1.0000
  Fe  Fe464     1.0  0.70998  0.37581  0.51160  1.0000
  C   C3185     1.0  0.49468  0.27798  0.61932  1.0000
  H   H5443     1.0  0.55944  0.36804  0.70455  1.0000
  C   C3186     1.0  0.72568  0.19428  0.61274  1.0000
  H   H5444     1.0  0.67010  0.20082  0.69200  1.0000
  H   H5445     1.0  0.72416  0.39066  0.66416  1.0000
  H   H5446     1.0  0.63259  0.16802  0.71240  1.0000
  H   H5447     1.0  0.59006  0.25042  0.65052  1.0000
  H   H5448     1.0  0.55128  0.34297  0.60252  1.0000
  H   H5449     1.0  0.58232  0.30559  0.71305  1.0000
  H   H5450     1.0  0.71744  0.18198  0.56841  1.0000
  C   C3187     1.0  0.68792  0.23579  0.68471  1.0000
  H   H5451     1.0  0.66672  0.12467  0.67124  1.0000
  C   C3188     1.0  0.61107  0.37333  0.69300  1.0000
  H   H5452     1.0  0.56264  0.28045  0.66134  1.0000
  C   C3189     1.0  0.67351  0.16412  0.65236  1.0000
  H   H5453     1.0  0.61262  0.21521  0.68658  1.0000
  C   C3190     1.0  0.65781  0.30244  0.72536  1.0000
  H   H5454     1.0  0.71792  0.15566  0.54939  1.0000
  H   H5455     1.0  0.64556  0.23092  0.67896  1.0000
  C   C3191     1.0  0.72427  0.15185  0.63547  1.0000
  Fe  Fe465     1.0  0.61803  0.45288  0.67937  1.0000
  H   H5456     1.0  0.65110  0.13873  0.67296  1.0000
  S   S921      1.0  0.64112  0.45221  0.62844  1.0000
  C   C3192     1.0  0.61965  0.20882  0.71144  1.0000
  H   H5457     1.0  0.54451  0.32743  0.57768  1.0000
  H   H5458     1.0  0.56724  0.37171  0.68545  1.0000
  C   C3193     1.0  0.66283  0.13652  0.66874  1.0000
  H   H5459     1.0  0.66335  0.17376  0.62694  1.0000
  H   H5460     1.0  0.72216  0.38080  0.63768  1.0000
  C   C3194     1.0  0.69183  0.19773  0.72204  1.0000
  H   H5461     1.0  0.66097  0.20199  0.72620  1.0000
  H   H5462     1.0  0.63284  0.22297  0.67634  1.0000
  C   C3195     1.0  0.63598  0.43793  0.71547  1.0000
  H   H5463     1.0  0.58131  0.25037  0.62369  1.0000
  H   H5464     1.0  0.66200  0.25146  0.65318  1.0000
  H   H5465     1.0  0.60937  0.35880  0.66927  1.0000
  S   S922      1.0  0.64092  0.44736  0.66811  1.0000
  H   H5466     1.0  0.63811  0.14779  0.65356  1.0000
  C   C3196     1.0  0.72918  0.41074  0.48711  1.0000
  H   H5467     1.0  0.60418  0.36042  0.71351  1.0000
  H   H5468     1.0  0.66988  0.16361  0.66412  1.0000
  C   C3197     1.0  0.71286  0.42367  0.64232  1.0000
  H   H5469     1.0  0.69590  0.19398  0.67935  1.0000
  Fe  Fe466     1.0  0.71882  0.43011  0.59314  1.0000
  N   N226      1.0  0.61564  0.31549  0.64393  1.0000
  C   C3198     1.0  0.60591  0.32880  0.63734  1.0000
  C   C3199     1.0  0.60838  0.31066  0.65940  1.0000
  C   C3200     1.0  0.61852  0.30356  0.63623  1.0000
  C   C3201     1.0  0.62970  0.31907  0.64273  1.0000
  C   C3202     1.0  0.60999  0.33397  0.62086  1.0000
  C   C3203     1.0  0.60704  0.32059  0.66941  1.0000
  C   C3204     1.0  0.60520  0.29896  0.63568  1.0000
  C   C3205     1.0  0.64089  0.30681  0.64957  1.0000
  H   H5470     1.0  0.59473  0.32734  0.64005  1.0000
  H   H5471     1.0  0.60530  0.33802  0.64194  1.0000
  H   H5472     1.0  0.61363  0.29962  0.66424  1.0000
  H   H5473     1.0  0.59733  0.30975  0.66014  1.0000
  H   H5474     1.0  0.62471  0.30639  0.62502  1.0000
  H   H5475     1.0  0.62547  0.29375  0.64138  1.0000
  H   H5476     1.0  0.63500  0.32227  0.63125  1.0000
  H   H5477     1.0  0.62822  0.32877  0.64696  1.0000
  H   H5478     1.0  0.62071  0.33654  0.61715  1.0000
  H   H5479     1.0  0.60927  0.32616  0.61514  1.0000
  H   H5480     1.0  0.60218  0.34401  0.61760  1.0000
  H   H5481     1.0  0.61758  0.32151  0.67023  1.0000
  H   H5482     1.0  0.60035  0.33136  0.66610  1.0000
  H   H5483     1.0  0.60165  0.31594  0.68044  1.0000
  H   H5484     1.0  0.60853  0.29124  0.62854  1.0000
  H   H5485     1.0  0.59722  0.30799  0.63116  1.0000
  H   H5486     1.0  0.60013  0.29344  0.64646  1.0000
  H   H5487     1.0  0.63621  0.29903  0.65879  1.0000
  C   C3206     1.0  0.64481  0.26222  0.66774  1.0000
  N   N227      1.0  0.53194  0.35219  0.59412  1.0000
  C   C3207     1.0  0.52055  0.36578  0.59467  1.0000
  C   C3208     1.0  0.54411  0.35355  0.59955  1.0000
  C   C3209     1.0  0.60484  0.36022  0.70215  1.0000
  C   C3210     1.0  0.69243  0.22079  0.69413  1.0000
  H   H5488     1.0  0.64782  0.21814  0.72331  1.0000
  C   C3211     1.0  0.55356  0.36374  0.58921  1.0000
  Fe  Fe467     1.0  0.70097  0.13865  0.68359  1.0000
  C   C3212     1.0  0.73125  0.20046  0.59671  1.0000
  H   H5489     1.0  0.52455  0.37511  0.58704  1.0000
  H   H5490     1.0  0.62303  0.24241  0.69133  1.0000
  H   H5491     1.0  0.59799  0.20668  0.72469  1.0000
  H   H5492     1.0  0.51850  0.33686  0.59886  1.0000
  C   C3213     1.0  0.65070  0.25623  0.65563  1.0000
  H   H5493     1.0  0.71669  0.18946  0.53667  1.0000
  S   S923      1.0  0.73433  0.21359  0.55581  1.0000
  H   H5494     1.0  0.64810  0.30071  0.64149  1.0000
  C   C3214     1.0  0.54713  0.26864  0.65215  1.0000
  H   H5495     1.0  0.71051  0.42603  0.54983  1.0000
  C   C3215     1.0  0.65149  0.43957  0.71285  1.0000
  C   C3216     1.0  0.67000  0.32238  0.50694  1.0000
  H   H5496     1.0  0.55946  0.35982  0.57931  1.0000
  H   H5497     1.0  0.53513  0.32954  0.60364  1.0000
  C   C3217     1.0  0.57294  0.30733  0.68208  1.0000
  H   H5498     1.0  0.62637  0.16451  0.65597  1.0000
  N   N228      1.0  0.71631  0.40753  0.64718  1.0000
  H   H5499     1.0  0.73301  0.22149  0.68324  1.0000
  C   C3218     1.0  0.65706  0.21099  0.71772  1.0000
  H   H5500     1.0  0.73151  0.18285  0.61502  1.0000
  H   H5501     1.0  0.58167  0.27512  0.66076  1.0000
  H   H5502     1.0  0.53970  0.35997  0.57114  1.0000
  S   S924      1.0  0.68848  0.13485  0.70643  1.0000
  H   H5503     1.0  0.55930  0.32546  0.67123  1.0000
  H   H5504     1.0  0.50941  0.34836  0.62004  1.0000
  C   C3219     1.0  0.72377  0.14797  0.62316  1.0000
  H   H5505     1.0  0.61315  0.35044  0.70006  1.0000
  H   H5506     1.0  0.70390  0.42882  0.64999  1.0000
  C   C3220     1.0  0.64859  0.16487  0.65334  1.0000
  H   H5507     1.0  0.68079  0.23606  0.67783  1.0000
  C   C3221     1.0  0.72819  0.15264  0.55301  1.0000
  C   C3222     1.0  0.70558  0.28959  0.53336  1.0000
  H   H5508     1.0  0.70260  0.21500  0.68828  1.0000
  H   H5509     1.0  0.68151  0.18074  0.63416  1.0000
  H   H5510     1.0  0.54731  0.37485  0.58642  1.0000
  H   H5511     1.0  0.52773  0.34878  0.57522  1.0000
  H   H5512     1.0  0.54379  0.28033  0.65186  1.0000
  C   C3223     1.0  0.60321  0.44254  0.72531  1.0000
  C   C3224     1.0  0.66855  0.21966  0.70900  1.0000
  H   H5513     1.0  0.69769  0.16984  0.58263  1.0000
  H   H5514     1.0  0.71828  0.38505  0.61001  1.0000
  H   H5515     1.0  0.70335  0.12306  0.63894  1.0000
  S   S925      1.0  0.72881  0.37375  0.49296  1.0000
  N   N229      1.0  0.73003  0.37601  0.57614  1.0000
  C   C3225     1.0  0.59753  0.36130  0.67266  1.0000
  H   H5516     1.0  0.69942  0.43838  0.49107  1.0000
  Fe  Fe468     1.0  0.73198  0.35015  0.50292  1.0000
  Fe  Fe469     1.0  0.60961  0.28376  0.70507  1.0000
  N   N230      1.0  0.59706  0.26421  0.52735  1.0000
  C   C3226     1.0  0.58553  0.26598  0.51944  1.0000
  C   C3227     1.0  0.61060  0.26590  0.51612  1.0000
  C   C3228     1.0  0.59251  0.27586  0.53580  1.0000
  C   C3229     1.0  0.59841  0.24959  0.53731  1.0000
  C   C3230     1.0  0.57022  0.26646  0.52874  1.0000
  C   C3231     1.0  0.61658  0.25435  0.50705  1.0000
  C   C3232     1.0  0.60437  0.28044  0.53948  1.0000
  C   C3233     1.0  0.61082  0.24463  0.54517  1.0000
  H   H5517     1.0  0.58516  0.27600  0.51085  1.0000
  H   H5518     1.0  0.58785  0.25710  0.51380  1.0000
  H   H5519     1.0  0.61944  0.26593  0.52081  1.0000
  H   H5520     1.0  0.60889  0.27660  0.50859  1.0000
  H   H5521     1.0  0.58663  0.28590  0.52979  1.0000
  H   H5522     1.0  0.58482  0.27285  0.54610  1.0000
  H   H5523     1.0  0.58858  0.24912  0.54594  1.0000
  H   H5524     1.0  0.59880  0.24106  0.53185  1.0000
  H   H5525     1.0  0.56647  0.27545  0.53437  1.0000
  H   H5526     1.0  0.56276  0.26825  0.52163  1.0000
  H   H5527     1.0  0.56923  0.25622  0.53665  1.0000
  H   H5528     1.0  0.61827  0.24332  0.51376  1.0000
  H   H5529     1.0  0.60974  0.25543  0.49955  1.0000
  H   H5530     1.0  0.62725  0.25578  0.50035  1.0000
  H   H5531     1.0  0.61052  0.28660  0.52972  1.0000
  H   H5532     1.0  0.61173  0.27130  0.54476  1.0000
  H   H5533     1.0  0.59934  0.28780  0.54700  1.0000
  H   H5534     1.0  0.60757  0.24841  0.55537  1.0000
  H   H5535     1.0  0.62076  0.24794  0.53861  1.0000
  H   H5536     1.0  0.61375  0.23272  0.54776  1.0000
  C   C3234     1.0  0.54889  0.33699  0.57624  1.0000
  H   H5537     1.0  0.57085  0.27345  0.60898  1.0000
  C   C3235     1.0  0.72887  0.18810  0.68504  1.0000
  S   S926      1.0  0.69365  0.16254  0.67934  1.0000
  C   C3236     1.0  0.68178  0.15653  0.62304  1.0000
  H   H5538     1.0  0.73611  0.15253  0.57743  1.0000
  S   S927      1.0  0.64563  0.27436  0.71734  1.0000
  C   C3237     1.0  0.58150  0.27173  0.61136  1.0000
  C   C3238     1.0  0.71360  0.40853  0.67378  1.0000
  H   H5539     1.0  0.69611  0.41379  0.54227  1.0000
  N   N231      1.0  0.66386  0.15827  0.64722  1.0000
  H   H5540     1.0  0.48944  0.32293  0.62995  1.0000
  C   C3239     1.0  0.59156  0.43504  0.60675  1.0000
  C   C3240     1.0  0.58324  0.26024  0.62531  1.0000
  H   H5541     1.0  0.50783  0.36512  0.57992  1.0000
  C   C3241     1.0  0.72521  0.43118  0.63992  1.0000
  C   C3242     1.0  0.73113  0.30761  0.51516  1.0000
  H   H5542     1.0  0.71629  0.39418  0.58466  1.0000
  H   H5543     1.0  0.58261  0.34927  0.68808  1.0000
  C   C3243     1.0  0.71666  0.21642  0.62260  1.0000
  C   C3244     1.0  0.70798  0.18888  0.64207  1.0000
  H   H5544     1.0  0.58687  0.44576  0.64420  1.0000
  H   H5545     1.0  0.58271  0.43160  0.61558  1.0000
  H   H5546     1.0  0.72072  0.44500  0.49599  1.0000
  H   H5547     1.0  0.73083  0.27794  0.52114  1.0000
  H   H5548     1.0  0.72614  0.29447  0.50298  1.0000
  N   N232      1.0  0.72680  0.20191  0.62346  1.0000
  C   C3245     1.0  0.70909  0.13118  0.63796  1.0000
  H   H5549     1.0  0.68509  0.42038  0.64949  1.0000
  H   H5550     1.0  0.71436  0.19404  0.61370  1.0000
  H   H5551     1.0  0.70624  0.21580  0.62107  1.0000
  H   H5552     1.0  0.71407  0.21972  0.63304  1.0000
  H   H5553     1.0  0.70572  0.18344  0.65359  1.0000
  H   H5554     1.0  0.69926  0.19852  0.64049  1.0000
  H   H5555     1.0  0.70780  0.18119  0.63594  1.0000
  H   H5556     1.0  0.71569  0.34689  0.67528  1.0000
  H   H5557     1.0  0.70904  0.27779  0.53696  1.0000
  H   H5558     1.0  0.69428  0.29261  0.53907  1.0000
  C   C3246     1.0  0.63457  0.38898  0.72331  1.0000
  C   C3247     1.0  0.60630  0.22326  0.69313  1.0000
  H   H5559     1.0  0.68045  0.18990  0.71137  1.0000
  H   H5560     1.0  0.73300  0.46202  0.61634  1.0000
  H   H5561     1.0  0.49602  0.31278  0.65302  1.0000
  C   C3248     1.0  0.60188  0.23760  0.68267  1.0000
  N   N233      1.0  0.61389  0.43538  0.61540  1.0000
  C   C3249     1.0  0.62417  0.42478  0.62405  1.0000
  C   C3250     1.0  0.60398  0.44512  0.62499  1.0000
  C   C3251     1.0  0.62255  0.44409  0.60275  1.0000
  C   C3252     1.0  0.60620  0.42708  0.61053  1.0000
  C   C3253     1.0  0.63685  0.41512  0.61580  1.0000
  H   H5562     1.0  0.62693  0.20248  0.70362  1.0000
  C   C3254     1.0  0.61421  0.45624  0.59275  1.0000
  C   C3255     1.0  0.66639  0.16196  0.63106  1.0000
  H   H5563     1.0  0.62874  0.43034  0.62940  1.0000
  H   H5564     1.0  0.61853  0.41739  0.63292  1.0000
  H   H5565     1.0  0.57365  0.34824  0.71288  1.0000
  H   H5566     1.0  0.61017  0.45119  0.62803  1.0000
  H   H5567     1.0  0.62923  0.44899  0.60651  1.0000
  H   H5568     1.0  0.63015  0.43714  0.59561  1.0000
  H   H5569     1.0  0.61314  0.42279  0.60107  1.0000
  H   H5570     1.0  0.70356  0.42149  0.50295  1.0000
  H   H5571     1.0  0.64224  0.40654  0.62367  1.0000
  H   H5572     1.0  0.63339  0.40982  0.60930  1.0000
  H   H5573     1.0  0.64502  0.42124  0.60893  1.0000
  C   C3256     1.0  0.57472  0.23776  0.65286  1.0000
  H   H5574     1.0  0.66423  0.18720  0.64464  1.0000
  C   C3257     1.0  0.70599  0.37955  0.56841  1.0000
  H   H5575     1.0  0.72422  0.40636  0.62473  1.0000
  H   H5576     1.0  0.70163  0.40114  0.63891  1.0000
  N   N234      1.0  0.73039  0.16511  0.55738  1.0000
  C   C3258     1.0  0.50264  0.37032  0.63588  1.0000
  C   C3259     1.0  0.69953  0.40939  0.48463  1.0000
  H   H5577     1.0  0.57941  0.22971  0.66155  1.0000
  S   S928      1.0  0.62802  0.29379  0.69214  1.0000
  C   C3260     1.0  0.71610  0.13770  0.62437  1.0000
  H   H5578     1.0  0.55533  0.33936  0.56510  1.0000
  H   H5579     1.0  0.53762  0.26469  0.65255  1.0000
  H   H5580     1.0  0.69769  0.19227  0.70156  1.0000
  S   S929      1.0  0.59187  0.28530  0.69455  1.0000
  H   H5581     1.0  0.68457  0.15742  0.65110  1.0000
  C   C3261     1.0  0.53672  0.35019  0.57887  1.0000
  C   C3262     1.0  0.72243  0.40253  0.66048  1.0000
  H   H5582     1.0  0.64631  0.17668  0.64936  1.0000
  C   C3263     1.0  0.70763  0.41139  0.53877  1.0000
  C   C3264     1.0  0.68875  0.41000  0.65670  1.0000
  C   C3265     1.0  0.64191  0.25619  0.64679  1.0000
  H   H5583     1.0  0.65489  0.44524  0.70154  1.0000
  H   H5584     1.0  0.58353  0.28210  0.61150  1.0000
  H   H5585     1.0  0.60404  0.41744  0.61908  1.0000
  H   H5586     1.0  0.57342  0.25519  0.66196  1.0000
  H   H5587     1.0  0.64650  0.25151  0.63746  1.0000
  H   H5588     1.0  0.68380  0.20201  0.66763  1.0000
  C   C3266     1.0  0.49185  0.37467  0.62800  1.0000
  C   C3267     1.0  0.71619  0.17255  0.56522  1.0000
  C   C3268     1.0  0.62671  0.17871  0.69209  1.0000
  H   H5589     1.0  0.61614  0.17640  0.69560  1.0000
  H   H5590     1.0  0.68989  0.44691  0.59908  1.0000
  H   H5591     1.0  0.65271  0.44575  0.72000  1.0000
  S   S930      1.0  0.72144  0.13827  0.68906  1.0000
  H   H5592     1.0  0.63666  0.16307  0.63845  1.0000
  S   S931      1.0  0.62278  0.26154  0.70929  1.0000
  C   C3269     1.0  0.58057  0.37390  0.69887  1.0000
  H   H5593     1.0  0.66149  0.13719  0.64717  1.0000
  S   S932      1.0  0.70153  0.16033  0.70991  1.0000
  H   H5594     1.0  0.56301  0.23847  0.65597  1.0000
  C   C3270     1.0  0.67810  0.33277  0.50406  1.0000
  H   H5595     1.0  0.73022  0.15974  0.63458  1.0000
  H   H5596     1.0  0.67975  0.18366  0.65157  1.0000
  H   H5597     1.0  0.66798  0.14089  0.67464  1.0000
  H   H5598     1.0  0.59475  0.25776  0.62570  1.0000
  H   H5599     1.0  0.60320  0.33485  0.72054  1.0000
  H   H5600     1.0  0.71412  0.29334  0.54900  1.0000
  H   H5601     1.0  0.59513  0.23604  0.67627  1.0000
  H   H5602     1.0  0.57368  0.29312  0.65325  1.0000
  S   S933      1.0  0.66072  0.17191  0.70956  1.0000
  C   C3271     1.0  0.63697  0.15957  0.65001  1.0000
  H   H5603     1.0  0.72698  0.17150  0.70433  1.0000
  C   C3272     1.0  0.51944  0.34009  0.61919  1.0000
  H   H5604     1.0  0.58530  0.38210  0.69021  1.0000
  H   H5605     1.0  0.68884  0.41192  0.66710  1.0000
  H   H5606     1.0  0.49042  0.20457  0.58714  1.0000
  S   S934      1.0  0.70333  0.39348  0.52438  1.0000
  H   H5607     1.0  0.57478  0.30106  0.67417  1.0000
  H   H5608     1.0  0.66309  0.22953  0.70229  1.0000
  Fe  Fe470     1.0  0.73629  0.43395  0.56267  1.0000
  C   C3273     1.0  0.55858  0.26565  0.63865  1.0000
  H   H5609     1.0  0.68994  0.15965  0.62645  1.0000
  H   H5610     1.0  0.72875  0.18638  0.71972  1.0000
  H   H5611     1.0  0.66936  0.21885  0.68286  1.0000
  H   H5612     1.0  0.68278  0.16127  0.61135  1.0000
  C   C3274     1.0  0.50276  0.35794  0.64685  1.0000
  H   H5613     1.0  0.60056  0.34221  0.68884  1.0000
  H   H5614     1.0  0.69450  0.33051  0.72075  1.0000
  H   H5615     1.0  0.60245  0.24442  0.70898  1.0000
  H   H5616     1.0  0.51657  0.32971  0.62522  1.0000
  C   C3275     1.0  0.68864  0.20412  0.67544  1.0000
  Fe  Fe471     1.0  0.73263  0.23707  0.55292  1.0000
  C   C3276     1.0  0.72478  0.30575  0.50347  1.0000
  H   H5617     1.0  0.68046  0.40369  0.65889  1.0000
  N   N235      1.0  0.68133  0.21180  0.69979  1.0000
  H   H5618     1.0  0.72254  0.19816  0.64675  1.0000
  H   H5619     1.0  0.71845  0.35382  0.59858  1.0000
  H   H5620     1.0  0.65291  0.36328  0.70072  1.0000
  H   H5621     1.0  0.48919  0.27970  0.53379  1.0000
  C   C3277     1.0  0.72915  0.39843  0.52555  1.0000
  N   N236      1.0  0.71831  0.42392  0.48212  1.0000
  S   S935      1.0  0.63360  0.31676  0.71500  1.0000
  H   H5622     1.0  0.65252  0.47965  0.69569  1.0000
  H   H5623     1.0  0.69563  0.22284  0.70314  1.0000
  H   H5624     1.0  0.72537  0.23592  0.61591  1.0000
  C   C3278     1.0  0.72677  0.38049  0.60153  1.0000
  C   C3279     1.0  0.73187  0.21053  0.68781  1.0000
  C   C3280     1.0  0.72228  0.37853  0.56421  1.0000
  S   S936      1.0  0.61047  0.28805  0.72581  1.0000
  H   H5625     1.0  0.60204  0.43171  0.64686  1.0000
  C   C3281     1.0  0.56600  0.37468  0.69577  1.0000
  C   C3282     1.0  0.71466  0.29765  0.53726  1.0000
  C   C3283     1.0  0.63342  0.47671  0.69180  1.0000
  S   S937      1.0  0.72979  0.21651  0.71363  1.0000
  H   H5626     1.0  0.62999  0.44796  0.70962  1.0000
  C   C3284     1.0  0.73065  0.41570  0.53832  1.0000
  H   H5627     1.0  0.73068  0.36904  0.60636  1.0000
  H   H5628     1.0  0.73082  0.18246  0.63990  1.0000
  H   H5629     1.0  0.65308  0.20668  0.71080  1.0000
  H   H5630     1.0  0.72113  0.44297  0.63710  1.0000
  C   C3285     1.0  0.72818  0.18243  0.69971  1.0000
  H   H5631     1.0  0.62655  0.20844  0.71868  1.0000
  H   H5632     1.0  0.73054  0.31079  0.49276  1.0000
  H   H5633     1.0  0.72560  0.31850  0.51707  1.0000
  H   H5634     1.0  0.59445  0.43794  0.72482  1.0000
  S   S938      1.0  0.73075  0.44180  0.60040  1.0000
  H   H5635     1.0  0.70546  0.40021  0.49148  1.0000
  H   H5636     1.0  0.70637  0.44161  0.51088  1.0000
  H   H5637     1.0  0.49773  0.26654  0.62475  1.0000
  H   H5638     1.0  0.73183  0.20638  0.66763  1.0000
  C   C3286     1.0  0.49375  0.28758  0.62953  1.0000
  H   H5639     1.0  0.58120  0.35496  0.72316  1.0000
  H   H5640     1.0  0.67190  0.22368  0.71666  1.0000
  C   C3287     1.0  0.73141  0.38525  0.63701  1.0000
  H   H5641     1.0  0.50317  0.27988  0.60951  1.0000
  H   H5642     1.0  0.73195  0.36676  0.71891  1.0000
  H   H5643     1.0  0.72709  0.37022  0.55766  1.0000
  H   H5644     1.0  0.73026  0.22625  0.60176  1.0000
  H   H5645     1.0  0.73121  0.32330  0.53494  1.0000
  S   S939      1.0  0.73318  0.15557  0.60633  1.0000
  C   C3288     1.0  0.48831  0.32462  0.60251  1.0000
  H   H5646     1.0  0.73612  0.18574  0.54853  1.0000
  H   H5647     1.0  0.71074  0.27721  0.47877  1.0000
  H   H5648     1.0  0.72124  0.31362  0.55117  1.0000
  H   H5649     1.0  0.72213  0.42813  0.50935  1.0000
  H   H5650     1.0  0.73340  0.40446  0.65817  1.0000
  N   N237      1.0  0.73005  0.29657  0.52914  1.0000
  H   H5651     1.0  0.73132  0.33945  0.59177  1.0000
  H   H5652     1.0  0.70054  0.20348  0.71973  1.0000
  H   H5653     1.0  0.49292  0.32678  0.59077  1.0000
  H   H5654     1.0  0.49194  0.33170  0.60696  1.0000
  C   C3289     1.0  0.73617  0.36024  0.58091  1.0000
  H   H5655     1.0  0.73061  0.99415  0.72341  1.0000
  C   C3290     1.0  0.73188  0.31367  0.54382  1.0000
  H   H5656     1.0  0.69580  0.18650  0.72752  1.0000
  C   C3291     1.0  0.73566  0.33342  0.71354  1.0000
  H   H5657     1.0  0.73306  0.18889  0.52361  1.0000
  S   S940      1.0  0.73698  0.24465  0.57034  1.0000
  H   H5658     1.0  0.73633  0.37977  0.64640  1.0000
  H   H5659     1.0  0.73689  0.47912  0.61325  1.0000
  H   H5660     1.0  0.69184  0.30853  0.47984  1.0000
  C   C3292     1.0  0.73581  0.17632  0.54477  1.0000
  H   H5661     1.0  0.61671  0.42129  0.72623  1.0000
  H   H5662     1.0  0.73545  0.14813  0.53136  1.0000
  H   H5663     1.0  0.72802  0.26930  0.87940  1.0000
  H   H5664     1.0  0.72926  0.07720  0.90676  1.0000
  H   H5665     1.0  0.72250  0.31278  0.75457  1.0000
  H   H5666     1.0  0.73429  0.22193  0.77393  1.0000
  H   H5667     1.0  0.67555  0.24438  0.76848  1.0000
  H   H5668     1.0  0.69448  0.29149  0.88961  1.0000
  H   H5669     1.0  0.65422  0.33083  0.74687  1.0000
  C   C3293     1.0  0.73102  0.22601  0.78359  1.0000
  C   C3294     1.0  0.69910  0.31359  0.86058  1.0000
  C   C3295     1.0  0.66590  0.23448  0.78949  1.0000
  N   N238      1.0  0.73628  0.34124  0.77458  1.0000
  H   H5670     1.0  0.72164  0.00992  0.74101  1.0000
  C   C3296     1.0  0.71564  0.33852  0.73308  1.0000
  S   S941      1.0  0.73087  0.20791  0.75466  1.0000
  H   H5671     1.0  0.70298  0.14696  0.74629  1.0000
  H   H5672     1.0  0.66813  0.15743  0.77903  1.0000
  H   H5673     1.0  0.67178  0.27437  0.78548  1.0000
  S   S942      1.0  0.69673  0.28030  0.84105  1.0000
  H   H5674     1.0  0.64889  0.27578  0.75612  1.0000
  Fe  Fe472     1.0  0.67100  0.34317  0.78354  1.0000
  H   H5675     1.0  0.70108  0.34230  0.79496  1.0000
  S   S943      1.0  0.66813  0.34045  0.80730  1.0000
  C   C3297     1.0  0.65530  0.32288  0.74089  1.0000
  C   C3298     1.0  0.73377  0.16147  0.79340  1.0000
  S   S944      1.0  0.65579  0.33740  0.77421  1.0000
  Fe  Fe473     1.0  0.67560  0.32879  0.75910  1.0000
  H   H5676     1.0  0.72156  0.99807  0.78765  1.0000
  C   C3299     1.0  0.72967  0.15169  0.82345  1.0000
  H   H5677     1.0  0.69976  0.26983  0.77852  1.0000
  H   H5678     1.0  0.66706  0.26959  0.73597  1.0000
  C   C3300     1.0  0.71100  0.28284  0.90165  1.0000
  H   H5679     1.0  0.63800  0.24860  0.79139  1.0000
  H   H5680     1.0  0.71272  0.32770  0.78751  1.0000
  S   S945      1.0  0.62225  0.24997  0.74923  1.0000
  C   C3301     1.0  0.72689  0.29772  0.86902  1.0000
  H   H5681     1.0  0.72261  0.01974  0.76024  1.0000
  H   H5682     1.0  0.67683  0.29153  0.73353  1.0000
  C   C3302     1.0  0.71143  0.11661  0.78319  1.0000
  C   C3303     1.0  0.63913  0.25308  0.77964  1.0000
  H   H5683     1.0  0.68544  0.13815  0.76630  1.0000
  C   C3304     1.0  0.70347  0.14635  0.79393  1.0000
  S   S946      1.0  0.71358  0.18819  0.74709  1.0000
  C   C3305     1.0  0.72357  0.16972  0.80247  1.0000
  Fe  Fe474     1.0  0.70928  0.21901  0.76532  1.0000
  S   S947      1.0  0.70179  0.19883  0.77745  1.0000
  S   S948      1.0  0.70451  0.23659  0.77710  1.0000
  Fe  Fe475     1.0  0.72261  0.18782  0.76551  1.0000
  C   C3306     1.0  0.71003  0.14907  0.77757  1.0000
  Fe  Fe476     1.0  0.69350  0.20118  0.75800  1.0000
  S   S949      1.0  0.67227  0.19611  0.76070  1.0000
  H   H5684     1.0  0.70947  0.29570  0.75548  1.0000
  S   S950      1.0  0.69919  0.22236  0.74679  1.0000
  C   C3307     1.0  0.63625  0.23485  0.75125  1.0000
  C   C3308     1.0  0.65024  0.23514  0.74342  1.0000
  C   C3309     1.0  0.66145  0.22338  0.74645  1.0000
  C   C3310     1.0  0.65857  0.21108  0.75680  1.0000
  C   C3311     1.0  0.64451  0.21062  0.76415  1.0000
  C   C3312     1.0  0.63342  0.22257  0.76158  1.0000
  S   S951      1.0  0.73452  0.28880  0.82739  1.0000
  C   C3313     1.0  0.72653  0.98741  0.78576  1.0000
  H   H5685     1.0  0.64223  0.20113  0.77214  1.0000
  H   H5686     1.0  0.62262  0.22230  0.76767  1.0000
  H   H5687     1.0  0.61616  0.26127  0.78277  1.0000
  C   C3314     1.0  0.71250  0.12731  0.76855  1.0000
  C   C3315     1.0  0.66659  0.31080  0.74137  1.0000
  H   H5688     1.0  0.71714  0.10572  0.78140  1.0000
  H   H5689     1.0  0.70671  0.33527  0.74117  1.0000
  H   H5690     1.0  0.60191  0.23946  0.73398  1.0000
  H   H5691     1.0  0.71892  0.25717  0.75752  1.0000
  H   H5692     1.0  0.72521  0.25965  0.77750  1.0000
  S   S952      1.0  0.73697  0.05731  0.81392  1.0000
  H   H5693     1.0  0.71098  0.29507  0.85207  1.0000
  H   H5694     1.0  0.70815  0.16097  0.77372  1.0000
  S   S953      1.0  0.73168  0.03491  0.78794  1.0000
  C   C3316     1.0  0.73566  0.33259  0.76453  1.0000
  H   H5695     1.0  0.71743  0.17996  0.79800  1.0000
  H   H5696     1.0  0.71366  0.17126  0.82445  1.0000
  C   C3317     1.0  0.65546  0.26679  0.78083  1.0000
  C   C3318     1.0  0.70626  0.27566  0.78122  1.0000
  Fe  Fe477     1.0  0.72009  0.20923  0.73714  1.0000
  C   C3319     1.0  0.71979  0.27489  0.87305  1.0000
  C   C3320     1.0  0.70556  0.29278  0.88827  1.0000
  H   H5697     1.0  0.69658  0.27870  0.75678  1.0000
  H   H5698     1.0  0.70165  0.16250  0.75245  1.0000
  H   H5699     1.0  0.66497  0.38120  0.73575  1.0000
  H   H5700     1.0  0.72973  0.08172  0.88757  1.0000
  H   H5701     1.0  0.72420  0.29496  0.74067  1.0000
  H   H5702     1.0  0.60916  0.42647  0.74296  1.0000
  C   C3321     1.0  0.71289  0.23890  0.80015  1.0000
  C   C3322     1.0  0.71692  0.23335  0.78777  1.0000
  H   H5703     1.0  0.65310  0.26260  0.79269  1.0000
  C   C3323     1.0  0.70834  0.26578  0.87778  1.0000
  H   H5704     1.0  0.71974  0.24147  0.81785  1.0000
  H   H5705     1.0  0.70198  0.24452  0.80348  1.0000
  H   H5706     1.0  0.73054  0.08145  0.82705  1.0000
  S   S954      1.0  0.71812  0.12413  0.73081  1.0000
  C   C3324     1.0  0.68865  0.29672  0.83140  1.0000
  C   C3325     1.0  0.69401  0.30124  0.81668  1.0000
  C   C3326     1.0  0.68745  0.31447  0.80910  1.0000
  C   C3327     1.0  0.67592  0.32343  0.81633  1.0000
  C   C3328     1.0  0.67073  0.31895  0.83109  1.0000
  C   C3329     1.0  0.67690  0.30549  0.83857  1.0000
  H   H5707     1.0  0.70303  0.29444  0.81109  1.0000
  H   H5708     1.0  0.69142  0.31776  0.79774  1.0000
  H   H5709     1.0  0.66178  0.32582  0.83671  1.0000
  H   H5710     1.0  0.67270  0.30197  0.84994  1.0000
  C   C3330     1.0  0.62595  0.44577  0.73901  1.0000
  H   H5711     1.0  0.73680  0.16806  0.85343  1.0000
  H   H5712     1.0  0.62648  0.42142  0.76058  1.0000
  H   H5713     1.0  0.70146  0.26863  0.86993  1.0000
  H   H5714     1.0  0.72792  0.18708  0.83034  1.0000
  S   S955      1.0  0.67528  0.34939  0.74273  1.0000
  S   S956      1.0  0.67950  0.30871  0.75115  1.0000
  C   C3331     1.0  0.72297  0.23728  0.80820  1.0000
  Fe  Fe478     1.0  0.65673  0.35854  0.75860  1.0000
  S   S957      1.0  0.70747  0.36365  0.74215  1.0000
  H   H5715     1.0  0.70751  0.31970  0.85458  1.0000
  N   N239      1.0  0.65358  0.25678  0.77289  1.0000
  C   C3332     1.0  0.64393  0.38304  0.73269  1.0000
  H   H5716     1.0  0.67812  0.16398  0.76167  1.0000
  H   H5717     1.0  0.66879  0.24084  0.79540  1.0000
  H   H5718     1.0  0.73704  0.02416  0.74600  1.0000
  C   C3333     1.0  0.63782  0.42069  0.73807  1.0000
  H   H5719     1.0  0.71205  0.14441  0.79981  1.0000
  H   H5720     1.0  0.70341  0.27583  0.90797  1.0000
  H   H5721     1.0  0.72835  0.27581  0.77875  1.0000
  H   H5722     1.0  0.61679  0.44483  0.74841  1.0000
  H   H5723     1.0  0.72340  0.15920  0.73520  1.0000
  H   H5724     1.0  0.72184  0.14528  0.77619  1.0000
  C   C3334     1.0  0.70735  0.15108  0.75317  1.0000
  H   H5725     1.0  0.64801  0.42292  0.73849  1.0000
  H   H5726     1.0  0.71685  0.11910  0.79027  1.0000
  C   C3335     1.0  0.66464  0.24284  0.77411  1.0000
  C   C3336     1.0  0.72248  0.10520  0.73484  1.0000
  H   H5727     1.0  0.64705  0.25985  0.75289  1.0000
  H   H5728     1.0  0.70513  0.27236  0.79307  1.0000
  H   H5729     1.0  0.70029  0.11584  0.78867  1.0000
  H   H5730     1.0  0.63787  0.24454  0.77511  1.0000
  S   S958      1.0  0.67009  0.36524  0.76929  1.0000
  S   S959      1.0  0.63802  0.37310  0.74989  1.0000
  H   H5731     1.0  0.71378  0.25433  0.87819  1.0000
  C   C3337     1.0  0.68878  0.14319  0.77322  1.0000
  H   H5732     1.0  0.70431  0.30405  0.88904  1.0000
  H   H5733     1.0  0.65611  0.23057  0.79570  1.0000
  H   H5734     1.0  0.73305  0.29617  0.85810  1.0000
  S   S960      1.0  0.69083  0.33267  0.76972  1.0000
  Fe  Fe479     1.0  0.68863  0.35421  0.75469  1.0000
  H   H5735     1.0  0.67013  0.28044  0.76698  1.0000
  H   H5736     1.0  0.72077  0.35569  0.78731  1.0000
  C   C3338     1.0  0.67909  0.15833  0.77283  1.0000
  H   H5737     1.0  0.72550  0.27393  0.86189  1.0000
  H   H5738     1.0  0.67630  0.26613  0.75000  1.0000
  C   C3339     1.0  0.72210  0.27147  0.77392  1.0000
  H   H5739     1.0  0.69840  0.13703  0.79839  1.0000
  H   H5740     1.0  0.65248  0.24456  0.73535  1.0000
  H   H5741     1.0  0.70187  0.28739  0.77872  1.0000
  H   H5742     1.0  0.68287  0.16507  0.77758  1.0000
  H   H5743     1.0  0.70699  0.98311  0.78424  1.0000
  H   H5744     1.0  0.63524  0.44461  0.74372  1.0000
  C   C3340     1.0  0.62600  0.26559  0.77800  1.0000
  C   C3341     1.0  0.72146  0.16478  0.81747  1.0000
  C   C3342     1.0  0.73055  0.00425  0.74664  1.0000
  H   H5745     1.0  0.64743  0.27709  0.77936  1.0000
  C   C3343     1.0  0.65377  0.26408  0.75727  1.0000
  C   C3344     1.0  0.61460  0.43033  0.73168  1.0000
  H   H5746     1.0  0.62535  0.27385  0.78384  1.0000
  H   H5747     1.0  0.69557  0.29237  0.86577  1.0000
  H   H5748     1.0  0.68579  0.13677  0.78420  1.0000
  H   H5749     1.0  0.71471  0.35338  0.77306  1.0000
  C   C3345     1.0  0.66839  0.26267  0.74663  1.0000
  H   H5750     1.0  0.70878  0.12294  0.76136  1.0000
  S   S961      1.0  0.73323  0.25454  0.84214  1.0000
  C   C3346     1.0  0.70507  0.29722  0.86282  1.0000
  H   H5751     1.0  0.62564  0.27068  0.76661  1.0000
  H   H5752     1.0  0.64002  0.40552  0.75833  1.0000
  H   H5753     1.0  0.67264  0.25152  0.74502  1.0000
  N   N240      1.0  0.71437  0.29052  0.87371  1.0000
  C   C3347     1.0  0.71247  0.33673  0.79210  1.0000
  H   H5754     1.0  0.72414  0.12660  0.76420  1.0000
  C   C3348     1.0  0.64530  0.32474  0.73264  1.0000
  H   H5755     1.0  0.66249  0.23548  0.76869  1.0000
  C   C3349     1.0  0.63138  0.41358  0.75360  1.0000
  C   C3350     1.0  0.71947  0.26812  0.75087  1.0000
  H   H5756     1.0  0.67916  0.26233  0.77401  1.0000
  Fe  Fe480     1.0  0.71984  0.27410  0.83081  1.0000
  N   N241      1.0  0.70463  0.14265  0.76854  1.0000
  H   H5757     1.0  0.72177  0.27595  0.89943  1.0000
  C   C3351     1.0  0.73350  0.19467  0.82162  1.0000
  C   C3352     1.0  0.66996  0.27119  0.77636  1.0000
  H   H5758     1.0  0.62349  0.40749  0.75381  1.0000
  H   H5759     1.0  0.73278  0.29652  0.88919  1.0000
  H   H5760     1.0  0.73325  0.09373  0.89590  1.0000
  H   H5761     1.0  0.67471  0.22480  0.78880  1.0000
  H   H5762     1.0  0.71126  0.28946  0.90890  1.0000
  H   H5763     1.0  0.69576  0.15613  0.79679  1.0000
  S   S962      1.0  0.73354  0.05597  0.74683  1.0000
  H   H5764     1.0  0.72937  0.14099  0.74337  1.0000
  H   H5765     1.0  0.72632  0.99601  0.75575  1.0000
  C   C3353     1.0  0.73484  0.08218  0.89598  1.0000
  N   N242      1.0  0.72584  0.27597  0.75776  1.0000
  C   C3354     1.0  0.70461  0.27535  0.74749  1.0000
  H   H5766     1.0  0.72642  0.26642  0.74028  1.0000
  S   S963      1.0  0.72768  0.14623  0.84225  1.0000
  C   C3355     1.0  0.71842  0.35203  0.73120  1.0000
  H   H5767     1.0  0.72480  0.29928  0.77029  1.0000
  H   H5768     1.0  0.73440  0.20360  0.82569  1.0000
  C   C3356     1.0  0.72340  0.08213  0.73026  1.0000
  H   H5769     1.0  0.70073  0.26760  0.74415  1.0000
  H   H5770     1.0  0.67227  0.22377  0.74070  1.0000
  H   H5771     1.0  0.72629  0.36993  0.75796  1.0000
  H   H5772     1.0  0.70516  0.28484  0.73840  1.0000
  H   H5773     1.0  0.72323  0.30949  0.86810  1.0000
  H   H5774     1.0  0.72647  0.19954  0.81378  1.0000
  H   H5775     1.0  0.69354  0.31704  0.87078  1.0000
  C   C3357     1.0  0.72126  0.29199  0.75263  1.0000
  H   H5776     1.0  0.70159  0.26653  0.88858  1.0000
  C   C3358     1.0  0.73301  0.01500  0.75379  1.0000
  S   S964      1.0  0.72862  0.26874  0.80923  1.0000
  H   H5777     1.0  0.73066  0.10404  0.75315  1.0000
  C   C3359     1.0  0.66789  0.30064  0.73351  1.0000
  H   H5778     1.0  0.69110  0.31667  0.85378  1.0000
  H   H5779     1.0  0.71626  0.33244  0.80229  1.0000
  C   C3360     1.0  0.72855  0.09799  0.74676  1.0000
  C   C3361     1.0  0.72933  0.07493  0.74231  1.0000
  H   H5780     1.0  0.72845  0.15517  0.75204  1.0000
  C   C3362     1.0  0.73186  0.08293  0.75055  1.0000
  H   H5781     1.0  0.68264  0.20243  0.72977  1.0000
  H   H5782     1.0  0.72724  0.33831  0.75828  1.0000
  C   C3363     1.0  0.73736  0.36404  0.75437  1.0000
  C   C3364     1.0  0.65781  0.38548  0.72842  1.0000
  C   C3365     1.0  0.72310  0.15148  0.74576  1.0000
  H   H5783     1.0  0.63657  0.33407  0.73237  1.0000
  C   C3366     1.0  0.72107  0.34754  0.78140  1.0000
  H   H5784     1.0  0.60783  0.22052  0.73560  1.0000
  H   H5785     1.0  0.59830  0.45037  0.73233  1.0000
  H   H5786     1.0  0.61983  0.46884  0.73785  1.0000
  H   H5787     1.0  0.58697  0.32879  0.72832  1.0000
  H   H5788     1.0  0.73208  0.32256  0.77078  1.0000
  C   C3367     1.0  0.72743  0.30135  0.75839  1.0000
  H   H5789     1.0  0.64093  0.41239  0.73161  1.0000
  N   N243      1.0  0.62847  0.43406  0.73102  1.0000
  C   C3368     1.0  0.62317  0.46147  0.73033  1.0000
  S   S965      1.0  0.73678  0.16721  0.77458  1.0000
  C   C3369     1.0  0.73715  0.23032  0.80379  1.0000
  H   H5790     1.0  0.73686  0.05809  0.88556  1.0000
  Fe  Fe481     1.0  0.62554  0.26649  0.72870  1.0000
  H   H5791     1.0  0.73626  0.07753  0.75990  1.0000
  H   H5792     1.0  0.61203  0.19199  0.72900  1.0000
  C   C3370     1.0  0.60891  0.23103  0.72823  1.0000
  H   H5793     1.0  0.71343  0.76950  0.06209  1.0000
  N   N244      1.0  0.61489  0.61890  0.21749  1.0000
  Fe  Fe482     1.0  0.69242  0.79524  0.12320  1.0000
  S   S966      1.0  0.71203  0.79589  0.12962  1.0000
  S   S967      1.0  0.68624  0.81178  0.10395  1.0000
  Fe  Fe483     1.0  0.68802  0.76793  0.14547  1.0000
  S   S968      1.0  0.70763  0.76617  0.15320  1.0000
  S   S969      1.0  0.67775  0.74972  0.15901  1.0000
  Fe  Fe484     1.0  0.69982  0.78959  0.15210  1.0000
  S   S970      1.0  0.70169  0.79817  0.16986  1.0000
  Fe  Fe485     1.0  0.71788  0.77245  0.13008  1.0000
  C   C3371     1.0  0.71787  0.84403  0.08501  1.0000
  S   S971      1.0  0.67935  0.79124  0.14596  1.0000
  S   S972      1.0  0.69911  0.77200  0.12215  1.0000
  C   C3372     1.0  0.73710  0.72159  0.11017  1.0000
  Fe  Fe486     1.0  0.60857  0.72689  0.17906  1.0000
  S   S973      1.0  0.62259  0.70864  0.19128  1.0000
  S   S974      1.0  0.61834  0.74031  0.15815  1.0000
  Fe  Fe487     1.0  0.58151  0.72227  0.20189  1.0000
  S   S975      1.0  0.59352  0.70380  0.21589  1.0000
  S   S976      1.0  0.55819  0.73230  0.20836  1.0000
  Fe  Fe488     1.0  0.60960  0.71754  0.21046  1.0000
  H   H5794     1.0  0.72542  0.82165  0.12708  1.0000
  Fe  Fe489     1.0  0.60516  0.69696  0.19519  1.0000
  S   S977      1.0  0.60973  0.67390  0.19351  1.0000
  S   S978      1.0  0.59662  0.73653  0.19801  1.0000
  S   S979      1.0  0.59196  0.71450  0.18145  1.0000
  H   H5795     1.0  0.72910  0.80925  0.19503  1.0000
  C   C3373     1.0  0.72894  0.84837  0.20318  1.0000
  C   C3374     1.0  0.69922  0.67466  0.10521  1.0000
  H   H5796     1.0  0.66147  0.50413  0.18832  1.0000
  C   C3375     1.0  0.73172  0.82981  0.10353  1.0000
  N   N245      1.0  0.67172  0.49625  0.21459  1.0000
  Fe  Fe490     1.0  0.67462  0.64838  0.14935  1.0000
  S   S980      1.0  0.68588  0.62574  0.14760  1.0000
  S   S981      1.0  0.65761  0.66378  0.13856  1.0000
  Fe  Fe491     1.0  0.68356  0.62157  0.17151  1.0000
  S   S982      1.0  0.67941  0.60212  0.18875  1.0000
  S   S983      1.0  0.67035  0.64337  0.17339  1.0000
  H   H5797     1.0  0.70494  0.61361  0.20413  1.0000
  H   H5798     1.0  0.73284  0.86906  0.10287  1.0000
  Fe  Fe492     1.0  0.62167  0.56203  0.20900  1.0000
  S   S984      1.0  0.62523  0.58025  0.19004  1.0000
  H   H5799     1.0  0.70080  0.90275  0.11222  1.0000
  S   S985      1.0  0.60300  0.55122  0.21564  1.0000
  H   H5800     1.0  0.71627  0.72413  0.12433  1.0000
  H   H5801     1.0  0.73647  0.83001  0.98740  1.0000
  H   H5802     1.0  0.67411  0.69486  0.10833  1.0000
  C   C3376     1.0  0.69058  0.73973  0.19768  1.0000
  H   H5803     1.0  0.70739  0.94932  0.06112  1.0000
  H   H5804     1.0  0.68612  0.49839  0.19343  1.0000
  C   C3377     1.0  0.67941  0.75316  0.19281  1.0000
  H   H5805     1.0  0.65441  0.49002  0.20999  1.0000
  Fe  Fe493     1.0  0.68690  0.87345  0.16983  1.0000
  S   S986      1.0  0.67352  0.89493  0.17302  1.0000
  S   S987      1.0  0.68681  0.86535  0.15099  1.0000
  Fe  Fe494     1.0  0.69812  0.86736  0.19672  1.0000
  S   S988      1.0  0.68617  0.88861  0.20190  1.0000
  S   S989      1.0  0.71099  0.85179  0.21181  1.0000
  Fe  Fe495     1.0  0.66801  0.88367  0.19625  1.0000
  S   S990      1.0  0.64586  0.88665  0.21035  1.0000
  Fe  Fe496     1.0  0.69304  0.89743  0.17826  1.0000
  S   S991      1.0  0.70284  0.91680  0.16873  1.0000
  S   S992      1.0  0.67968  0.86194  0.19249  1.0000
  S   S993      1.0  0.70680  0.87645  0.17370  1.0000
  H   H5806     1.0  0.73622  0.74486  0.15413  1.0000
  H   H5807     1.0  0.69131  0.67613  0.11538  1.0000
  H   H5808     1.0  0.51425  0.71981  0.20860  1.0000
  Fe  Fe497     1.0  0.70559  0.63325  0.14628  1.0000
  C   C3378     1.0  0.73303  0.64983  0.11287  1.0000
  H   H5809     1.0  0.65923  0.77125  0.17639  1.0000
  H   H5810     1.0  0.70985  0.92628  0.11872  1.0000
  C   C3379     1.0  0.63903  0.87171  0.22152  1.0000
  C   C3380     1.0  0.73232  0.73958  0.17747  1.0000
  H   H5811     1.0  0.73457  0.78170  0.04039  1.0000
  S   S994      1.0  0.72969  0.85180  0.02798  1.0000
  S   S995      1.0  0.73526  0.70665  0.10551  1.0000
  H   H5812     1.0  0.73532  0.64108  0.18029  1.0000
  H   H5813     1.0  0.73104  0.81968  0.10122  1.0000
  H   H5814     1.0  0.72846  0.74604  0.08810  1.0000
  C   C3381     1.0  0.72461  0.90028  0.13414  1.0000
  C   C3382     1.0  0.71405  0.90388  0.14595  1.0000
  C   C3383     1.0  0.71511  0.91400  0.15270  1.0000
  C   C3384     1.0  0.69119  0.84549  0.10726  1.0000
  H   H5815     1.0  0.69177  0.91588  0.12319  1.0000
  C   C3385     1.0  0.71781  0.92803  0.19175  1.0000
  H   H5816     1.0  0.70503  0.89878  0.14981  1.0000
  N   N246      1.0  0.71885  0.84148  0.10050  1.0000
  C   C3386     1.0  0.72665  0.67604  0.16637  1.0000
  C   C3387     1.0  0.70581  0.83618  0.10997  1.0000
  H   H5817     1.0  0.72210  0.78229  0.06323  1.0000
  C   C3388     1.0  0.68134  0.68424  0.08984  1.0000
  H   H5818     1.0  0.68212  0.91013  0.11405  1.0000
  H   H5819     1.0  0.70969  0.63570  0.21737  1.0000
  H   H5820     1.0  0.65157  0.61864  0.20572  1.0000
  N   N247      1.0  0.73418  0.76036  0.06760  1.0000
  N   N248      1.0  0.70918  0.92933  0.09631  1.0000
  H   H5821     1.0  0.70325  0.49310  0.20639  1.0000
  C   C3389     1.0  0.52633  0.70322  0.22253  1.0000
  C   C3390     1.0  0.66456  0.59599  0.18868  1.0000
  C   C3391     1.0  0.65628  0.60289  0.17841  1.0000
  C   C3392     1.0  0.64434  0.59786  0.17868  1.0000
  C   C3393     1.0  0.64061  0.58602  0.18928  1.0000
  C   C3394     1.0  0.64891  0.57916  0.19954  1.0000
  C   C3395     1.0  0.66084  0.58415  0.19926  1.0000
  H   H5822     1.0  0.65909  0.61206  0.17023  1.0000
  H   H5823     1.0  0.63799  0.60316  0.17068  1.0000
  C   C3396     1.0  0.71107  0.77201  0.08361  1.0000
  C   C3397     1.0  0.61428  0.49769  0.21487  1.0000
  N   N249      1.0  0.69255  0.67152  0.09488  1.0000
  C   C3398     1.0  0.73203  0.74581  0.07649  1.0000
  C   C3399     1.0  0.73409  0.82622  0.11898  1.0000
  H   H5824     1.0  0.67163  0.51756  0.17971  1.0000
  C   C3400     1.0  0.68686  0.60328  0.22510  1.0000
  C   C3401     1.0  0.61988  0.74816  0.21042  1.0000
  C   C3402     1.0  0.61989  0.76270  0.20831  1.0000
  C   C3403     1.0  0.62116  0.76799  0.21945  1.0000
  H   H5825     1.0  0.71614  0.60584  0.21662  1.0000
  H   H5826     1.0  0.70624  0.82520  0.10892  1.0000
  H   H5827     1.0  0.61946  0.74413  0.20159  1.0000
  H   H5828     1.0  0.61925  0.76977  0.19790  1.0000
  H   H5829     1.0  0.63421  0.60477  0.20895  1.0000
  H   H5830     1.0  0.73456  0.61860  0.10417  1.0000
  C   C3404     1.0  0.62160  0.67117  0.17727  1.0000
  C   C3405     1.0  0.62422  0.68278  0.16581  1.0000
  C   C3406     1.0  0.63457  0.68043  0.15330  1.0000
  C   C3407     1.0  0.64251  0.66654  0.15245  1.0000
  C   C3408     1.0  0.63936  0.65493  0.16361  1.0000
  C   C3409     1.0  0.62891  0.65723  0.17596  1.0000
  H   H5831     1.0  0.61853  0.69358  0.16670  1.0000
  H   H5832     1.0  0.63687  0.68942  0.14462  1.0000
  H   H5833     1.0  0.64527  0.64414  0.16286  1.0000
  H   H5834     1.0  0.62699  0.64822  0.18469  1.0000
  C   C3410     1.0  0.54617  0.72090  0.21387  1.0000
  C   C3411     1.0  0.53363  0.72530  0.20866  1.0000
  C   C3412     1.0  0.52381  0.71643  0.21287  1.0000
  H   H5835     1.0  0.72508  0.73738  0.06176  1.0000
  H   H5836     1.0  0.72090  0.94579  0.11682  1.0000
  H   H5837     1.0  0.58153  0.49906  0.20961  1.0000
  H   H5838     1.0  0.53161  0.73552  0.20119  1.0000
  C   C3413     1.0  0.57573  0.67111  0.21885  1.0000
  H   H5839     1.0  0.64424  0.78318  0.18473  1.0000
  H   H5840     1.0  0.71711  0.77359  0.09065  1.0000
  H   H5841     1.0  0.65715  0.85534  0.21496  1.0000
  H   H5842     1.0  0.70914  0.93041  0.06682  1.0000
  C   C3414     1.0  0.69871  0.81677  0.16390  1.0000
  C   C3415     1.0  0.70231  0.82505  0.17110  1.0000
  C   C3416     1.0  0.69910  0.84004  0.16680  1.0000
  C   C3417     1.0  0.69214  0.84671  0.15543  1.0000
  C   C3418     1.0  0.68872  0.83842  0.14812  1.0000
  C   C3419     1.0  0.69212  0.82343  0.15226  1.0000
  H   H5843     1.0  0.70746  0.81992  0.18004  1.0000
  H   H5844     1.0  0.70196  0.84643  0.17234  1.0000
  H   H5845     1.0  0.68310  0.84360  0.13952  1.0000
  H   H5846     1.0  0.68921  0.81707  0.14674  1.0000
  C   C3420     1.0  0.65998  0.75013  0.15937  1.0000
  C   C3421     1.0  0.65436  0.75588  0.14702  1.0000
  C   C3422     1.0  0.64122  0.75334  0.14684  1.0000
  C   C3423     1.0  0.63364  0.74525  0.15905  1.0000
  C   C3424     1.0  0.63890  0.74032  0.17161  1.0000
  C   C3425     1.0  0.65206  0.74265  0.17175  1.0000
  H   H5847     1.0  0.66047  0.76156  0.13739  1.0000
  H   H5848     1.0  0.63715  0.75723  0.13711  1.0000
  H   H5849     1.0  0.63305  0.73429  0.18111  1.0000
  H   H5850     1.0  0.65633  0.73817  0.18133  1.0000
  C   C3426     1.0  0.70067  0.81174  0.08894  1.0000
  C   C3427     1.0  0.69898  0.82066  0.07554  1.0000
  C   C3428     1.0  0.71062  0.82066  0.06361  1.0000
  C   C3429     1.0  0.71905  0.91380  0.20326  1.0000
  H   H5851     1.0  0.71268  0.83605  0.08374  1.0000
  C   C3430     1.0  0.71406  0.80300  0.09038  1.0000
  H   H5852     1.0  0.68865  0.82749  0.07436  1.0000
  H   H5853     1.0  0.70920  0.82732  0.05321  1.0000
  H   H5854     1.0  0.71551  0.79599  0.10056  1.0000
  H   H5855     1.0  0.72937  0.84660  0.06273  1.0000
  C   C3431     1.0  0.66615  0.51208  0.19035  1.0000
  H   H5856     1.0  0.73039  0.65459  0.12210  1.0000
  H   H5857     1.0  0.69270  0.94246  0.07320  1.0000
  H   H5858     1.0  0.70629  0.58644  0.22039  1.0000
  H   H5859     1.0  0.73453  0.77038  0.21845  1.0000
  H   H5860     1.0  0.68178  0.83716  0.97961  1.0000
  C   C3432     1.0  0.72021  0.77129  0.06836  1.0000
  H   H5861     1.0  0.72501  0.84880  0.18276  1.0000
  H   H5862     1.0  0.66720  0.57882  0.20724  1.0000
  C   C3433     1.0  0.64676  0.85751  0.22189  1.0000
  H   H5863     1.0  0.67561  0.68137  0.08325  1.0000
  H   H5864     1.0  0.58573  0.66302  0.21656  1.0000
  C   C3434     1.0  0.69507  0.92498  0.09970  1.0000
  H   H5865     1.0  0.71540  0.68614  0.09003  1.0000
  C   C3435     1.0  0.67717  0.50494  0.19991  1.0000
  H   H5866     1.0  0.71753  0.82185  0.21467  1.0000
  S   S996      1.0  0.69455  0.65621  0.14603  1.0000
  H   H5867     1.0  0.71050  0.74653  0.07378  1.0000
  H   H5868     1.0  0.71782  0.93704  0.19632  1.0000
  C   C3436     1.0  0.60616  0.61266  0.21153  1.0000
  C   C3437     1.0  0.72297  0.90849  0.08322  1.0000
  C   C3438     1.0  0.62996  0.61644  0.20863  1.0000
  C   C3439     1.0  0.69536  0.58757  0.22724  1.0000
  C   C3440     1.0  0.60592  0.61854  0.19546  1.0000
  H   H5869     1.0  0.59526  0.51440  0.21382  1.0000
  H   H5870     1.0  0.73286  0.75635  0.04767  1.0000
  C   C3441     1.0  0.73594  0.90733  0.12850  1.0000
  H   H5871     1.0  0.72248  0.95146  0.09786  1.0000
  H   H5872     1.0  0.66329  0.68273  0.10879  1.0000
  H   H5873     1.0  0.71721  0.85418  0.11589  1.0000
  H   H5874     1.0  0.70444  0.95188  0.08581  1.0000
  H   H5875     1.0  0.68608  0.93441  0.10125  1.0000
  H   H5876     1.0  0.63029  0.62174  0.19713  1.0000
  H   H5877     1.0  0.61159  0.64092  0.20540  1.0000
  H   H5878     1.0  0.68632  0.69315  0.08256  1.0000
  H   H5879     1.0  0.59737  0.61499  0.19306  1.0000
  H   H5880     1.0  0.60372  0.63041  0.19241  1.0000
  H   H5881     1.0  0.61605  0.61404  0.18853  1.0000
  S   S997      1.0  0.62281  0.78585  0.21610  1.0000
  H   H5882     1.0  0.70893  0.66033  0.06242  1.0000
  H   H5883     1.0  0.73589  0.79611  0.07981  1.0000
  S   S998      1.0  0.62450  0.50769  0.21859  1.0000
  C   C3442     1.0  0.70642  0.68764  0.09940  1.0000
  H   H5884     1.0  0.68905  0.85621  0.10969  1.0000
  H   H5885     1.0  0.57819  0.67840  0.22407  1.0000
  C   C3443     1.0  0.59240  0.49462  0.21092  1.0000
  C   C3444     1.0  0.72634  0.92127  0.14698  1.0000
  H   H5886     1.0  0.69760  0.64426  0.11842  1.0000
  C   C3445     1.0  0.54862  0.70783  0.22375  1.0000
  S   S999      1.0  0.70404  0.62742  0.17010  1.0000
  H   H5887     1.0  0.70760  0.67813  0.07513  1.0000
  H   H5888     1.0  0.70256  0.66921  0.20462  1.0000
  S   S1000     1.0  0.63796  0.54150  0.21267  1.0000
  C   C3446     1.0  0.68559  0.65898  0.10254  1.0000
  C   C3447     1.0  0.66073  0.50656  0.22292  1.0000
  C   C3448     1.0  0.70401  0.66824  0.08192  1.0000
  H   H5889     1.0  0.70743  0.93070  0.18849  1.0000
  H   H5890     1.0  0.68549  0.63341  0.20193  1.0000
  H   H5891     1.0  0.68169  0.51357  0.20099  1.0000
  C   C3449     1.0  0.69566  0.64468  0.10781  1.0000
  C   C3450     1.0  0.73021  0.89723  0.18714  1.0000
  H   H5892     1.0  0.67906  0.65706  0.09609  1.0000
  H   H5893     1.0  0.69802  0.65056  0.07713  1.0000
  H   H5894     1.0  0.68421  0.60581  0.21438  1.0000
  H   H5895     1.0  0.67009  0.86858  0.22423  1.0000
  H   H5896     1.0  0.70936  0.86367  0.10140  1.0000
  H   H5897     1.0  0.64214  0.61710  0.22393  1.0000
  H   H5898     1.0  0.73316  0.89353  0.22198  1.0000
  C   C3451     1.0  0.71299  0.62891  0.20941  1.0000
  C   C3452     1.0  0.72685  0.74076  0.12301  1.0000
  Fe  Fe498     1.0  0.69094  0.64964  0.17002  1.0000
  C   C3453     1.0  0.69988  0.66149  0.07185  1.0000
  C   C3454     1.0  0.62048  0.48332  0.21415  1.0000
  H   H5899     1.0  0.69965  0.73814  0.18838  1.0000
  H   H5900     1.0  0.69000  0.84657  0.09621  1.0000
  H   H5901     1.0  0.72172  0.87316  0.22698  1.0000
  C   C3455     1.0  0.71881  0.85527  0.10410  1.0000
  C   C3456     1.0  0.73301  0.84762  0.18868  1.0000
  H   H5902     1.0  0.71784  0.87834  0.20957  1.0000
  H   H5903     1.0  0.71093  0.85471  0.08163  1.0000
  C   C3457     1.0  0.68937  0.77412  0.20333  1.0000
  C   C3458     1.0  0.66968  0.69057  0.10173  1.0000
  H   H5904     1.0  0.69385  0.86490  0.98863  1.0000
  H   H5905     1.0  0.72886  0.89729  0.08657  1.0000
  H   H5906     1.0  0.69872  0.69786  0.09658  1.0000
  C   C3459     1.0  0.73094  0.67737  0.17813  1.0000
  C   C3460     1.0  0.72135  0.73955  0.07272  1.0000
  H   H5907     1.0  0.68435  0.78537  0.19895  1.0000
  H   H5908     1.0  0.64619  0.68237  0.17990  1.0000
  H   H5909     1.0  0.72387  0.89210  0.12928  1.0000
  C   C3461     1.0  0.72217  0.67514  0.19185  1.0000
  C   C3462     1.0  0.69866  0.48407  0.21385  1.0000
  C   C3463     1.0  0.72391  0.81163  0.06507  1.0000
  N   N250      1.0  0.67053  0.70305  0.15703  1.0000
  C   C3464     1.0  0.65639  0.69885  0.16438  1.0000
  C   C3465     1.0  0.66753  0.71700  0.14629  1.0000
  C   C3466     1.0  0.67643  0.70543  0.16844  1.0000
  C   C3467     1.0  0.68045  0.69116  0.15010  1.0000
  H   H5910     1.0  0.72575  0.59697  0.18763  1.0000
  C   C3468     1.0  0.65906  0.71706  0.13540  1.0000
  C   C3469     1.0  0.69066  0.71040  0.16346  1.0000
  C   C3470     1.0  0.69225  0.69544  0.13691  1.0000
  H   H5911     1.0  0.64859  0.70782  0.16886  1.0000
  H   H5912     1.0  0.65152  0.69679  0.15657  1.0000
  H   H5913     1.0  0.67743  0.72069  0.14007  1.0000
  H   H5914     1.0  0.66124  0.72562  0.15198  1.0000
  H   H5915     1.0  0.66846  0.71343  0.17422  1.0000
  H   H5916     1.0  0.67841  0.69540  0.17675  1.0000
  H   H5917     1.0  0.68582  0.68278  0.15814  1.0000
  H   H5918     1.0  0.67436  0.68548  0.14647  1.0000
  H   H5919     1.0  0.58006  0.68433  0.19747  1.0000
  C   C3471     1.0  0.62076  0.73888  0.22377  1.0000
  H   H5920     1.0  0.57455  0.60642  0.21673  1.0000
  H   H5921     1.0  0.66271  0.70714  0.13118  1.0000
  H   H5922     1.0  0.64744  0.71846  0.14039  1.0000
  H   H5923     1.0  0.66027  0.72639  0.12622  1.0000
  H   H5924     1.0  0.69066  0.71995  0.15448  1.0000
  H   H5925     1.0  0.69974  0.70149  0.16076  1.0000
  H   H5926     1.0  0.69262  0.71352  0.17255  1.0000
  H   H5927     1.0  0.68776  0.70126  0.12731  1.0000
  H   H5928     1.0  0.69987  0.68557  0.13420  1.0000
  H   H5929     1.0  0.69863  0.70197  0.13873  1.0000
  H   H5930     1.0  0.69355  0.92147  0.09066  1.0000
  H   H5931     1.0  0.67126  0.64522  0.21127  1.0000
  H   H5932     1.0  0.69593  0.77468  0.21046  1.0000
  H   H5933     1.0  0.73248  0.93417  0.10569  1.0000
  H   H5934     1.0  0.66209  0.69973  0.09661  1.0000
  H   H5935     1.0  0.66466  0.67586  0.17297  1.0000
  H   H5936     1.0  0.65752  0.52047  0.19477  1.0000
  H   H5937     1.0  0.68379  0.75586  0.21914  1.0000
  H   H5938     1.0  0.72234  0.74788  0.17662  1.0000
  H   H5939     1.0  0.72540  0.67636  0.20091  1.0000
  H   H5940     1.0  0.61322  0.65292  0.22101  1.0000
  H   H5941     1.0  0.70542  0.83519  0.12147  1.0000
  N   N251      1.0  0.64911  0.83571  0.18493  1.0000
  C   C3472     1.0  0.66415  0.83311  0.18678  1.0000
  C   C3473     1.0  0.64762  0.84666  0.17111  1.0000
  C   C3474     1.0  0.64583  0.82209  0.18405  1.0000
  C   C3475     1.0  0.63894  0.84105  0.19766  1.0000
  C   C3476     1.0  0.66818  0.82141  0.19981  1.0000
  C   C3477     1.0  0.64853  0.86203  0.17080  1.0000
  C   C3478     1.0  0.65684  0.81383  0.17312  1.0000
  C   C3479     1.0  0.62299  0.84530  0.19712  1.0000
  H   H5942     1.0  0.67194  0.83045  0.17701  1.0000
  H   H5943     1.0  0.66631  0.84302  0.18794  1.0000
  H   H5944     1.0  0.63738  0.84744  0.16822  1.0000
  H   H5945     1.0  0.65615  0.84333  0.16197  1.0000
  H   H5946     1.0  0.64453  0.81453  0.19474  1.0000
  H   H5947     1.0  0.63538  0.82439  0.18098  1.0000
  H   H5948     1.0  0.63974  0.83278  0.20772  1.0000
  H   H5949     1.0  0.64183  0.85044  0.19924  1.0000
  H   H5950     1.0  0.67983  0.81965  0.19907  1.0000
  H   H5951     1.0  0.66273  0.82488  0.21004  1.0000
  H   H5952     1.0  0.66608  0.81093  0.20021  1.0000
  H   H5953     1.0  0.63967  0.86713  0.17861  1.0000
  H   H5954     1.0  0.65890  0.86240  0.17256  1.0000
  H   H5955     1.0  0.64773  0.86885  0.15996  1.0000
  H   H5956     1.0  0.65854  0.82055  0.16208  1.0000
  H   H5957     1.0  0.65275  0.80472  0.17262  1.0000
  H   H5958     1.0  0.66726  0.80921  0.17630  1.0000
  H   H5959     1.0  0.62074  0.85435  0.18798  1.0000
  H   H5960     1.0  0.61669  0.84892  0.20712  1.0000
  H   H5961     1.0  0.61900  0.83610  0.19670  1.0000
  C   C3480     1.0  0.65682  0.68520  0.17654  1.0000
  C   C3481     1.0  0.70454  0.94059  0.07047  1.0000
  N   N252      1.0  0.73181  0.90203  0.19964  1.0000
  C   C3482     1.0  0.67809  0.76534  0.21235  1.0000
  C   C3483     1.0  0.71504  0.79479  0.20619  1.0000
  H   H5962     1.0  0.67056  0.77168  0.22012  1.0000
  C   C3484     1.0  0.71403  0.67139  0.16857  1.0000
  C   C3485     1.0  0.68364  0.48943  0.22265  1.0000
  H   H5963     1.0  0.66924  0.62770  0.21215  1.0000
  C   C3486     1.0  0.70928  0.67110  0.19395  1.0000
  C   C3487     1.0  0.72169  0.91683  0.09464  1.0000
  H   H5964     1.0  0.70186  0.78133  0.08286  1.0000
  H   H5965     1.0  0.60989  0.60075  0.21314  1.0000
  C   C3488     1.0  0.67707  0.63384  0.21188  1.0000
  H   H5966     1.0  0.73067  0.90601  0.17734  1.0000
  H   H5967     1.0  0.73245  0.70691  0.15612  1.0000
  C   C3489     1.0  0.73675  0.91800  0.13478  1.0000
  N   N253      1.0  0.73270  0.80141  0.21668  1.0000
  H   H5968     1.0  0.70609  0.64268  0.10026  1.0000
  H   H5969     1.0  0.71383  0.66104  0.08512  1.0000
  H   H5970     1.0  0.70658  0.76233  0.08888  1.0000
  S   S1001     1.0  0.69006  0.66244  0.18562  1.0000
  C   C3490     1.0  0.72561  0.80296  0.07852  1.0000
  H   H5971     1.0  0.67763  0.66137  0.11235  1.0000
  H   H5972     1.0  0.70320  0.84992  0.98077  1.0000
  C   C3491     1.0  0.72584  0.72837  0.11966  1.0000
  C   C3492     1.0  0.73238  0.88983  0.21269  1.0000
  C   C3493     1.0  0.64096  0.62188  0.21272  1.0000
  H   H5973     1.0  0.71116  0.68873  0.10783  1.0000
  H   H5974     1.0  0.70596  0.80425  0.20656  1.0000
  Fe  Fe499     1.0  0.61923  0.53076  0.22131  1.0000
  C   C3494     1.0  0.60841  0.63471  0.21651  1.0000
  N   N254      1.0  0.56477  0.67244  0.19750  1.0000
  C   C3495     1.0  0.57086  0.67998  0.20491  1.0000
  C   C3496     1.0  0.56165  0.68296  0.18389  1.0000
  C   C3497     1.0  0.57619  0.65968  0.19372  1.0000
  C   C3498     1.0  0.55167  0.66780  0.20766  1.0000
  S   S1002     1.0  0.61926  0.72096  0.22694  1.0000
  C   C3499     1.0  0.55038  0.69686  0.18602  1.0000
  C   C3500     1.0  0.57242  0.65033  0.18587  1.0000
  C   C3501     1.0  0.54089  0.66454  0.20103  1.0000
  H   H5975     1.0  0.65153  0.51157  0.21772  1.0000
  H   H5976     1.0  0.56292  0.68948  0.20791  1.0000
  H   H5977     1.0  0.55810  0.67817  0.17706  1.0000
  H   H5978     1.0  0.57165  0.68623  0.17697  1.0000
  H   H5979     1.0  0.58614  0.66320  0.18701  1.0000
  H   H5980     1.0  0.57917  0.65214  0.20356  1.0000
  H   H5981     1.0  0.55485  0.65807  0.21590  1.0000
  H   H5982     1.0  0.54547  0.67614  0.21387  1.0000
  H   H5983     1.0  0.71301  0.78660  0.21628  1.0000
  H   H5984     1.0  0.67278  0.74931  0.18798  1.0000
  H   H5985     1.0  0.71881  0.91632  0.21360  1.0000
  H   H5986     1.0  0.54734  0.70266  0.17563  1.0000
  H   H5987     1.0  0.54049  0.69473  0.19392  1.0000
  H   H5988     1.0  0.55473  0.70431  0.18929  1.0000
  H   H5989     1.0  0.56411  0.64453  0.19299  1.0000
  H   H5990     1.0  0.58204  0.64196  0.18300  1.0000
  H   H5991     1.0  0.56927  0.65641  0.17565  1.0000
  H   H5992     1.0  0.53845  0.65392  0.20694  1.0000
  H   H5993     1.0  0.54445  0.66407  0.18959  1.0000
  H   H5994     1.0  0.53058  0.67252  0.20253  1.0000
  H   H5995     1.0  0.73044  0.62127  0.17857  1.0000
  C   C3502     1.0  0.70544  0.66884  0.18239  1.0000
  C   C3503     1.0  0.70948  0.93498  0.10887  1.0000
  S   S1003     1.0  0.72639  0.62514  0.13188  1.0000
  C   C3504     1.0  0.73166  0.63573  0.11473  1.0000
  C   C3505     1.0  0.70719  0.61498  0.21400  1.0000
  H   H5996     1.0  0.64617  0.57000  0.20772  1.0000
  C   C3506     1.0  0.69252  0.91275  0.11307  1.0000
  H   H5997     1.0  0.71265  0.90740  0.08211  1.0000
  H   H5998     1.0  0.73191  0.92043  0.09179  1.0000
  H   H5999     1.0  0.71016  0.63553  0.19914  1.0000
  H   H6000     1.0  0.73027  0.86888  0.08559  1.0000
  C   C3507     1.0  0.60017  0.50334  0.21328  1.0000
  H   H6001     1.0  0.65895  0.68687  0.18628  1.0000
  H   H6002     1.0  0.68492  0.76036  0.18344  1.0000
  H   H6003     1.0  0.69041  0.66831  0.06769  1.0000
  H   H6004     1.0  0.71820  0.74583  0.13052  1.0000
  H   H6005     1.0  0.66527  0.51559  0.22304  1.0000
  C   C3508     1.0  0.71955  0.88252  0.21804  1.0000
  C   C3509     1.0  0.72938  0.79921  0.20362  1.0000
  H   H6006     1.0  0.72823  0.72595  0.15372  1.0000
  H   H6007     1.0  0.69077  0.63558  0.10879  1.0000
  C   C3510     1.0  0.72012  0.81203  0.22303  1.0000
  H   H6008     1.0  0.63857  0.63378  0.21053  1.0000
  H   H6009     1.0  0.71104  0.66966  0.15962  1.0000
  H   H6010     1.0  0.72170  0.94232  0.07863  1.0000
  H   H6011     1.0  0.69539  0.74062  0.20607  1.0000
  H   H6012     1.0  0.70756  0.66527  0.10865  1.0000
  H   H6013     1.0  0.72219  0.90897  0.10501  1.0000
  N   N255      1.0  0.66989  0.76119  0.20403  1.0000
  C   C3511     1.0  0.66146  0.77494  0.19643  1.0000
  C   C3512     1.0  0.71035  0.94135  0.08305  1.0000
  C   C3513     1.0  0.65931  0.75262  0.21424  1.0000
  C   C3514     1.0  0.66458  0.48509  0.21374  1.0000
  C   C3515     1.0  0.65243  0.77317  0.18691  1.0000
  H   H6014     1.0  0.68970  0.58105  0.22420  1.0000
  H   H6015     1.0  0.71950  0.89482  0.18912  1.0000
  N   N256      1.0  0.69414  0.61431  0.22615  1.0000
  H   H6016     1.0  0.65417  0.78126  0.20434  1.0000
  H   H6017     1.0  0.66861  0.78200  0.18912  1.0000
  S   S1004     1.0  0.51387  0.69234  0.22725  1.0000
  H   H6018     1.0  0.69677  0.76917  0.19454  1.0000
  H   H6019     1.0  0.64973  0.75992  0.21918  1.0000
  C   C3516     1.0  0.69815  0.86150  0.97822  1.0000
  H   H6020     1.0  0.59480  0.61464  0.21736  1.0000
  H   H6021     1.0  0.68266  0.84008  0.11461  1.0000
  H   H6022     1.0  0.64662  0.76442  0.19194  1.0000
  H   H6023     1.0  0.72906  0.91335  0.07261  1.0000
  H   H6024     1.0  0.70896  0.91014  0.20517  1.0000
  H   H6025     1.0  0.73713  0.74138  0.18548  1.0000
  H   H6026     1.0  0.67435  0.73362  0.22378  1.0000
  H   H6027     1.0  0.72631  0.92791  0.18185  1.0000
  H   H6028     1.0  0.72711  0.92925  0.15209  1.0000
  C   C3517     1.0  0.72211  0.94197  0.10694  1.0000
  H   H6029     1.0  0.71508  0.79033  0.19708  1.0000
  H   H6030     1.0  0.69950  0.94311  0.11161  1.0000
  C   C3518     1.0  0.66434  0.74127  0.22704  1.0000
  H   H6031     1.0  0.65532  0.74693  0.20846  1.0000
  C   C3519     1.0  0.73538  0.62956  0.10278  1.0000
  H   H6032     1.0  0.72041  0.72911  0.08035  1.0000
  H   H6033     1.0  0.72878  0.72931  0.18150  1.0000
  H   H6034     1.0  0.68596  0.73002  0.20133  1.0000
  C   C3520     1.0  0.61171  0.64196  0.22682  1.0000
  H   H6035     1.0  0.59655  0.63661  0.21871  1.0000
  H   H6036     1.0  0.73616  0.84685  0.22217  1.0000
  H   H6037     1.0  0.73075  0.60108  0.16853  1.0000
  H   H6038     1.0  0.73344  0.67779  0.15574  1.0000
  C   C3521     1.0  0.73196  0.84298  0.07354  1.0000
  C   C3522     1.0  0.73174  0.86216  0.09631  1.0000
  H   H6039     1.0  0.72485  0.62604  0.20718  1.0000
  H   H6040     1.0  0.71033  0.80758  0.22693  1.0000
  H   H6041     1.0  0.70960  0.88979  0.22234  1.0000
  H   H6042     1.0  0.67722  0.85979  0.97854  1.0000
  H   H6043     1.0  0.56737  0.66592  0.22674  1.0000
  H   H6044     1.0  0.73546  0.83566  0.12192  1.0000
  C   C3523     1.0  0.73481  0.59902  0.17842  1.0000
  H   H6045     1.0  0.68745  0.63712  0.22654  1.0000
  C   C3524     1.0  0.68324  0.62833  0.22554  1.0000
  C   C3525     1.0  0.73720  0.71652  0.15262  1.0000
  H   H6046     1.0  0.68058  0.85075  0.22677  1.0000
  H   H6047     1.0  0.58594  0.58107  0.22549  1.0000
  H   H6048     1.0  0.58461  0.76646  0.22578  1.0000
  H   H6049     1.0  0.51538  0.70677  0.32522  1.0000
  H   H6050     1.0  0.61556  0.77375  0.33092  1.0000
  H   H6051     1.0  0.72774  0.65996  0.40366  1.0000
  Fe  Fe500     1.0  0.69521  0.55313  0.29726  1.0000
  S   S1005     1.0  0.67422  0.56882  0.30123  1.0000
  H   H6052     1.0  0.68405  0.51844  0.24934  1.0000
  N   N257      1.0  0.58599  0.79481  0.31658  1.0000
  S   S1006     1.0  0.69186  0.59441  0.28487  1.0000
  Fe  Fe501     1.0  0.68634  0.58159  0.30728  1.0000
  S   S1007     1.0  0.67823  0.59324  0.32564  1.0000
  Fe  Fe502     1.0  0.68201  0.58007  0.27851  1.0000
  S   S1008     1.0  0.66801  0.58877  0.26238  1.0000
  S   S1009     1.0  0.70250  0.56380  0.27411  1.0000
  H   H6053     1.0  0.50096  0.63156  0.32273  1.0000
  S   S1010     1.0  0.71080  0.65857  0.38363  1.0000
  H   H6054     1.0  0.64385  0.84934  0.26642  1.0000
  Fe  Fe503     1.0  0.71569  0.62792  0.36434  1.0000
  S   S1011     1.0  0.70362  0.65032  0.35675  1.0000
  H   H6055     1.0  0.70421  0.49339  0.24569  1.0000
  H   H6056     1.0  0.67925  0.53280  0.34063  1.0000
  Fe  Fe504     1.0  0.69417  0.64948  0.38026  1.0000
  S   S1012     1.0  0.67164  0.65974  0.38949  1.0000
  H   H6057     1.0  0.52833  0.72345  0.28020  1.0000
  S   S1013     1.0  0.70486  0.62653  0.38779  1.0000
  H   H6058     1.0  0.57062  0.81457  0.31070  1.0000
  H   H6059     1.0  0.63421  0.49798  0.27021  1.0000
  H   H6060     1.0  0.69685  0.86903  0.25988  1.0000
  H   H6061     1.0  0.55673  0.78078  0.31894  1.0000
  H   H6062     1.0  0.71054  0.53718  0.25084  1.0000
  H   H6063     1.0  0.48773  0.71508  0.26405  1.0000
  C   C3526     1.0  0.69064  0.50451  0.26925  1.0000
  S   S1014     1.0  0.61945  0.56658  0.23043  1.0000
  Fe  Fe505     1.0  0.70410  0.81902  0.28291  1.0000
  S   S1015     1.0  0.70690  0.82539  0.30170  1.0000
  S   S1016     1.0  0.68345  0.82591  0.27577  1.0000
  Fe  Fe506     1.0  0.63416  0.54512  0.23476  1.0000
  H   H6064     1.0  0.60241  0.64355  0.23592  1.0000
  Fe  Fe507     1.0  0.71835  0.80240  0.30750  1.0000
  S   S1017     1.0  0.71424  0.78648  0.32859  1.0000
  S   S1018     1.0  0.72402  0.82476  0.26813  1.0000
  S   S1019     1.0  0.71404  0.79583  0.28962  1.0000
  Fe  Fe508     1.0  0.61962  0.75635  0.37967  1.0000
  S   S1020     1.0  0.64029  0.75871  0.36402  1.0000
  S   S1021     1.0  0.60246  0.75938  0.36708  1.0000
  Fe  Fe509     1.0  0.63308  0.75403  0.40533  1.0000
  S   S1022     1.0  0.65461  0.75614  0.39097  1.0000
  S   S1023     1.0  0.63059  0.74867  0.42998  1.0000
  Fe  Fe510     1.0  0.64233  0.77344  0.37623  1.0000
  S   S1024     1.0  0.64944  0.79362  0.36254  1.0000
  Fe  Fe511     1.0  0.65082  0.74126  0.37978  1.0000
  S   S1025     1.0  0.66903  0.72620  0.36887  1.0000
  S   S1026     1.0  0.62080  0.77263  0.39118  1.0000
  S   S1027     1.0  0.63014  0.73758  0.39490  1.0000
  S   S1028     1.0  0.52362  0.63312  0.26725  1.0000
  H   H6065     1.0  0.67277  0.56464  0.34229  1.0000
  H   H6066     1.0  0.68738  0.49471  0.27653  1.0000
  H   H6067     1.0  0.73238  0.64721  0.31105  1.0000
  Fe  Fe512     1.0  0.52539  0.65400  0.27061  1.0000
  S   S1029     1.0  0.52609  0.65720  0.29201  1.0000
  S   S1030     1.0  0.61652  0.53323  0.24378  1.0000
  H   H6068     1.0  0.71017  0.50471  0.28217  1.0000
  H   H6069     1.0  0.59559  0.48917  0.28416  1.0000
  S   S1031     1.0  0.65161  0.53864  0.24704  1.0000
  H   H6070     1.0  0.49772  0.65688  0.33472  1.0000
  S   S1032     1.0  0.58279  0.56246  0.25381  1.0000
  H   H6071     1.0  0.62274  0.76274  0.24160  1.0000
  S   S1033     1.0  0.64336  0.79658  0.26363  1.0000
  H   H6072     1.0  0.69762  0.49892  0.31173  1.0000
  Fe  Fe513     1.0  0.63048  0.78089  0.26524  1.0000
  S   S1034     1.0  0.62484  0.76561  0.28635  1.0000
  S   S1035     1.0  0.64456  0.77257  0.24611  1.0000
  Fe  Fe514     1.0  0.53168  0.72781  0.32889  1.0000
  S   S1036     1.0  0.54656  0.70674  0.33568  1.0000
  Fe  Fe515     1.0  0.55606  0.74133  0.30970  1.0000
  S   S1037     1.0  0.57273  0.72150  0.31465  1.0000
  S   S1038     1.0  0.56206  0.76029  0.29304  1.0000
  Fe  Fe516     1.0  0.55741  0.70999  0.31216  1.0000
  S   S1039     1.0  0.56527  0.69590  0.29589  1.0000
  Fe  Fe517     1.0  0.56058  0.72047  0.33751  1.0000
  S   S1040     1.0  0.57275  0.71548  0.35544  1.0000
  S   S1041     1.0  0.54171  0.73007  0.30546  1.0000
  S   S1042     1.0  0.54471  0.74123  0.33257  1.0000
  C   C3527     1.0  0.60847  0.76157  0.28754  1.0000
  C   C3528     1.0  0.60182  0.76698  0.27589  1.0000
  C   C3529     1.0  0.58758  0.76645  0.27759  1.0000
  C   C3530     1.0  0.58018  0.75978  0.29077  1.0000
  C   C3531     1.0  0.58716  0.75332  0.30216  1.0000
  C   C3532     1.0  0.60131  0.75430  0.30057  1.0000
  H   H6073     1.0  0.60756  0.77176  0.26557  1.0000
  H   H6074     1.0  0.58230  0.77126  0.26869  1.0000
  H   H6075     1.0  0.58144  0.74820  0.31241  1.0000
  H   H6076     1.0  0.60648  0.74985  0.30957  1.0000
  C   C3533     1.0  0.53693  0.66815  0.29278  1.0000
  C   C3534     1.0  0.54911  0.67027  0.28205  1.0000
  C   C3535     1.0  0.55775  0.67878  0.28316  1.0000
  C   C3536     1.0  0.55407  0.68548  0.29480  1.0000
  C   C3537     1.0  0.54167  0.68367  0.30533  1.0000
  C   C3538     1.0  0.53323  0.67487  0.30442  1.0000
  H   H6077     1.0  0.55207  0.66510  0.27308  1.0000
  H   H6078     1.0  0.56734  0.68014  0.27500  1.0000
  H   H6079     1.0  0.53878  0.68878  0.31435  1.0000
  H   H6080     1.0  0.52382  0.67328  0.31276  1.0000
  C   C3539     1.0  0.62218  0.74414  0.23489  1.0000
  H   H6081     1.0  0.58854  0.49052  0.25304  1.0000
  H   H6082     1.0  0.60488  0.76732  0.32351  1.0000
  H   H6083     1.0  0.68763  0.69407  0.39658  1.0000
  C   C3540     1.0  0.60897  0.77684  0.32273  1.0000
  H   H6084     1.0  0.69401  0.53235  0.26039  1.0000
  C   C3541     1.0  0.59429  0.74685  0.36426  1.0000
  C   C3542     1.0  0.59400  0.73330  0.37336  1.0000
  C   C3543     1.0  0.58711  0.72394  0.37070  1.0000
  C   C3544     1.0  0.58065  0.72790  0.35881  1.0000
  C   C3545     1.0  0.58095  0.74146  0.34974  1.0000
  C   C3546     1.0  0.58761  0.75087  0.35255  1.0000
  H   H6085     1.0  0.59887  0.73012  0.38255  1.0000
  H   H6086     1.0  0.58684  0.71352  0.37784  1.0000
  H   H6087     1.0  0.57597  0.74470  0.34062  1.0000
  H   H6088     1.0  0.58756  0.76136  0.34564  1.0000
  C   C3547     1.0  0.68337  0.81574  0.26397  1.0000
  C   C3548     1.0  0.69467  0.80416  0.26114  1.0000
  C   C3549     1.0  0.69390  0.79537  0.25265  1.0000
  C   C3550     1.0  0.68211  0.79858  0.24648  1.0000
  C   C3551     1.0  0.67125  0.81065  0.24861  1.0000
  C   C3552     1.0  0.67164  0.81895  0.25770  1.0000
  H   H6089     1.0  0.70392  0.80180  0.26560  1.0000
  H   H6090     1.0  0.70365  0.73928  0.34211  1.0000
  H   H6091     1.0  0.66226  0.81336  0.24359  1.0000
  H   H6092     1.0  0.66273  0.82770  0.26000  1.0000
  C   C3553     1.0  0.69624  0.78852  0.33807  1.0000
  C   C3554     1.0  0.69140  0.77667  0.34774  1.0000
  C   C3555     1.0  0.67702  0.77806  0.35520  1.0000
  C   C3556     1.0  0.66750  0.79141  0.35329  1.0000
  C   C3557     1.0  0.67237  0.80325  0.34368  1.0000
  C   C3558     1.0  0.68662  0.80177  0.33593  1.0000
  H   H6093     1.0  0.69875  0.76638  0.34949  1.0000
  H   H6094     1.0  0.67337  0.76885  0.36257  1.0000
  H   H6095     1.0  0.66508  0.81362  0.34222  1.0000
  H   H6096     1.0  0.69025  0.81100  0.32861  1.0000
  S   S1043     1.0  0.67978  0.78670  0.23773  1.0000
  H   H6097     1.0  0.56798  0.70999  0.24564  1.0000
  C   C3559     1.0  0.56537  0.74465  0.26378  1.0000
  H   H6098     1.0  0.51899  0.73512  0.25901  1.0000
  C   C3560     1.0  0.56213  0.60952  0.23760  1.0000
  C   C3561     1.0  0.65298  0.88059  0.24751  1.0000
  H   H6099     1.0  0.62625  0.55867  0.30792  1.0000
  H   H6100     1.0  0.70219  0.78589  0.25122  1.0000
  H   H6101     1.0  0.50123  0.73315  0.24278  1.0000
  S   S1044     1.0  0.65372  0.49535  0.30055  1.0000
  C   C3562     1.0  0.67016  0.67832  0.38353  1.0000
  C   C3563     1.0  0.65880  0.68793  0.39015  1.0000
  C   C3564     1.0  0.65832  0.70276  0.38582  1.0000
  C   C3565     1.0  0.66911  0.70790  0.37476  1.0000
  C   C3566     1.0  0.68028  0.69829  0.36805  1.0000
  C   C3567     1.0  0.68079  0.68357  0.37241  1.0000
  H   H6102     1.0  0.65052  0.68391  0.39873  1.0000
  H   H6103     1.0  0.64966  0.71015  0.39103  1.0000
  H   H6104     1.0  0.68863  0.70222  0.35947  1.0000
  H   H6105     1.0  0.68948  0.67631  0.36709  1.0000
  C   C3568     1.0  0.67882  0.57415  0.36367  1.0000
  H   H6106     1.0  0.54054  0.68898  0.23582  1.0000
  H   H6107     1.0  0.70581  0.59903  0.24155  1.0000
  H   H6108     1.0  0.66519  0.66722  0.41765  1.0000
  H   H6109     1.0  0.56129  0.82015  0.33489  1.0000
  H   H6110     1.0  0.69155  0.76124  0.46792  1.0000
  H   H6111     1.0  0.58386  0.81668  0.31804  1.0000
  H   H6112     1.0  0.68653  0.66973  0.40825  1.0000
  H   H6113     1.0  0.58249  0.73150  0.28392  1.0000
  H   H6114     1.0  0.57284  0.74680  0.23344  1.0000
  C   C3569     1.0  0.67284  0.52721  0.29894  1.0000
  C   C3570     1.0  0.66322  0.51958  0.29809  1.0000
  H   H6115     1.0  0.67064  0.53880  0.29574  1.0000
  H   H6116     1.0  0.65377  0.52534  0.29410  1.0000
  C   C3571     1.0  0.66382  0.57489  0.25770  1.0000
  C   C3572     1.0  0.65589  0.57807  0.24713  1.0000
  C   C3573     1.0  0.65224  0.56698  0.24360  1.0000
  C   C3574     1.0  0.65651  0.55272  0.25068  1.0000
  C   C3575     1.0  0.66446  0.54959  0.26120  1.0000
  C   C3576     1.0  0.66814  0.56063  0.26468  1.0000
  H   H6117     1.0  0.65262  0.58908  0.24162  1.0000
  C   C3577     1.0  0.68102  0.72111  0.47727  1.0000
  H   H6118     1.0  0.66756  0.53865  0.26690  1.0000
  H   H6119     1.0  0.67417  0.55812  0.27291  1.0000
  C   C3578     1.0  0.69036  0.59896  0.33180  1.0000
  C   C3579     1.0  0.70503  0.59303  0.32879  1.0000
  C   C3580     1.0  0.71422  0.59646  0.33519  1.0000
  C   C3581     1.0  0.70901  0.60639  0.34411  1.0000
  C   C3582     1.0  0.69440  0.61268  0.34680  1.0000
  C   C3583     1.0  0.68510  0.60882  0.34082  1.0000
  H   H6120     1.0  0.70927  0.58545  0.32186  1.0000
  Fe  Fe518     1.0  0.62924  0.81227  0.24967  1.0000
  H   H6121     1.0  0.69024  0.62031  0.35368  1.0000
  H   H6122     1.0  0.67376  0.61343  0.34327  1.0000
  C   C3584     1.0  0.57472  0.58051  0.24751  1.0000
  C   C3585     1.0  0.49653  0.70481  0.31987  1.0000
  H   H6123     1.0  0.63810  0.90100  0.24876  1.0000
  C   C3586     1.0  0.64010  0.77148  0.46006  1.0000
  C   C3587     1.0  0.64027  0.77822  0.44554  1.0000
  C   C3588     1.0  0.63778  0.77129  0.43610  1.0000
  C   C3589     1.0  0.63489  0.75753  0.44110  1.0000
  C   C3590     1.0  0.63493  0.75069  0.45559  1.0000
  C   C3591     1.0  0.63765  0.75754  0.46497  1.0000
  H   H6124     1.0  0.64215  0.78899  0.44156  1.0000
  H   H6125     1.0  0.63778  0.77673  0.42501  1.0000
  C   C3592     1.0  0.53916  0.70697  0.26137  1.0000
  H   H6126     1.0  0.68859  0.60814  0.24937  1.0000
  H   H6127     1.0  0.48792  0.67208  0.29812  1.0000
  H   H6128     1.0  0.70905  0.52709  0.26895  1.0000
  H   H6129     1.0  0.69806  0.66187  0.45596  1.0000
  S   S1045     1.0  0.73204  0.67126  0.44710  1.0000
  H   H6130     1.0  0.52132  0.69877  0.26200  1.0000
  H   H6131     1.0  0.73291  0.67534  0.37864  1.0000
  H   H6132     1.0  0.56888  0.78462  0.30179  1.0000
  H   H6133     1.0  0.60111  0.72449  0.27875  1.0000
  C   C3593     1.0  0.73435  0.64426  0.44231  1.0000
  H   H6134     1.0  0.59118  0.74017  0.23280  1.0000
  H   H6135     1.0  0.70449  0.72520  0.45707  1.0000
  H   H6136     1.0  0.68241  0.64574  0.42213  1.0000
  H   H6137     1.0  0.72282  0.51288  0.24962  1.0000
  C   C3594     1.0  0.70576  0.52848  0.25877  1.0000
  C   C3595     1.0  0.56904  0.72125  0.24363  1.0000
  H   H6138     1.0  0.56733  0.75444  0.26554  1.0000
  H   H6139     1.0  0.65835  0.88547  0.23650  1.0000
  H   H6140     1.0  0.55800  0.80332  0.33520  1.0000
  H   H6141     1.0  0.71804  0.54430  0.35466  1.0000
  H   H6142     1.0  0.73401  0.69367  0.37288  1.0000
  H   H6143     1.0  0.72992  0.49331  0.23932  1.0000
  H   H6144     1.0  0.67625  0.73020  0.43660  1.0000
  S   S1046     1.0  0.69791  0.52888  0.30471  1.0000
  H   H6145     1.0  0.63376  0.86693  0.26894  1.0000
  H   H6146     1.0  0.70381  0.62153  0.28269  1.0000
  C   C3596     1.0  0.51053  0.72584  0.24697  1.0000
  H   H6147     1.0  0.55092  0.60903  0.25961  1.0000
  H   H6148     1.0  0.60096  0.60773  0.25423  1.0000
  Fe  Fe519     1.0  0.71170  0.57714  0.28267  1.0000
  C   C3597     1.0  0.69108  0.67270  0.45361  1.0000
  C   C3598     1.0  0.51774  0.72058  0.28467  1.0000
  C   C3599     1.0  0.68415  0.69167  0.40849  1.0000
  C   C3600     1.0  0.67777  0.54452  0.33623  1.0000
  H   H6149     1.0  0.67800  0.76588  0.45737  1.0000
  H   H6150     1.0  0.71923  0.73987  0.34716  1.0000
  H   H6151     1.0  0.61981  0.59900  0.23290  1.0000
  H   H6152     1.0  0.58494  0.80028  0.29411  1.0000
  H   H6153     1.0  0.58891  0.71512  0.27721  1.0000
  H   H6154     1.0  0.57697  0.51443  0.25391  1.0000
  C   C3601     1.0  0.70549  0.61951  0.24425  1.0000
  H   H6155     1.0  0.69534  0.67988  0.45738  1.0000
  H   H6156     1.0  0.54416  0.75802  0.26337  1.0000
  H   H6157     1.0  0.63927  0.56923  0.29811  1.0000
  C   C3602     1.0  0.68085  0.52651  0.37104  1.0000
  H   H6158     1.0  0.67050  0.57851  0.35722  1.0000
  H   H6159     1.0  0.55223  0.75230  0.24719  1.0000
  C   C3603     1.0  0.59687  0.78988  0.32587  1.0000
  C   C3604     1.0  0.72576  0.48475  0.24803  1.0000
  H   H6160     1.0  0.50705  0.74364  0.28175  1.0000
  C   C3605     1.0  0.50438  0.71168  0.32457  1.0000
  C   C3606     1.0  0.71945  0.74745  0.32380  1.0000
  S   S1047     1.0  0.70662  0.56485  0.30542  1.0000
  C   C3607     1.0  0.59067  0.72597  0.27597  1.0000
  C   C3608     1.0  0.72967  0.65551  0.41434  1.0000
  C   C3609     1.0  0.71095  0.51468  0.25281  1.0000
  H   H6161     1.0  0.64328  0.55081  0.29748  1.0000
  C   C3610     1.0  0.66602  0.50452  0.30196  1.0000
  H   H6162     1.0  0.71953  0.72603  0.33834  1.0000
  H   H6163     1.0  0.69391  0.85577  0.25279  1.0000
  H   H6164     1.0  0.57222  0.80401  0.34288  1.0000
  H   H6165     1.0  0.68664  0.64968  0.44556  1.0000
  H   H6166     1.0  0.72942  0.82381  0.23276  1.0000
  H   H6167     1.0  0.66432  0.74913  0.47694  1.0000
  N   N258      1.0  0.70644  0.50146  0.26291  1.0000
  C   C3611     1.0  0.52438  0.70367  0.26911  1.0000
  H   H6168     1.0  0.62312  0.73701  0.24520  1.0000
  Fe  Fe520     1.0  0.53640  0.64010  0.24490  1.0000
  H   H6169     1.0  0.59161  0.78690  0.33743  1.0000
  H   H6170     1.0  0.67657  0.53033  0.38121  1.0000
  C   C3612     1.0  0.73224  0.65910  0.43686  1.0000
  H   H6171     1.0  0.59902  0.78582  0.29840  1.0000
  C   C3613     1.0  0.49427  0.66100  0.32433  1.0000
  H   H6172     1.0  0.68851  0.69867  0.41234  1.0000
  H   H6173     1.0  0.59123  0.51859  0.25819  1.0000
  H   H6174     1.0  0.70079  0.64696  0.41439  1.0000
  H   H6175     1.0  0.70416  0.54940  0.33588  1.0000
  H   H6176     1.0  0.55891  0.79852  0.31133  1.0000
  S   S1048     1.0  0.73690  0.84807  0.28571  1.0000
  H   H6177     1.0  0.57253  0.78102  0.33235  1.0000
  H   H6178     1.0  0.73136  0.75834  0.33564  1.0000
  H   H6179     1.0  0.66687  0.66872  0.44754  1.0000
  H   H6180     1.0  0.63925  0.88970  0.26603  1.0000
  C   C3614     1.0  0.70978  0.61946  0.29124  1.0000
  C   C3615     1.0  0.66839  0.85681  0.24673  1.0000
  S   S1049     1.0  0.72120  0.61051  0.35156  1.0000
  H   H6181     1.0  0.49720  0.73207  0.29627  1.0000
  C   C3616     1.0  0.71265  0.55540  0.35030  1.0000
  C   C3617     1.0  0.62212  0.75871  0.23282  1.0000
  H   H6182     1.0  0.70978  0.56193  0.35850  1.0000
  H   H6183     1.0  0.69611  0.56691  0.33861  1.0000
  S   S1050     1.0  0.73431  0.63517  0.36673  1.0000
  Fe  Fe521     1.0  0.51926  0.67060  0.24150  1.0000
  S   S1051     1.0  0.51693  0.65130  0.23565  1.0000
  C   C3618     1.0  0.67576  0.87455  0.25498  1.0000
  H   H6184     1.0  0.59289  0.74559  0.26086  1.0000
  H   H6185     1.0  0.68696  0.54674  0.32732  1.0000
  C   C3619     1.0  0.65418  0.50010  0.23865  1.0000
  C   C3620     1.0  0.57835  0.58711  0.23299  1.0000
  H   H6186     1.0  0.68721  0.71191  0.47221  1.0000
  C   C3621     1.0  0.56481  0.78722  0.31258  1.0000
  H   H6187     1.0  0.73636  0.74540  0.28945  1.0000
  C   C3622     1.0  0.73659  0.75852  0.30412  1.0000
  C   C3623     1.0  0.61593  0.49706  0.26299  1.0000
  H   H6188     1.0  0.69043  0.55420  0.37448  1.0000
  Fe  Fe522     1.0  0.72810  0.82898  0.28742  1.0000
  S   S1052     1.0  0.72960  0.67711  0.34799  1.0000
  Fe  Fe523     1.0  0.60199  0.55446  0.23751  1.0000
  H   H6189     1.0  0.60940  0.50614  0.26801  1.0000
  H   H6190     1.0  0.66822  0.54784  0.33145  1.0000
  H   H6191     1.0  0.58054  0.50675  0.27143  1.0000
  C   C3624     1.0  0.69820  0.60962  0.24058  1.0000
  Fe  Fe524     1.0  0.72234  0.63589  0.38949  1.0000
  S   S1053     1.0  0.73225  0.58479  0.27602  1.0000
  H   H6192     1.0  0.50358  0.62237  0.30884  1.0000
  C   C3625     1.0  0.71549  0.73754  0.33870  1.0000
  H   H6193     1.0  0.62140  0.61397  0.23789  1.0000
  C   C3626     1.0  0.67530  0.55313  0.34781  1.0000
  H   H6194     1.0  0.70745  0.51706  0.24253  1.0000
  Fe  Fe525     1.0  0.65601  0.78985  0.24315  1.0000
  H   H6195     1.0  0.67363  0.76964  0.47478  1.0000
  H   H6196     1.0  0.68008  0.67261  0.46007  1.0000
  C   C3627     1.0  0.55848  0.60293  0.25215  1.0000
  C   C3628     1.0  0.73201  0.64066  0.41968  1.0000
  C   C3629     1.0  0.66102  0.66693  0.42922  1.0000
  H   H6197     1.0  0.55825  0.72823  0.24425  1.0000
  H   H6198     1.0  0.68763  0.51215  0.27644  1.0000
  H   H6199     1.0  0.59425  0.60380  0.24119  1.0000
  H   H6200     1.0  0.67404  0.62737  0.23493  1.0000
  N   N259      1.0  0.66050  0.79041  0.30821  1.0000
  C   C3630     1.0  0.64510  0.78969  0.31485  1.0000
  C   C3631     1.0  0.66354  0.78950  0.29268  1.0000
  C   C3632     1.0  0.66349  0.80428  0.30874  1.0000
  C   C3633     1.0  0.66985  0.77822  0.31657  1.0000
  C   C3634     1.0  0.63955  0.79197  0.33039  1.0000
  C   C3635     1.0  0.66401  0.77477  0.29006  1.0000
  C   C3636     1.0  0.65368  0.81811  0.30218  1.0000
  C   C3637     1.0  0.68612  0.77643  0.31056  1.0000
  H   H6201     1.0  0.63788  0.79761  0.30816  1.0000
  H   H6202     1.0  0.64329  0.77905  0.31516  1.0000
  H   H6203     1.0  0.67372  0.79274  0.28650  1.0000
  H   H6204     1.0  0.65532  0.79738  0.28720  1.0000
  H   H6205     1.0  0.66290  0.80471  0.31995  1.0000
  H   H6206     1.0  0.67468  0.80500  0.30304  1.0000
  H   H6207     1.0  0.66811  0.77965  0.32771  1.0000
  H   H6208     1.0  0.66687  0.76777  0.31829  1.0000
  H   H6209     1.0  0.64038  0.80252  0.33139  1.0000
  H   H6210     1.0  0.62806  0.79159  0.33396  1.0000
  H   H6211     1.0  0.64511  0.78334  0.33804  1.0000
  H   H6212     1.0  0.67254  0.76620  0.29434  1.0000
  H   H6213     1.0  0.65356  0.77161  0.29450  1.0000
  H   H6214     1.0  0.66651  0.77548  0.27828  1.0000
  H   H6215     1.0  0.65435  0.81896  0.29064  1.0000
  H   H6216     1.0  0.65727  0.82751  0.30281  1.0000
  H   H6217     1.0  0.64241  0.81911  0.30815  1.0000
  H   H6218     1.0  0.69040  0.78365  0.31421  1.0000
  H   H6219     1.0  0.68923  0.77846  0.29871  1.0000
  H   H6220     1.0  0.69146  0.76514  0.31435  1.0000
  C   C3638     1.0  0.70744  0.73175  0.47451  1.0000
  H   H6221     1.0  0.68070  0.48552  0.31002  1.0000
  Fe  Fe526     1.0  0.50435  0.64605  0.25824  1.0000
  C   C3639     1.0  0.59307  0.79640  0.30086  1.0000
  H   H6222     1.0  0.63761  0.75213  0.47604  1.0000
  H   H6223     1.0  0.68513  0.49715  0.22811  1.0000
  H   H6224     1.0  0.64697  0.49315  0.23920  1.0000
  C   C3640     1.0  0.67849  0.49712  0.30685  1.0000
  H   H6225     1.0  0.73399  0.76420  0.28209  1.0000
  C   C3641     1.0  0.57674  0.72234  0.25462  1.0000
  C   C3642     1.0  0.49792  0.72475  0.32867  1.0000
  H   H6226     1.0  0.49096  0.71942  0.28575  1.0000
  H   H6227     1.0  0.65428  0.87054  0.27696  1.0000
  C   C3643     1.0  0.61477  0.61056  0.23274  1.0000
  H   H6228     1.0  0.73741  0.64582  0.28354  1.0000
  C   C3644     1.0  0.68531  0.51980  0.30382  1.0000
  N   N260      1.0  0.57828  0.73712  0.25443  1.0000
  C   C3645     1.0  0.50796  0.73379  0.29038  1.0000
  H   H6229     1.0  0.70088  0.53237  0.36695  1.0000
  C   C3646     1.0  0.66962  0.67315  0.43578  1.0000
  Fe  Fe527     1.0  0.73335  0.66645  0.47072  1.0000
  H   H6230     1.0  0.70351  0.65291  0.43526  1.0000
  H   H6231     1.0  0.62143  0.63650  0.23103  1.0000
  H   H6232     1.0  0.71597  0.62368  0.31560  1.0000
  C   C3647     1.0  0.58124  0.74579  0.23920  1.0000
  H   H6233     1.0  0.49934  0.69724  0.26688  1.0000
  H   H6234     1.0  0.53850  0.71640  0.25229  1.0000
  H   H6235     1.0  0.54557  0.73961  0.26303  1.0000
  H   H6236     1.0  0.67254  0.55441  0.37483  1.0000
  N   N261      1.0  0.68341  0.73521  0.46742  1.0000
  C   C3648     1.0  0.67718  0.73840  0.45436  1.0000
  C   C3649     1.0  0.73442  0.63509  0.43368  1.0000
  C   C3650     1.0  0.68161  0.72644  0.44583  1.0000
  H   H6237     1.0  0.66991  0.51477  0.26408  1.0000
  H   H6238     1.0  0.66530  0.74107  0.45725  1.0000
  H   H6239     1.0  0.68013  0.74816  0.44658  1.0000
  C   C3651     1.0  0.62775  0.49004  0.27152  1.0000
  C   C3652     1.0  0.59982  0.61122  0.24289  1.0000
  C   C3653     1.0  0.68071  0.50984  0.25851  1.0000
  H   H6240     1.0  0.69327  0.72402  0.44127  1.0000
  H   H6241     1.0  0.67814  0.71647  0.45234  1.0000
  H   H6242     1.0  0.68841  0.57857  0.35787  1.0000
  H   H6243     1.0  0.71623  0.61980  0.23717  1.0000
  H   H6244     1.0  0.65598  0.73493  0.23256  1.0000
  N   N262      1.0  0.61864  0.55565  0.28369  1.0000
  C   C3654     1.0  0.62810  0.56489  0.28435  1.0000
  C   C3655     1.0  0.61535  0.56048  0.26893  1.0000
  C   C3656     1.0  0.62713  0.54036  0.28556  1.0000
  C   C3657     1.0  0.60537  0.55715  0.29558  1.0000
  H   H6245     1.0  0.62115  0.50190  0.25188  1.0000
  C   C3658     1.0  0.60905  0.57669  0.26442  1.0000
  C   C3659     1.0  0.62006  0.52897  0.28431  1.0000
  C   C3660     1.0  0.59161  0.55501  0.29294  1.0000
  H   H6246     1.0  0.63722  0.56518  0.27486  1.0000
  H   H6247     1.0  0.62220  0.57624  0.28384  1.0000
  H   H6248     1.0  0.60786  0.55469  0.26777  1.0000
  H   H6249     1.0  0.62519  0.55781  0.26065  1.0000
  H   H6250     1.0  0.63755  0.53968  0.27761  1.0000
  H   H6251     1.0  0.62974  0.53649  0.29636  1.0000
  H   H6252     1.0  0.60737  0.54954  0.30579  1.0000
  H   H6253     1.0  0.60248  0.56799  0.29809  1.0000
  N   N263      1.0  0.73172  0.62560  0.29542  1.0000
  H   H6254     1.0  0.58375  0.77334  0.31835  1.0000
  H   H6255     1.0  0.71520  0.74396  0.31641  1.0000
  H   H6256     1.0  0.60107  0.58103  0.27329  1.0000
  H   H6257     1.0  0.61770  0.58277  0.26041  1.0000
  H   H6258     1.0  0.60358  0.57863  0.25552  1.0000
  H   H6259     1.0  0.62815  0.51869  0.28437  1.0000
  H   H6260     1.0  0.61636  0.53163  0.27418  1.0000
  H   H6261     1.0  0.61128  0.52684  0.29376  1.0000
  H   H6262     1.0  0.58721  0.56401  0.28472  1.0000
  H   H6263     1.0  0.58325  0.55484  0.30303  1.0000
  H   H6264     1.0  0.59308  0.54486  0.28966  1.0000
  H   H6265     1.0  0.72546  0.59139  0.33321  1.0000
  H   H6266     1.0  0.49252  0.67288  0.32150  1.0000
  C   C3661     1.0  0.63447  0.56048  0.29785  1.0000
  C   C3662     1.0  0.55111  0.74868  0.25894  1.0000
  C   C3663     1.0  0.64564  0.89316  0.25512  1.0000
  H   H6267     1.0  0.60024  0.76955  0.46384  1.0000
  N   N264      1.0  0.68748  0.55020  0.35518  1.0000
  H   H6268     1.0  0.67222  0.88221  0.26223  1.0000
  H   H6269     1.0  0.66553  0.74638  0.23514  1.0000
  H   H6270     1.0  0.50985  0.71484  0.24736  1.0000
  H   H6271     1.0  0.63872  0.85328  0.28380  1.0000
  C   C3664     1.0  0.64245  0.85786  0.27221  1.0000
  H   H6272     1.0  0.61204  0.80391  0.30083  1.0000
  H   H6273     1.0  0.72852  0.67607  0.41842  1.0000
  C   C3665     1.0  0.73007  0.66463  0.42277  1.0000
  C   C3666     1.0  0.68241  0.55759  0.36763  1.0000
  H   H6274     1.0  0.67195  0.52742  0.36599  1.0000
  H   H6275     1.0  0.72489  0.78596  0.23560  1.0000
  C   C3667     1.0  0.70983  0.48981  0.25473  1.0000
  Fe  Fe528     1.0  0.72133  0.65741  0.36083  1.0000
  H   H6276     1.0  0.71316  0.75851  0.32451  1.0000
  H   H6277     1.0  0.66036  0.65576  0.43506  1.0000
  C   C3668     1.0  0.60333  0.80682  0.29498  1.0000
  H   H6278     1.0  0.65921  0.85300  0.24602  1.0000
  C   C3669     1.0  0.49224  0.70595  0.27208  1.0000
  Fe  Fe529     1.0  0.62978  0.78989  0.23392  1.0000
  C   C3670     1.0  0.69246  0.53434  0.36083  1.0000
  C   C3671     1.0  0.73484  0.58839  0.24687  1.0000
  H   H6279     1.0  0.65001  0.67366  0.42990  1.0000
  S   S1054     1.0  0.62023  0.83474  0.25314  1.0000
  H   H6280     1.0  0.66488  0.68485  0.43480  1.0000
  S   S1055     1.0  0.50746  0.73349  0.33485  1.0000
  H   H6281     1.0  0.67230  0.69458  0.41102  1.0000
  H   H6282     1.0  0.52590  0.69482  0.27865  1.0000
  H   H6283     1.0  0.70186  0.74383  0.45409  1.0000
  C   C3672     1.0  0.69282  0.64479  0.42457  1.0000
  H   H6284     1.0  0.59753  0.81808  0.29504  1.0000
  C   C3673     1.0  0.69153  0.67841  0.43735  1.0000
  H   H6285     1.0  0.67514  0.84731  0.25244  1.0000
  C   C3674     1.0  0.69220  0.65446  0.43460  1.0000
  H   H6286     1.0  0.61620  0.77929  0.31207  1.0000
  H   H6287     1.0  0.67977  0.50092  0.25442  1.0000
  C   C3675     1.0  0.72197  0.63169  0.30800  1.0000
  H   H6288     1.0  0.50162  0.69463  0.31689  1.0000
  S   S1056     1.0  0.61482  0.79729  0.25322  1.0000
  H   H6289     1.0  0.60846  0.80640  0.28358  1.0000
  N   N265      1.0  0.66341  0.86867  0.25483  1.0000
  C   C3676     1.0  0.57702  0.78375  0.32057  1.0000
  H   H6290     1.0  0.56186  0.58337  0.26833  1.0000
  H   H6291     1.0  0.67984  0.88095  0.24418  1.0000
  H   H6292     1.0  0.58962  0.78755  0.46402  1.0000
  C   C3677     1.0  0.58961  0.77594  0.46797  1.0000
  S   S1057     1.0  0.55520  0.62785  0.23101  1.0000
  N   N266      1.0  0.73514  0.74753  0.31814  1.0000
  C   C3678     1.0  0.65649  0.86268  0.27011  1.0000
  H   H6293     1.0  0.56325  0.73785  0.27481  1.0000
  H   H6294     1.0  0.68572  0.51489  0.37397  1.0000
  H   H6295     1.0  0.66230  0.49403  0.24505  1.0000
  C   C3679     1.0  0.72885  0.63710  0.31705  1.0000
  H   H6296     1.0  0.69654  0.63339  0.42978  1.0000
  C   C3680     1.0  0.49025  0.64380  0.30496  1.0000
  H   H6297     1.0  0.62321  0.48698  0.28320  1.0000
  C   C3681     1.0  0.69978  0.55573  0.34438  1.0000
  C   C3682     1.0  0.68023  0.76169  0.46829  1.0000
  H   H6298     1.0  0.73081  0.76939  0.30600  1.0000
  H   H6299     1.0  0.70728  0.61498  0.25534  1.0000
  H   H6300     1.0  0.68564  0.85726  0.27117  1.0000
  H   H6301     1.0  0.66527  0.55128  0.35573  1.0000
  H   H6302     1.0  0.54480  0.70842  0.26886  1.0000
  H   H6303     1.0  0.51920  0.71149  0.29410  1.0000
  H   H6304     1.0  0.64709  0.83511  0.23176  1.0000
  H   H6305     1.0  0.64629  0.56948  0.23532  1.0000
  C   C3683     1.0  0.68864  0.86337  0.26000  1.0000
  H   H6306     1.0  0.72581  0.49711  0.27085  1.0000
  H   H6307     1.0  0.57114  0.71729  0.26546  1.0000
  H   H6308     1.0  0.63277  0.74004  0.45959  1.0000
  S   S1058     1.0  0.50531  0.66631  0.26333  1.0000
  H   H6309     1.0  0.51274  0.73591  0.29824  1.0000
  H   H6310     1.0  0.58745  0.71499  0.25247  1.0000
  H   H6311     1.0  0.54595  0.69761  0.25690  1.0000
  H   H6312     1.0  0.60205  0.79870  0.32517  1.0000
  H   H6313     1.0  0.65343  0.89897  0.25564  1.0000
  C   C3684     1.0  0.69928  0.73429  0.46254  1.0000
  H   H6314     1.0  0.67642  0.60347  0.23299  1.0000
  N   N267      1.0  0.60672  0.48758  0.26239  1.0000
  H   H6315     1.0  0.68576  0.68986  0.43604  1.0000
  H   H6316     1.0  0.70289  0.67863  0.43203  1.0000
  N   N268      1.0  0.63526  0.71465  0.34692  1.0000
  C   C3685     1.0  0.63764  0.70281  0.35992  1.0000
  C   C3686     1.0  0.64713  0.71113  0.33433  1.0000
  C   C3687     1.0  0.62116  0.71593  0.34339  1.0000
  C   C3688     1.0  0.63518  0.72867  0.35004  1.0000
  C   C3689     1.0  0.62590  0.70373  0.37376  1.0000
  C   C3690     1.0  0.66193  0.71307  0.33441  1.0000
  C   C3691     1.0  0.61844  0.70201  0.34171  1.0000
  C   C3692     1.0  0.63310  0.74202  0.33768  1.0000
  H   H6317     1.0  0.63911  0.69208  0.35764  1.0000
  H   H6318     1.0  0.64775  0.70247  0.36274  1.0000
  H   H6319     1.0  0.64443  0.71750  0.32391  1.0000
  H   H6320     1.0  0.64862  0.69977  0.33370  1.0000
  H   H6321     1.0  0.61215  0.72020  0.35159  1.0000
  H   H6322     1.0  0.61999  0.72399  0.33319  1.0000
  H   H6323     1.0  0.62628  0.73117  0.35924  1.0000
  H   H6324     1.0  0.64485  0.72809  0.35389  1.0000
  H   H6325     1.0  0.62863  0.69405  0.38221  1.0000
  H   H6326     1.0  0.62530  0.71311  0.37804  1.0000
  H   H6327     1.0  0.61527  0.70385  0.37228  1.0000
  H   H6328     1.0  0.66991  0.70928  0.32519  1.0000
  H   H6329     1.0  0.66201  0.72451  0.33309  1.0000
  H   H6330     1.0  0.66564  0.70668  0.34429  1.0000
  H   H6331     1.0  0.62658  0.69756  0.33299  1.0000
  H   H6332     1.0  0.60789  0.70450  0.33880  1.0000
  H   H6333     1.0  0.61782  0.69375  0.35188  1.0000
  H   H6334     1.0  0.62156  0.74715  0.33870  1.0000
  H   H6335     1.0  0.63734  0.73966  0.32685  1.0000
  H   H6336     1.0  0.63894  0.74985  0.33812  1.0000
  N   N269      1.0  0.68562  0.67027  0.43036  1.0000
  C   C3693     1.0  0.68989  0.67559  0.41430  1.0000
  C   C3694     1.0  0.72170  0.81677  0.23595  1.0000
  H   H6337     1.0  0.72475  0.80751  0.24461  1.0000
  C   C3695     1.0  0.56660  0.80895  0.33391  1.0000
  C   C3696     1.0  0.68804  0.50474  0.30786  1.0000
  C   C3697     1.0  0.51057  0.72887  0.26144  1.0000
  H   H6338     1.0  0.70175  0.67346  0.41078  1.0000
  C   C3698     1.0  0.71427  0.49693  0.27501  1.0000
  H   H6339     1.0  0.58198  0.77397  0.46281  1.0000
  N   N270      1.0  0.51297  0.71611  0.27367  1.0000
  H   H6340     1.0  0.66388  0.85313  0.27501  1.0000
  S   S1059     1.0  0.53961  0.66003  0.24904  1.0000
  C   C3699     1.0  0.56473  0.58842  0.25708  1.0000
  H   H6341     1.0  0.64751  0.50899  0.24391  1.0000
  H   H6342     1.0  0.52016  0.72837  0.23877  1.0000
  C   C3700     1.0  0.72272  0.62670  0.28502  1.0000
  C   C3701     1.0  0.57697  0.80918  0.31910  1.0000
  C   C3702     1.0  0.58266  0.76130  0.23742  1.0000
  C   C3703     1.0  0.62001  0.86284  0.24036  1.0000
  H   H6343     1.0  0.72993  0.60395  0.30669  1.0000
  H   H6344     1.0  0.72860  0.58031  0.24959  1.0000
  H   H6345     1.0  0.61955  0.88517  0.23058  1.0000
  H   H6346     1.0  0.60966  0.86499  0.24752  1.0000
  H   H6347     1.0  0.72919  0.62176  0.27583  1.0000
  H   H6348     1.0  0.57274  0.76787  0.24275  1.0000
  H   H6349     1.0  0.68643  0.86447  0.23052  1.0000
  C   C3704     1.0  0.49937  0.71092  0.28118  1.0000
  S   S1060     1.0  0.64224  0.78122  0.47172  1.0000
  H   H6350     1.0  0.71701  0.73653  0.47003  1.0000
  H   H6351     1.0  0.71940  0.75761  0.29455  1.0000
  H   H6352     1.0  0.64448  0.87635  0.24590  1.0000
  C   C3705     1.0  0.73119  0.75605  0.29205  1.0000
  H   H6353     1.0  0.59188  0.76178  0.24126  1.0000
  H   H6354     1.0  0.49969  0.64852  0.29908  1.0000
  H   H6355     1.0  0.69885  0.63049  0.24413  1.0000
  H   H6356     1.0  0.57537  0.72382  0.23251  1.0000
  S   S1061     1.0  0.73234  0.62878  0.40907  1.0000
  Fe  Fe530     1.0  0.73443  0.80210  0.27658  1.0000
  H   H6357     1.0  0.71128  0.82330  0.24050  1.0000
  C   C3706     1.0  0.59113  0.73514  0.26055  1.0000
  C   C3707     1.0  0.49552  0.62972  0.31527  1.0000
  H   H6358     1.0  0.69769  0.52868  0.35185  1.0000
  H   H6359     1.0  0.67460  0.57831  0.37367  1.0000
  H   H6360     1.0  0.59292  0.62214  0.24163  1.0000
  H   H6361     1.0  0.50130  0.70180  0.29046  1.0000
  H   H6362     1.0  0.60096  0.73003  0.25362  1.0000
  H   H6363     1.0  0.72067  0.56013  0.34130  1.0000
  H   H6364     1.0  0.70214  0.62379  0.30032  1.0000
  H   H6365     1.0  0.71314  0.60763  0.29459  1.0000
  H   H6366     1.0  0.50336  0.65668  0.31630  1.0000
  H   H6367     1.0  0.50025  0.73637  0.26470  1.0000
  C   C3708     1.0  0.59571  0.49689  0.25393  1.0000
  H   H6368     1.0  0.71853  0.63817  0.28021  1.0000
  H   H6369     1.0  0.60098  0.50125  0.24270  1.0000
  C   C3709     1.0  0.62764  0.84868  0.24069  1.0000
  H   H6370     1.0  0.66006  0.72099  0.47374  1.0000
  C   C3710     1.0  0.58567  0.50981  0.25993  1.0000
  C   C3711     1.0  0.67685  0.86059  0.23120  1.0000
  C   C3712     1.0  0.67613  0.74706  0.47546  1.0000
  H   H6371     1.0  0.69578  0.58286  0.23870  1.0000
  H   H6372     1.0  0.72070  0.63962  0.32674  1.0000
  H   H6373     1.0  0.71365  0.64107  0.30428  1.0000
  C   C3713     1.0  0.57194  0.60150  0.22804  1.0000
  C   C3714     1.0  0.64104  0.84600  0.23141  1.0000
  H   H6374     1.0  0.73628  0.62361  0.43791  1.0000
  H   H6375     1.0  0.73610  0.63984  0.45311  1.0000
  S   S1062     1.0  0.64269  0.80651  0.22907  1.0000
  C   C3715     1.0  0.62560  0.87427  0.23074  1.0000
  H   H6376     1.0  0.61283  0.77437  0.47708  1.0000
  C   C3716     1.0  0.73511  0.78774  0.22801  1.0000
  C   C3717     1.0  0.53864  0.69902  0.22816  1.0000
  H   H6377     1.0  0.55821  0.70450  0.22794  1.0000
  H   H6378     1.0  0.61770  0.73108  0.49716  1.0000
  H   H6379     1.0  0.50878  0.74047  0.68705  1.0000
  H   H6380     1.0  0.63465  0.54791  0.65480  1.0000
  H   H6381     1.0  0.55364  0.64397  0.65097  1.0000
  H   H6382     1.0  0.49337  0.74427  0.57998  1.0000
  H   H6383     1.0  0.73504  0.72382  0.49445  1.0000
  H   H6384     1.0  0.71458  0.88440  0.68678  1.0000
  C   C3718     1.0  0.53998  0.74146  0.67156  1.0000
  C   C3719     1.0  0.52702  0.63389  0.66118  1.0000
  H   H6385     1.0  0.60349  0.74152  0.71484  1.0000
  N   N271      1.0  0.59604  0.77086  0.58780  1.0000
  C   C3720     1.0  0.50597  0.64183  0.70618  1.0000
  H   H6386     1.0  0.70913  0.72075  0.50989  1.0000
  Fe  Fe531     1.0  0.62104  0.56093  0.70301  1.0000
  C   C3721     1.0  0.72550  0.76351  0.59559  1.0000
  S   S1063     1.0  0.59894  0.57335  0.71115  1.0000
  Fe  Fe532     1.0  0.64616  0.55811  0.67775  1.0000
  S   S1064     1.0  0.65960  0.54100  0.69140  1.0000
  S   S1065     1.0  0.65449  0.56627  0.65403  1.0000
  Fe  Fe533     1.0  0.64016  0.53154  0.70057  1.0000
  S   S1066     1.0  0.64600  0.50749  0.70176  1.0000
  Fe  Fe534     1.0  0.65090  0.55455  0.70775  1.0000
  S   S1067     1.0  0.62703  0.54807  0.68597  1.0000
  S   S1068     1.0  0.63897  0.57257  0.69340  1.0000
  S   S1069     1.0  0.72150  0.54808  0.63822  1.0000
  Fe  Fe535     1.0  0.57615  0.65606  0.69277  1.0000
  C   C3722     1.0  0.67355  0.58567  0.66882  1.0000
  S   S1070     1.0  0.58949  0.63912  0.68071  1.0000
  Fe  Fe536     1.0  0.56884  0.68853  0.68640  1.0000
  S   S1071     1.0  0.55466  0.68934  0.70820  1.0000
  S   S1072     1.0  0.57228  0.70886  0.67032  1.0000
  H   H6387     1.0  0.59747  0.76202  0.51512  1.0000
  Fe  Fe537     1.0  0.54623  0.67182  0.70484  1.0000
  S   S1073     1.0  0.52225  0.67505  0.70641  1.0000
  S   S1074     1.0  0.58685  0.67230  0.69460  1.0000
  S   S1075     1.0  0.55940  0.67244  0.68252  1.0000
  H   H6388     1.0  0.52783  0.62483  0.68314  1.0000
  H   H6389     1.0  0.49056  0.74530  0.65542  1.0000
  C   C3723     1.0  0.51325  0.72922  0.68569  1.0000
  H   H6390     1.0  0.68689  0.91919  0.69255  1.0000
  H   H6391     1.0  0.50659  0.80416  0.58082  1.0000
  Fe  Fe538     1.0  0.69243  0.82953  0.71317  1.0000
  S   S1076     1.0  0.71493  0.81766  0.70667  1.0000
  S   S1077     1.0  0.68535  0.85101  0.69962  1.0000
  Fe  Fe539     1.0  0.59209  0.78176  0.66278  1.0000
  S   S1078     1.0  0.61025  0.76997  0.64841  1.0000
  S   S1079     1.0  0.56966  0.77782  0.66976  1.0000
  Fe  Fe540     1.0  0.61098  0.79860  0.66845  1.0000
  S   S1080     1.0  0.63061  0.78849  0.65422  1.0000
  S   S1081     1.0  0.61017  0.81470  0.68125  1.0000
  Fe  Fe541     1.0  0.61620  0.79134  0.63929  1.0000
  S   S1082     1.0  0.62333  0.79823  0.61536  1.0000
  Fe  Fe542     1.0  0.62303  0.76799  0.66448  1.0000
  S   S1083     1.0  0.63754  0.74700  0.67171  1.0000
  S   S1084     1.0  0.59705  0.80350  0.65249  1.0000
  S   S1085     1.0  0.60434  0.77775  0.67995  1.0000
  Fe  Fe543     1.0  0.53073  0.76259  0.61621  1.0000
  S   S1086     1.0  0.55105  0.75407  0.60174  1.0000
  S   S1087     1.0  0.52744  0.77341  0.63440  1.0000
  Fe  Fe544     1.0  0.51174  0.75220  0.60281  1.0000
  S   S1088     1.0  0.53077  0.74258  0.58732  1.0000
  C   C3724     1.0  0.68132  0.76154  0.54479  1.0000
  Fe  Fe545     1.0  0.54163  0.73484  0.60602  1.0000
  S   S1089     1.0  0.55327  0.71238  0.61364  1.0000
  Fe  Fe546     1.0  0.53860  0.76267  0.58439  1.0000
  S   S1090     1.0  0.54862  0.77564  0.56325  1.0000
  S   S1091     1.0  0.52216  0.74276  0.62166  1.0000
  S   S1092     1.0  0.51875  0.77295  0.59858  1.0000
  H   H6392     1.0  0.69135  0.74053  0.58239  1.0000
  C   C3725     1.0  0.67022  0.75261  0.57825  1.0000
  Fe  Fe547     1.0  0.69521  0.81019  0.59437  1.0000
  S   S1093     1.0  0.68049  0.83056  0.58613  1.0000
  S   S1094     1.0  0.68869  0.79057  0.60947  1.0000
  H   H6393     1.0  0.65128  0.48997  0.64249  1.0000
  S   S1095     1.0  0.70916  0.84127  0.56549  1.0000
  Fe  Fe548     1.0  0.69670  0.84143  0.58827  1.0000
  S   S1096     1.0  0.68873  0.85966  0.60012  1.0000
  Fe  Fe549     1.0  0.69429  0.82815  0.56442  1.0000
  S   S1097     1.0  0.68803  0.82794  0.54407  1.0000
  S   S1098     1.0  0.71013  0.82112  0.59829  1.0000
  S   S1099     1.0  0.70802  0.80718  0.57284  1.0000
  Fe  Fe550     1.0  0.62995  0.75952  0.52542  1.0000
  S   S1100     1.0  0.62580  0.78257  0.51385  1.0000
  S   S1101     1.0  0.61309  0.74721  0.53901  1.0000
  Fe  Fe551     1.0  0.66230  0.75620  0.51563  1.0000
  C   C3726     1.0  0.53127  0.71505  0.66850  1.0000
  Fe  Fe552     1.0  0.64365  0.78425  0.52285  1.0000
  S   S1102     1.0  0.64077  0.79939  0.53753  1.0000
  S   S1103     1.0  0.64666  0.76147  0.53542  1.0000
  S   S1104     1.0  0.64604  0.75165  0.50677  1.0000
  C   C3727     1.0  0.67517  0.81923  0.54290  1.0000
  C   C3728     1.0  0.67714  0.81405  0.53050  1.0000
  C   C3729     1.0  0.66683  0.80779  0.52877  1.0000
  C   C3730     1.0  0.65418  0.80705  0.53923  1.0000
  C   C3731     1.0  0.65219  0.81225  0.55163  1.0000
  C   C3732     1.0  0.66272  0.81808  0.55358  1.0000
  H   H6394     1.0  0.68665  0.81503  0.52212  1.0000
  H   H6395     1.0  0.60352  0.76166  0.56889  1.0000
  H   H6396     1.0  0.64244  0.81176  0.55979  1.0000
  H   H6397     1.0  0.66096  0.82218  0.56309  1.0000
  C   C3733     1.0  0.69736  0.86649  0.60943  1.0000
  C   C3734     1.0  0.68885  0.87708  0.61682  1.0000
  C   C3735     1.0  0.69460  0.88300  0.62460  1.0000
  H   H6398     1.0  0.67765  0.88082  0.61649  1.0000
  H   H6399     1.0  0.68774  0.89126  0.63006  1.0000
  C   C3736     1.0  0.68915  0.69710  0.51236  1.0000
  C   C3737     1.0  0.67554  0.70551  0.51646  1.0000
  C   C3738     1.0  0.67403  0.71954  0.51794  1.0000
  C   C3739     1.0  0.68615  0.72510  0.51543  1.0000
  H   H6400     1.0  0.58866  0.74985  0.69658  1.0000
  H   H6401     1.0  0.70360  0.83223  0.68134  1.0000
  H   H6402     1.0  0.66616  0.70127  0.51825  1.0000
  H   H6403     1.0  0.66351  0.72598  0.52108  1.0000
  C   C3740     1.0  0.56669  0.76796  0.55683  1.0000
  C   C3741     1.0  0.57572  0.77649  0.54684  1.0000
  C   C3742     1.0  0.59014  0.77039  0.54162  1.0000
  C   C3743     1.0  0.59547  0.75566  0.54607  1.0000
  C   C3744     1.0  0.58644  0.74720  0.55613  1.0000
  C   C3745     1.0  0.57216  0.75334  0.56161  1.0000
  H   H6404     1.0  0.57158  0.78784  0.54321  1.0000
  H   H6405     1.0  0.59704  0.77703  0.53395  1.0000
  H   H6406     1.0  0.59049  0.73581  0.55965  1.0000
  H   H6407     1.0  0.56531  0.74667  0.56933  1.0000
  C   C3746     1.0  0.64198  0.79392  0.61176  1.0000
  C   C3747     1.0  0.64902  0.78322  0.62152  1.0000
  C   C3748     1.0  0.66364  0.78166  0.62036  1.0000
  C   C3749     1.0  0.67126  0.79057  0.60920  1.0000
  C   C3750     1.0  0.66455  0.80014  0.59850  1.0000
  C   C3751     1.0  0.64984  0.80193  0.59986  1.0000
  H   H6408     1.0  0.64312  0.77641  0.63025  1.0000
  H   H6409     1.0  0.66885  0.77400  0.62849  1.0000
  H   H6410     1.0  0.67058  0.80640  0.58938  1.0000
  H   H6411     1.0  0.64448  0.80990  0.59201  1.0000
  C   C3752     1.0  0.55896  0.77723  0.65849  1.0000
  C   C3753     1.0  0.56449  0.77195  0.64582  1.0000
  C   C3754     1.0  0.55508  0.77065  0.63807  1.0000
  C   C3755     1.0  0.54021  0.77486  0.64292  1.0000
  C   C3756     1.0  0.53490  0.78024  0.65542  1.0000
  C   C3757     1.0  0.54417  0.78122  0.66322  1.0000
  H   H6412     1.0  0.57592  0.76856  0.64226  1.0000
  H   H6413     1.0  0.55928  0.76636  0.62848  1.0000
  H   H6414     1.0  0.52348  0.78352  0.65926  1.0000
  H   H6415     1.0  0.53980  0.78518  0.67301  1.0000
  C   C3758     1.0  0.72536  0.83029  0.70299  1.0000
  C   C3759     1.0  0.71963  0.84267  0.70850  1.0000
  C   C3760     1.0  0.61898  0.48250  0.69171  1.0000
  C   C3761     1.0  0.67152  0.65935  0.70587  1.0000
  H   H6416     1.0  0.72377  0.88574  0.71108  1.0000
  H   H6417     1.0  0.66186  0.78933  0.57237  1.0000
  H   H6418     1.0  0.70927  0.84400  0.71569  1.0000
  S   S1105     1.0  0.66897  0.61847  0.72473  1.0000
  H   H6419     1.0  0.63628  0.50524  0.66775  1.0000
  H   H6420     1.0  0.71835  0.78791  0.60188  1.0000
  C   C3762     1.0  0.67475  0.51006  0.66721  1.0000
  C   C3763     1.0  0.64948  0.82318  0.67559  1.0000
  C   C3764     1.0  0.63868  0.81661  0.67540  1.0000
  C   C3765     1.0  0.62445  0.82163  0.68196  1.0000
  C   C3766     1.0  0.62128  0.83274  0.68928  1.0000
  C   C3767     1.0  0.63205  0.83914  0.68963  1.0000
  H   H6421     1.0  0.71185  0.91367  0.70168  1.0000
  H   H6422     1.0  0.64130  0.80780  0.67007  1.0000
  H   H6423     1.0  0.61033  0.83664  0.69445  1.0000
  H   H6424     1.0  0.62933  0.84800  0.69493  1.0000
  C   C3768     1.0  0.68027  0.90422  0.65925  1.0000
  C   C3769     1.0  0.56858  0.70964  0.65380  1.0000
  C   C3770     1.0  0.56912  0.69711  0.64967  1.0000
  C   C3771     1.0  0.56473  0.69796  0.63713  1.0000
  C   C3772     1.0  0.55967  0.71135  0.62878  1.0000
  C   C3773     1.0  0.55945  0.72387  0.63279  1.0000
  C   C3774     1.0  0.56418  0.72301  0.64509  1.0000
  H   H6425     1.0  0.57316  0.68675  0.65596  1.0000
  H   H6426     1.0  0.56515  0.68825  0.63397  1.0000
  H   H6427     1.0  0.55552  0.73423  0.62653  1.0000
  H   H6428     1.0  0.56397  0.73275  0.64808  1.0000
  H   H6429     1.0  0.72194  0.75999  0.50595  1.0000
  H   H6430     1.0  0.72689  0.92745  0.72328  1.0000
  C   C3775     1.0  0.64761  0.76245  0.70031  1.0000
  C   C3776     1.0  0.64383  0.74815  0.68606  1.0000
  C   C3777     1.0  0.64289  0.76156  0.68862  1.0000
  C   C3778     1.0  0.59296  0.71553  0.69348  1.0000
  H   H6431     1.0  0.65031  0.72526  0.69319  1.0000
  H   H6432     1.0  0.63856  0.77127  0.68158  1.0000
  C   C3779     1.0  0.67297  0.56023  0.64806  1.0000
  C   C3780     1.0  0.68021  0.54757  0.65565  1.0000
  C   C3781     1.0  0.69510  0.54354  0.65200  1.0000
  C   C3782     1.0  0.70288  0.55212  0.64061  1.0000
  C   C3783     1.0  0.69568  0.56436  0.63232  1.0000
  C   C3784     1.0  0.68067  0.56841  0.63607  1.0000
  H   H6433     1.0  0.67439  0.54093  0.66447  1.0000
  H   H6434     1.0  0.70063  0.53396  0.65831  1.0000
  H   H6435     1.0  0.70167  0.57102  0.62346  1.0000
  H   H6436     1.0  0.67510  0.57818  0.63003  1.0000
  C   C3785     1.0  0.59619  0.59164  0.70272  1.0000
  C   C3786     1.0  0.58530  0.60163  0.70935  1.0000
  C   C3787     1.0  0.58334  0.61634  0.70288  1.0000
  C   C3788     1.0  0.59213  0.62101  0.68965  1.0000
  C   C3789     1.0  0.60284  0.61101  0.68294  1.0000
  C   C3790     1.0  0.60490  0.59637  0.68948  1.0000
  H   H6437     1.0  0.71620  0.75835  0.63846  1.0000
  H   H6438     1.0  0.67008  0.66788  0.69615  1.0000
  H   H6439     1.0  0.60952  0.61456  0.67260  1.0000
  H   H6440     1.0  0.61304  0.58871  0.68409  1.0000
  H   H6441     1.0  0.69149  0.84091  0.63282  1.0000
  H   H6442     1.0  0.71385  0.57434  0.57226  1.0000
  H   H6443     1.0  0.73115  0.54482  0.56769  1.0000
  C   C3791     1.0  0.51419  0.66400  0.70122  1.0000
  C   C3792     1.0  0.51450  0.64973  0.70860  1.0000
  H   H6444     1.0  0.50075  0.66562  0.62125  1.0000
  C   C3793     1.0  0.70905  0.87856  0.62520  1.0000
  S   S1106     1.0  0.72542  0.59739  0.57425  1.0000
  H   H6445     1.0  0.52058  0.80877  0.56600  1.0000
  H   H6446     1.0  0.59474  0.79086  0.61241  1.0000
  H   H6447     1.0  0.59441  0.74473  0.49180  1.0000
  H   H6448     1.0  0.62185  0.74649  0.49943  1.0000
  H   H6449     1.0  0.70523  0.55118  0.67093  1.0000
  H   H6450     1.0  0.51710  0.79454  0.55201  1.0000
  C   C3794     1.0  0.70126  0.70255  0.51027  1.0000
  H   H6451     1.0  0.54283  0.64369  0.69093  1.0000
  H   H6452     1.0  0.71731  0.50462  0.59668  1.0000
  H   H6453     1.0  0.61533  0.76998  0.49481  1.0000
  C   C3795     1.0  0.58908  0.76547  0.50873  1.0000
  H   H6454     1.0  0.50252  0.81589  0.56418  1.0000
  C   C3796     1.0  0.61280  0.49625  0.69452  1.0000
  C   C3797     1.0  0.62098  0.50416  0.69742  1.0000
  C   C3798     1.0  0.63531  0.49817  0.69794  1.0000
  H   H6455     1.0  0.66865  0.53536  0.63427  1.0000
  H   H6456     1.0  0.70937  0.75901  0.62346  1.0000
  H   H6457     1.0  0.60161  0.50079  0.69449  1.0000
  H   H6458     1.0  0.61614  0.51476  0.69954  1.0000
  C   C3799     1.0  0.63662  0.69871  0.71389  1.0000
  C   C3800     1.0  0.65379  0.73653  0.70718  1.0000
  C   C3801     1.0  0.58426  0.77230  0.48452  1.0000
  H   H6459     1.0  0.66160  0.74986  0.57508  1.0000
  H   H6460     1.0  0.70342  0.88573  0.66662  1.0000
  C   C3802     1.0  0.66099  0.77813  0.57784  1.0000
  H   H6461     1.0  0.54798  0.73130  0.67295  1.0000
  H   H6462     1.0  0.71258  0.85088  0.67880  1.0000
  H   H6463     1.0  0.73653  0.57991  0.54685  1.0000
  H   H6464     1.0  0.53928  0.66282  0.67352  1.0000
  H   H6465     1.0  0.58542  0.74972  0.67367  1.0000
  C   C3803     1.0  0.49704  0.64805  0.69632  1.0000
  C   C3804     1.0  0.72028  0.57763  0.65940  1.0000
  H   H6466     1.0  0.58017  0.78533  0.60984  1.0000
  H   H6467     1.0  0.59949  0.78715  0.55760  1.0000
  H   H6468     1.0  0.65279  0.52048  0.63141  1.0000
  C   C3805     1.0  0.61506  0.62807  0.72338  1.0000
  H   H6469     1.0  0.64689  0.77280  0.70222  1.0000
  H   H6470     1.0  0.56844  0.75999  0.51105  1.0000
  S   S1107     1.0  0.67936  0.87896  0.72162  1.0000
  H   H6471     1.0  0.73526  0.74852  0.61905  1.0000
  H   H6472     1.0  0.73724  0.90006  0.72645  1.0000
  H   H6473     1.0  0.50481  0.68126  0.68564  1.0000
  Fe  Fe553     1.0  0.72168  0.82021  0.57560  1.0000
  H   H6474     1.0  0.72604  0.72616  0.51939  1.0000
  Fe  Fe554     1.0  0.70612  0.64179  0.72643  1.0000
  C   C3806     1.0  0.51309  0.76742  0.55284  1.0000
  H   H6475     1.0  0.70876  0.55747  0.57502  1.0000
  H   H6476     1.0  0.72383  0.73338  0.55542  1.0000
  C   C3807     1.0  0.52202  0.72126  0.69737  1.0000
  H   H6477     1.0  0.69542  0.59739  0.69626  1.0000
  H   H6478     1.0  0.72786  0.82355  0.67109  1.0000
  H   H6479     1.0  0.70966  0.82256  0.64451  1.0000
  H   H6480     1.0  0.70899  0.77453  0.52326  1.0000
  C   C3808     1.0  0.66531  0.71969  0.48264  1.0000
  H   H6481     1.0  0.51087  0.77250  0.54201  1.0000
  H   H6482     1.0  0.66820  0.51593  0.67569  1.0000
  C   C3809     1.0  0.50540  0.67016  0.69119  1.0000
  N   N272      1.0  0.59573  0.76580  0.49306  1.0000
  C   C3810     1.0  0.70801  0.83390  0.64519  1.0000
  H   H6483     1.0  0.66850  0.80389  0.51915  1.0000
  H   H6484     1.0  0.72485  0.74161  0.49498  1.0000
  H   H6485     1.0  0.63469  0.51199  0.64961  1.0000
  H   H6486     1.0  0.65977  0.76860  0.55510  1.0000
  H   H6487     1.0  0.60524  0.73186  0.65648  1.0000
  C   C3811     1.0  0.54621  0.62116  0.70022  1.0000
  H   H6488     1.0  0.56632  0.74593  0.69744  1.0000
  H   H6489     1.0  0.68423  0.89548  0.65317  1.0000
  H   H6490     1.0  0.50317  0.72308  0.66637  1.0000
  C   C3812     1.0  0.65967  0.60043  0.71461  1.0000
  H   H6491     1.0  0.61013  0.74294  0.67347  1.0000
  C   C3813     1.0  0.64946  0.73562  0.69523  1.0000
  H   H6492     1.0  0.54901  0.62262  0.70972  1.0000
  C   C3814     1.0  0.71193  0.86186  0.60992  1.0000
  C   C3815     1.0  0.61291  0.74151  0.50043  1.0000
  H   H6493     1.0  0.72374  0.63272  0.52872  1.0000
  C   C3816     1.0  0.58348  0.73886  0.67941  1.0000
  H   H6494     1.0  0.59764  0.79181  0.50047  1.0000
  Fe  Fe555     1.0  0.72092  0.61113  0.72436  1.0000
  H   H6495     1.0  0.67820  0.75138  0.54565  1.0000
  C   C3817     1.0  0.66126  0.51532  0.63768  1.0000
  C   C3818     1.0  0.73383  0.79103  0.61128  1.0000
  C   C3819     1.0  0.50981  0.80626  0.56891  1.0000
  C   C3820     1.0  0.60916  0.73153  0.67742  1.0000
  H   H6496     1.0  0.71383  0.62153  0.55396  1.0000
  C   C3821     1.0  0.69852  0.89347  0.67378  1.0000
  S   S1108     1.0  0.71490  0.88641  0.63606  1.0000
  C   C3822     1.0  0.73318  0.60570  0.55669  1.0000
  H   H6497     1.0  0.72083  0.85331  0.64593  1.0000
  C   C3823     1.0  0.67027  0.77045  0.55504  1.0000
  H   H6498     1.0  0.69202  0.92247  0.67324  1.0000
  H   H6499     1.0  0.70421  0.90231  0.66885  1.0000
  H   H6500     1.0  0.67690  0.88114  0.69208  1.0000
  H   H6501     1.0  0.64218  0.78130  0.56874  1.0000
  H   H6502     1.0  0.51515  0.63622  0.66325  1.0000
  H   H6503     1.0  0.68969  0.78673  0.55089  1.0000
  H   H6504     1.0  0.67984  0.72978  0.58211  1.0000
  H   H6505     1.0  0.49886  0.79491  0.54161  1.0000
  C   C3824     1.0  0.60262  0.75085  0.49063  1.0000
  C   C3825     1.0  0.68715  0.91682  0.64998  1.0000
  H   H6506     1.0  0.50608  0.63091  0.71221  1.0000
  H   H6507     1.0  0.53318  0.69193  0.67383  1.0000
  C   C3826     1.0  0.59318  0.73811  0.69975  1.0000
  C   C3827     1.0  0.69975  0.71651  0.51184  1.0000
  C   C3828     1.0  0.53143  0.63401  0.67485  1.0000
  C   C3829     1.0  0.59179  0.78217  0.60955  1.0000
  H   H6508     1.0  0.65114  0.68462  0.70073  1.0000
  H   H6509     1.0  0.64890  0.81167  0.70688  1.0000
  H   H6510     1.0  0.71710  0.76254  0.53732  1.0000
  H   H6511     1.0  0.58255  0.74455  0.51532  1.0000
  S   S1109     1.0  0.73148  0.66517  0.51125  1.0000
  C   C3830     1.0  0.69887  0.57795  0.68876  1.0000
  S   S1110     1.0  0.70545  0.62777  0.71251  1.0000
  H   H6512     1.0  0.64420  0.52464  0.67038  1.0000
  H   H6513     1.0  0.56991  0.79852  0.58888  1.0000
  C   C3831     1.0  0.59320  0.74464  0.59256  1.0000
  H   H6514     1.0  0.50290  0.68109  0.62553  1.0000
  H   H6515     1.0  0.68349  0.79304  0.56753  1.0000
  H   H6516     1.0  0.65910  0.88861  0.66928  1.0000
  H   H6517     1.0  0.69319  0.57297  0.69955  1.0000
  H   H6518     1.0  0.56086  0.74812  0.68131  1.0000
  H   H6519     1.0  0.65175  0.58618  0.70733  1.0000
  H   H6520     1.0  0.58568  0.79903  0.57454  1.0000
  N   N273      1.0  0.73564  0.74347  0.51860  1.0000
  C   C3832     1.0  0.69331  0.59423  0.68726  1.0000
  H   H6521     1.0  0.61312  0.60503  0.71453  1.0000
  S   S1111     1.0  0.72106  0.65239  0.48908  1.0000
  H   H6522     1.0  0.73185  0.69236  0.59845  1.0000
  C   C3833     1.0  0.64641  0.49030  0.65392  1.0000
  N   N274      1.0  0.69720  0.57160  0.67732  1.0000
  C   C3834     1.0  0.65281  0.74996  0.70975  1.0000
  H   H6523     1.0  0.55486  0.61965  0.65775  1.0000
  H   H6524     1.0  0.61737  0.76262  0.57640  1.0000
  H   H6525     1.0  0.71489  0.91144  0.68404  1.0000
  N   N275      1.0  0.52088  0.72907  0.67026  1.0000
  H   H6526     1.0  0.59364  0.79641  0.48275  1.0000
  H   H6527     1.0  0.52127  0.75180  0.66384  1.0000
  C   C3835     1.0  0.60888  0.63433  0.70973  1.0000
  H   H6528     1.0  0.60237  0.74056  0.58432  1.0000
  H   H6529     1.0  0.68928  0.69417  0.72167  1.0000
  C   C3836     1.0  0.54946  0.63373  0.68747  1.0000
  H   H6530     1.0  0.66201  0.58552  0.67171  1.0000
  C   C3837     1.0  0.57152  0.61548  0.66896  1.0000
  H   H6531     1.0  0.63821  0.78526  0.58598  1.0000
  Fe  Fe556     1.0  0.66559  0.84361  0.70120  1.0000
  C   C3838     1.0  0.60085  0.78002  0.59462  1.0000
  C   C3839     1.0  0.50076  0.77261  0.56492  1.0000
  H   H6532     1.0  0.56066  0.63441  0.68639  1.0000
  N   N276      1.0  0.71185  0.83493  0.65849  1.0000
  H   H6533     1.0  0.56273  0.64632  0.66277  1.0000
  C   C3840     1.0  0.71960  0.85271  0.66799  1.0000
  H   H6534     1.0  0.57688  0.60611  0.66396  1.0000
  H   H6535     1.0  0.57698  0.62436  0.66280  1.0000
  H   H6536     1.0  0.57323  0.61221  0.68006  1.0000
  H   H6537     1.0  0.66654  0.75214  0.59004  1.0000
  H   H6538     1.0  0.61332  0.72649  0.70724  1.0000
  H   H6539     1.0  0.61208  0.77531  0.59585  1.0000
  H   H6540     1.0  0.73051  0.84621  0.66834  1.0000
  H   H6541     1.0  0.68161  0.59732  0.68827  1.0000
  C   C3841     1.0  0.73274  0.56115  0.53211  1.0000
  H   H6542     1.0  0.53987  0.71255  0.67442  1.0000
  H   H6543     1.0  0.53701  0.71571  0.65706  1.0000
  C   C3842     1.0  0.68304  0.92106  0.68257  1.0000
  H   H6544     1.0  0.54599  0.74977  0.66489  1.0000
  H   H6545     1.0  0.69882  0.60046  0.67716  1.0000
  H   H6546     1.0  0.65902  0.72739  0.48950  1.0000
  C   C3843     1.0  0.67635  0.88526  0.68059  1.0000
  H   H6547     1.0  0.53491  0.74453  0.68204  1.0000
  H   H6548     1.0  0.70263  0.80918  0.68284  1.0000
  C   C3844     1.0  0.52872  0.74116  0.66386  1.0000
  N   N277      1.0  0.64520  0.83531  0.62817  1.0000
  C   C3845     1.0  0.63372  0.82689  0.63565  1.0000
  C   C3846     1.0  0.65913  0.82480  0.62461  1.0000
  C   C3847     1.0  0.64197  0.84542  0.61445  1.0000
  C   C3848     1.0  0.64595  0.84411  0.63799  1.0000
  C   C3849     1.0  0.61829  0.83578  0.63878  1.0000
  C   C3850     1.0  0.66580  0.81576  0.63745  1.0000
  C   C3851     1.0  0.63946  0.83847  0.60354  1.0000
  C   C3852     1.0  0.65770  0.85293  0.63243  1.0000
  H   H6549     1.0  0.63385  0.81900  0.62951  1.0000
  H   H6550     1.0  0.63573  0.82026  0.64622  1.0000
  H   H6551     1.0  0.66735  0.83023  0.61666  1.0000
  H   H6552     1.0  0.65774  0.81701  0.61922  1.0000
  H   H6553     1.0  0.63251  0.85421  0.61672  1.0000
  H   H6554     1.0  0.65094  0.85097  0.60870  1.0000
  H   H6555     1.0  0.63575  0.85209  0.64012  1.0000
  H   H6556     1.0  0.64683  0.83749  0.64886  1.0000
  H   H6557     1.0  0.61681  0.84262  0.64642  1.0000
  H   H6558     1.0  0.61474  0.84232  0.62886  1.0000
  H   H6559     1.0  0.61098  0.82830  0.64408  1.0000
  H   H6560     1.0  0.67559  0.80807  0.63347  1.0000
  H   H6561     1.0  0.66910  0.82249  0.64263  1.0000
  H   H6562     1.0  0.65854  0.80929  0.64551  1.0000
  H   H6563     1.0  0.63697  0.84697  0.59404  1.0000
  H   H6564     1.0  0.63031  0.83309  0.60794  1.0000
  H   H6565     1.0  0.64918  0.83078  0.59957  1.0000
  H   H6566     1.0  0.65379  0.86369  0.62594  1.0000
  H   H6567     1.0  0.66758  0.84765  0.62585  1.0000
  H   H6568     1.0  0.66095  0.85429  0.64173  1.0000
  H   H6569     1.0  0.69521  0.89844  0.72323  1.0000
  H   H6570     1.0  0.50856  0.70015  0.60568  1.0000
  H   H6571     1.0  0.59705  0.63669  0.71216  1.0000
  H   H6572     1.0  0.51806  0.78409  0.56943  1.0000
  H   H6573     1.0  0.68050  0.51736  0.65845  1.0000
  C   C3853     1.0  0.71365  0.85000  0.65645  1.0000
  H   H6574     1.0  0.52484  0.64373  0.67877  1.0000
  N   N278      1.0  0.59495  0.73074  0.68769  1.0000
  H   H6575     1.0  0.58339  0.77641  0.51041  1.0000
  C   C3854     1.0  0.70473  0.55596  0.68000  1.0000
  S   S1112     1.0  0.56252  0.65402  0.71512  1.0000
  C   C3855     1.0  0.71907  0.91557  0.69098  1.0000
  H   H6576     1.0  0.67589  0.52598  0.62010  1.0000
  H   H6577     1.0  0.68526  0.71922  0.48702  1.0000
  H   H6578     1.0  0.65349  0.89614  0.68524  1.0000
  C   C3856     1.0  0.66052  0.88719  0.68033  1.0000
  S   S1113     1.0  0.65714  0.75120  0.72524  1.0000
  H   H6579     1.0  0.69039  0.84045  0.67141  1.0000
  H   H6580     1.0  0.66252  0.77663  0.58891  1.0000
  H   H6581     1.0  0.69821  0.81264  0.66564  1.0000
  H   H6582     1.0  0.51701  0.70128  0.68356  1.0000
  H   H6583     1.0  0.50392  0.72410  0.68861  1.0000
  H   H6584     1.0  0.66038  0.81953  0.67017  1.0000
  H   H6585     1.0  0.72146  0.53643  0.54456  1.0000
  H   H6586     1.0  0.70144  0.78386  0.56244  1.0000
  H   H6587     1.0  0.69894  0.91424  0.64846  1.0000
  H   H6588     1.0  0.60203  0.69400  0.70397  1.0000
  H   H6589     1.0  0.68315  0.65448  0.70424  1.0000
  C   C3857     1.0  0.56797  0.74079  0.68836  1.0000
  H   H6590     1.0  0.57002  0.79586  0.57195  1.0000
  H   H6591     1.0  0.61272  0.78974  0.56566  1.0000
  S   S1114     1.0  0.63260  0.54353  0.71848  1.0000
  C   C3858     1.0  0.54217  0.66055  0.66266  1.0000
  H   H6592     1.0  0.64647  0.79559  0.70381  1.0000
  Fe  Fe557     1.0  0.57220  0.67172  0.71633  1.0000
  C   C3859     1.0  0.72809  0.93160  0.71149  1.0000
  C   C3860     1.0  0.72542  0.82403  0.66065  1.0000
  C   C3861     1.0  0.71890  0.76667  0.52552  1.0000
  S   S1115     1.0  0.65390  0.85262  0.72085  1.0000
  S   S1116     1.0  0.73526  0.89472  0.65919  1.0000
  H   H6593     1.0  0.62905  0.65730  0.71467  1.0000
  H   H6594     1.0  0.62916  0.67582  0.70775  1.0000
  C   C3862     1.0  0.73009  0.78432  0.60081  1.0000
  N   N279      1.0  0.49719  0.78849  0.56460  1.0000
  C   C3863     1.0  0.51092  0.79287  0.56336  1.0000
  H   H6595     1.0  0.69872  0.54927  0.70374  1.0000
  C   C3864     1.0  0.69027  0.78416  0.56235  1.0000
  H   H6596     1.0  0.72410  0.81303  0.66156  1.0000
  H   H6597     1.0  0.51815  0.72691  0.70639  1.0000
  H   H6598     1.0  0.65352  0.48274  0.66086  1.0000
  C   C3865     1.0  0.50992  0.73118  0.66155  1.0000
  C   C3866     1.0  0.60175  0.79052  0.48922  1.0000
  H   H6599     1.0  0.72048  0.86409  0.66521  1.0000
  H   H6600     1.0  0.57848  0.59796  0.71957  1.0000
  H   H6601     1.0  0.60743  0.73901  0.51191  1.0000
  C   C3867     1.0  0.52458  0.70179  0.67300  1.0000
  H   H6602     1.0  0.53071  0.64209  0.65175  1.0000
  N   N280      1.0  0.72939  0.56090  0.54795  1.0000
  H   H6603     1.0  0.52004  0.71026  0.70215  1.0000
  H   H6604     1.0  0.72238  0.58353  0.52340  1.0000
  H   H6605     1.0  0.72642  0.56647  0.65922  1.0000
  H   H6606     1.0  0.57497  0.62401  0.70803  1.0000
  H   H6607     1.0  0.66447  0.91454  0.68154  1.0000
  H   H6608     1.0  0.53402  0.74115  0.65237  1.0000
  C   C3868     1.0  0.73544  0.73085  0.51315  1.0000
  S   S1117     1.0  0.70567  0.66546  0.71957  1.0000
  H   H6609     1.0  0.72122  0.90735  0.72039  1.0000
  H   H6610     1.0  0.61342  0.74446  0.69676  1.0000
  H   H6611     1.0  0.68455  0.83623  0.65174  1.0000
  H   H6612     1.0  0.64300  0.76691  0.58473  1.0000
  H   H6613     1.0  0.68698  0.54610  0.69452  1.0000
  H   H6614     1.0  0.71090  0.72008  0.47895  1.0000
  H   H6615     1.0  0.71391  0.76781  0.59953  1.0000
  Fe  Fe558     1.0  0.67467  0.85807  0.72045  1.0000
  C   C3869     1.0  0.73162  0.54550  0.55619  1.0000
  Fe  Fe559     1.0  0.64304  0.77481  0.49560  1.0000
  H   H6616     1.0  0.68256  0.87641  0.67498  1.0000
  H   H6617     1.0  0.62685  0.62675  0.71964  1.0000
  C   C3870     1.0  0.55202  0.64557  0.66203  1.0000
  C   C3871     1.0  0.60672  0.76851  0.57406  1.0000
  C   C3872     1.0  0.70281  0.88625  0.68832  1.0000
  C   C3873     1.0  0.64529  0.77764  0.57929  1.0000
  H   H6618     1.0  0.53094  0.62314  0.65851  1.0000
  H   H6619     1.0  0.58533  0.73402  0.70938  1.0000
  H   H6620     1.0  0.65332  0.61008  0.70925  1.0000
  H   H6621     1.0  0.67526  0.93156  0.68191  1.0000
  C   C3874     1.0  0.64145  0.48437  0.69524  1.0000
  H   H6622     1.0  0.61098  0.79583  0.48473  1.0000
  H   H6623     1.0  0.52350  0.76907  0.55331  1.0000
  H   H6624     1.0  0.56444  0.73047  0.69229  1.0000
  C   C3875     1.0  0.71780  0.86794  0.61776  1.0000
  H   H6625     1.0  0.72433  0.52558  0.56154  1.0000
  H   H6626     1.0  0.73255  0.80942  0.55002  1.0000
  N   N281      1.0  0.65188  0.67388  0.72295  1.0000
  C   C3876     1.0  0.67267  0.52447  0.63198  1.0000
  H   H6627     1.0  0.66639  0.50490  0.63443  1.0000
  H   H6628     1.0  0.61771  0.77856  0.55313  1.0000
  H   H6629     1.0  0.68248  0.51902  0.63609  1.0000
  H   H6630     1.0  0.67478  0.67110  0.71947  1.0000
  H   H6631     1.0  0.71865  0.85374  0.60417  1.0000
  C   C3877     1.0  0.58112  0.77703  0.58516  1.0000
  C   C3878     1.0  0.60909  0.78194  0.56217  1.0000
  C   C3879     1.0  0.57679  0.79350  0.57988  1.0000
  H   H6632     1.0  0.60122  0.79086  0.58777  1.0000
  H   H6633     1.0  0.57931  0.77200  0.57729  1.0000
  H   H6634     1.0  0.57307  0.77427  0.59523  1.0000
  H   H6635     1.0  0.59404  0.77239  0.61802  1.0000
  H   H6636     1.0  0.61528  0.70352  0.69269  1.0000
  Fe  Fe560     1.0  0.71383  0.67148  0.49930  1.0000
  H   H6637     1.0  0.67724  0.58525  0.65728  1.0000
  N   N282      1.0  0.68269  0.89840  0.67433  1.0000
  H   H6638     1.0  0.72759  0.77266  0.52198  1.0000
  H   H6639     1.0  0.69908  0.59028  0.65970  1.0000
  N   N283      1.0  0.54708  0.63313  0.67331  1.0000
  H   H6640     1.0  0.58807  0.75731  0.60821  1.0000
  C   C3880     1.0  0.59622  0.75637  0.59805  1.0000
  C   C3881     1.0  0.60481  0.70472  0.70039  1.0000
  C   C3882     1.0  0.63715  0.53769  0.65121  1.0000
  H   H6641     1.0  0.51912  0.70154  0.66478  1.0000
  H   H6642     1.0  0.70329  0.85786  0.65607  1.0000
  C   C3883     1.0  0.60672  0.73740  0.70483  1.0000
  H   H6643     1.0  0.71208  0.77518  0.62627  1.0000
  H   H6644     1.0  0.57681  0.76499  0.48694  1.0000
  C   C3884     1.0  0.73203  0.76035  0.61826  1.0000
  H   H6645     1.0  0.72793  0.71940  0.54557  1.0000
  S   S1118     1.0  0.69095  0.68020  0.50901  1.0000
  H   H6646     1.0  0.49532  0.68655  0.60186  1.0000
  H   H6647     1.0  0.68741  0.76792  0.58193  1.0000
  C   C3885     1.0  0.60702  0.77459  0.48832  1.0000
  C   C3886     1.0  0.49699  0.66219  0.68863  1.0000
  H   H6648     1.0  0.62585  0.78932  0.71602  1.0000
  H   H6649     1.0  0.55081  0.61006  0.67575  1.0000
  C   C3887     1.0  0.55548  0.61932  0.66887  1.0000
  C   C3888     1.0  0.66550  0.50310  0.66218  1.0000
  H   H6650     1.0  0.65999  0.49685  0.67234  1.0000
  H   H6651     1.0  0.72901  0.86444  0.61805  1.0000
  H   H6652     1.0  0.59157  0.73532  0.60166  1.0000
  C   C3889     1.0  0.70405  0.57869  0.66241  1.0000
  H   H6653     1.0  0.61319  0.62726  0.70192  1.0000
  H   H6654     1.0  0.67447  0.59602  0.67013  1.0000
  H   H6655     1.0  0.53223  0.66191  0.65903  1.0000
  H   H6656     1.0  0.68505  0.91928  0.63903  1.0000
  H   H6657     1.0  0.60672  0.75199  0.60127  1.0000
  N   N284      1.0  0.65476  0.51294  0.65359  1.0000
  C   C3890     1.0  0.64245  0.50572  0.65645  1.0000
  C   C3891     1.0  0.73346  0.49397  0.58124  1.0000
  C   C3892     1.0  0.65047  0.68720  0.71110  1.0000
  H   H6658     1.0  0.62940  0.60234  0.71918  1.0000
  C   C3893     1.0  0.70031  0.83189  0.67167  1.0000
  S   S1119     1.0  0.66044  0.77906  0.50343  1.0000
  C   C3894     1.0  0.50079  0.71043  0.60661  1.0000
  C   C3895     1.0  0.67529  0.90916  0.68367  1.0000
  H   H6659     1.0  0.59189  0.71108  0.68483  1.0000
  H   H6660     1.0  0.68227  0.92672  0.65415  1.0000
  H   H6661     1.0  0.65685  0.87723  0.68671  1.0000
  C   C3896     1.0  0.71650  0.76355  0.62694  1.0000
  H   H6662     1.0  0.72475  0.55695  0.52951  1.0000
  H   H6663     1.0  0.71528  0.83858  0.63532  1.0000
  H   H6664     1.0  0.69559  0.76134  0.56614  1.0000
  H   H6665     1.0  0.69686  0.57416  0.57005  1.0000
  C   C3897     1.0  0.68334  0.74004  0.57678  1.0000
  H   H6666     1.0  0.51439  0.75567  0.55426  1.0000
  C   C3898     1.0  0.68157  0.57245  0.67824  1.0000
  H   H6667     1.0  0.72318  0.58193  0.66710  1.0000
  C   C3899     1.0  0.57802  0.75596  0.51580  1.0000
  H   H6668     1.0  0.66619  0.65060  0.70681  1.0000
  H   H6669     1.0  0.58281  0.71516  0.70171  1.0000
  H   H6670     1.0  0.64073  0.54039  0.63937  1.0000
  C   C3900     1.0  0.69643  0.81708  0.67518  1.0000
  H   H6671     1.0  0.55262  0.61059  0.69816  1.0000
  C   C3901     1.0  0.66686  0.57439  0.72052  1.0000
  H   H6672     1.0  0.66867  0.90809  0.65934  1.0000
  C   C3902     1.0  0.73209  0.90072  0.71760  1.0000
  N   N285      1.0  0.67230  0.76749  0.57015  1.0000
  H   H6673     1.0  0.70015  0.87553  0.69272  1.0000
  H   H6674     1.0  0.62711  0.69398  0.71908  1.0000
  Fe  Fe561     1.0  0.73398  0.55683  0.61643  1.0000
  H   H6675     1.0  0.70224  0.57397  0.65429  1.0000
  H   H6676     1.0  0.58366  0.73348  0.67089  1.0000
  H   H6677     1.0  0.58337  0.74834  0.58824  1.0000
  H   H6678     1.0  0.63487  0.70609  0.70353  1.0000
  C   C3903     1.0  0.64880  0.52687  0.65858  1.0000
  H   H6679     1.0  0.54785  0.66890  0.65528  1.0000
  H   H6680     1.0  0.72397  0.79513  0.61884  1.0000
  S   S1120     1.0  0.66608  0.55721  0.71950  1.0000
  H   H6681     1.0  0.71248  0.74959  0.52095  1.0000
  S   S1121     1.0  0.65918  0.84434  0.68077  1.0000
  H   H6682     1.0  0.61820  0.72602  0.68281  1.0000
  C   C3904     1.0  0.71415  0.56885  0.55215  1.0000
  H   H6683     1.0  0.71181  0.69606  0.50733  1.0000
  H   H6684     1.0  0.68846  0.73945  0.56550  1.0000
  H   H6685     1.0  0.67536  0.57169  0.68953  1.0000
  H   H6686     1.0  0.62384  0.81305  0.71570  1.0000
  H   H6687     1.0  0.52086  0.64495  0.71665  1.0000
  C   C3905     1.0  0.63588  0.66527  0.71169  1.0000
  H   H6688     1.0  0.71839  0.92727  0.68664  1.0000
  H   H6689     1.0  0.61108  0.71395  0.66684  1.0000
  H   H6690     1.0  0.65809  0.72685  0.71428  1.0000
  H   H6691     1.0  0.68184  0.76785  0.53355  1.0000
  C   C3906     1.0  0.70828  0.56849  0.56832  1.0000
  H   H6692     1.0  0.73023  0.71851  0.63162  1.0000
  H   H6693     1.0  0.70437  0.53502  0.69442  1.0000
  H   H6694     1.0  0.62702  0.53391  0.65436  1.0000
  H   H6695     1.0  0.71602  0.55469  0.68049  1.0000
  H   H6696     1.0  0.69787  0.89302  0.69634  1.0000
  H   H6697     1.0  0.67335  0.90353  0.69523  1.0000
  H   H6698     1.0  0.69230  0.75915  0.54639  1.0000
  C   C3907     1.0  0.65157  0.79980  0.70985  1.0000
  H   H6699     1.0  0.71027  0.57548  0.68943  1.0000
  C   C3908     1.0  0.68663  0.76949  0.57057  1.0000
  C   C3909     1.0  0.61215  0.72526  0.66403  1.0000
  C   C3910     1.0  0.69817  0.54624  0.69399  1.0000
  H   H6700     1.0  0.57431  0.75628  0.52737  1.0000
  H   H6701     1.0  0.68027  0.56314  0.67495  1.0000
  H   H6702     1.0  0.62335  0.72547  0.65810  1.0000
  C   C3911     1.0  0.72476  0.61740  0.54892  1.0000
  S   S1122     1.0  0.68455  0.74295  0.51608  1.0000
  H   H6703     1.0  0.61208  0.64469  0.70421  1.0000
  C   C3912     1.0  0.64615  0.83461  0.68253  1.0000
  H   H6704     1.0  0.60561  0.70755  0.71007  1.0000
  C   C3913     1.0  0.72521  0.73121  0.54467  1.0000
  S   S1123     1.0  0.67368  0.82156  0.71313  1.0000
  H   H6705     1.0  0.53364  0.72067  0.69392  1.0000
  H   H6706     1.0  0.66946  0.78195  0.54977  1.0000
  C   C3914     1.0  0.73525  0.51498  0.58860  1.0000
  C   C3915     1.0  0.73296  0.57605  0.52188  1.0000
  H   H6707     1.0  0.65728  0.53270  0.65709  1.0000
  C   C3916     1.0  0.64733  0.79426  0.72625  1.0000
  C   C3917     1.0  0.65875  0.58691  0.71352  1.0000
  H   H6708     1.0  0.72263  0.86310  0.70886  1.0000
  H   H6709     1.0  0.66332  0.79636  0.70620  1.0000
  H   H6710     1.0  0.70676  0.56485  0.54839  1.0000
  C   C3918     1.0  0.72828  0.76792  0.57903  1.0000
  C   C3919     1.0  0.64092  0.66515  0.72510  1.0000
  H   H6711     1.0  0.71290  0.58043  0.54680  1.0000
  H   H6712     1.0  0.67288  0.49495  0.65623  1.0000
  H   H6713     1.0  0.50600  0.71698  0.61016  1.0000
  H   H6714     1.0  0.69026  0.85303  0.64365  1.0000
  H   H6715     1.0  0.57757  0.78237  0.48777  1.0000
  C   C3920     1.0  0.66872  0.60149  0.72266  1.0000
  H   H6716     1.0  0.49883  0.71644  0.59587  1.0000
  H   H6717     1.0  0.71940  0.76630  0.57539  1.0000
  H   H6718     1.0  0.53470  0.62095  0.70337  1.0000
  C   C3921     1.0  0.72722  0.85353  0.70463  1.0000
  H   H6719     1.0  0.73466  0.78956  0.58967  1.0000
  S   S1124     1.0  0.72939  0.55741  0.59541  1.0000
  H   H6720     1.0  0.71005  0.54102  0.56107  1.0000
  C   C3922     1.0  0.69266  0.84151  0.64344  1.0000
  C   C3923     1.0  0.72991  0.88562  0.71886  1.0000
  H   H6721     1.0  0.63946  0.82288  0.72619  1.0000
  H   H6722     1.0  0.68485  0.81813  0.68018  1.0000
  H   H6723     1.0  0.64477  0.66232  0.70277  1.0000
  H   H6724     1.0  0.72684  0.75163  0.59848  1.0000
  C   C3924     1.0  0.73464  0.90752  0.69091  1.0000
  H   H6725     1.0  0.71467  0.73553  0.54178  1.0000
  C   C3925     1.0  0.72116  0.53685  0.55567  1.0000
  C   C3926     1.0  0.49081  0.79630  0.55170  1.0000
  C   C3927     1.0  0.73034  0.62373  0.53461  1.0000
  Fe  Fe562     1.0  0.73645  0.88557  0.64044  1.0000
  C   C3928     1.0  0.72195  0.75458  0.51740  1.0000
  C   C3929     1.0  0.73728  0.73812  0.53395  1.0000
  H   H6726     1.0  0.66501  0.70875  0.48944  1.0000
  N   N286      1.0  0.73448  0.76823  0.60272  1.0000
  C   C3930     1.0  0.73487  0.73400  0.49718  1.0000
  H   H6727     1.0  0.73568  0.57477  0.51060  1.0000
  H   H6728     1.0  0.73599  0.89649  0.68944  1.0000
  H   H6729     1.0  0.71808  0.93228  0.70837  1.0000
  C   C3931     1.0  0.72769  0.50455  0.58948  1.0000
  H   H6730     1.0  0.68290  0.50149  0.67218  1.0000
  S   S1125     1.0  0.48820  0.75106  0.60823  1.0000
  H   H6731     1.0  0.70116  0.73696  0.48349  1.0000
  H   H6732     1.0  0.72887  0.77934  0.57492  1.0000
  H   H6733     1.0  0.50365  0.76623  0.57530  1.0000
  C   C3932     1.0  0.49943  0.74594  0.65979  1.0000
  H   H6734     1.0  0.60890  0.75121  0.47942  1.0000
  S   S1126     1.0  0.72478  0.68593  0.48045  1.0000
  H   H6735     1.0  0.51528  0.72936  0.65058  1.0000
  H   H6736     1.0  0.65958  0.69250  0.70903  1.0000
  C   C3933     1.0  0.49491  0.67605  0.62415  1.0000
  H   H6737     1.0  0.67792  0.74396  0.48660  1.0000
  H   H6738     1.0  0.73072  0.52288  0.59517  1.0000
  H   H6739     1.0  0.63752  0.70537  0.72075  1.0000
  H   H6740     1.0  0.72370  0.58415  0.64848  1.0000
  C   C3934     1.0  0.66686  0.66496  0.71979  1.0000
  C   C3935     1.0  0.61790  0.60262  0.72405  1.0000
  H   H6741     1.0  0.49134  0.76910  0.56426  1.0000
  H   H6742     1.0  0.49370  0.81851  0.54396  1.0000
  H   H6743     1.0  0.49466  0.74936  0.67013  1.0000
  H   H6744     1.0  0.49148  0.78382  0.58787  1.0000
  C   C3936     1.0  0.62332  0.81076  0.72744  1.0000
  H   H6745     1.0  0.72970  0.94271  0.70918  1.0000
  H   H6746     1.0  0.62208  0.83348  0.72492  1.0000
  H   H6747     1.0  0.59108  0.61643  0.72716  1.0000
  H   H6748     1.0  0.50467  0.75431  0.65183  1.0000
  H   H6749     1.0  0.48950  0.70365  0.62843  1.0000
  H   H6750     1.0  0.73635  0.70033  0.65314  1.0000
  H   H6751     1.0  0.63647  0.48618  0.65676  1.0000
  H   H6752     1.0  0.49023  0.66708  0.68095  1.0000
  C   C3937     1.0  0.62620  0.78551  0.72761  1.0000
  H   H6753     1.0  0.73584  0.67929  0.58748  1.0000
  H   H6754     1.0  0.62473  0.57937  0.72680  1.0000
  H   H6755     1.0  0.73727  0.56707  0.56310  1.0000
  H   H6756     1.0  0.66264  0.85057  0.96806  1.0000
  C   C3938     1.0  0.73681  0.83543  0.97626  1.0000
  H   H6757     1.0  0.61168  0.63656  0.72972  1.0000
  S   S1127     1.0  0.71335  0.95426  0.78031  1.0000
  Fe  Fe563     1.0  0.70568  0.61844  0.75320  1.0000
  H   H6758     1.0  0.72496  0.66899  0.74928  1.0000
  S   S1128     1.0  0.70655  0.61472  0.77651  1.0000
  S   S1129     1.0  0.70432  0.60194  0.74222  1.0000
  H   H6759     1.0  0.71945  0.98124  0.74683  1.0000
  H   H6760     1.0  0.63318  0.80021  0.75206  1.0000
  S   S1130     1.0  0.68814  0.63483  0.74401  1.0000
  C   C3939     1.0  0.71081  0.83719  0.76024  1.0000
  H   H6761     1.0  0.69862  0.84016  0.94831  1.0000
  H   H6762     1.0  0.49244  0.67985  0.72839  1.0000
  H   H6763     1.0  0.72673  0.95627  0.81034  1.0000
  Fe  Fe564     1.0  0.72709  0.85088  0.88737  1.0000
  S   S1131     1.0  0.71218  0.83973  0.90596  1.0000
  S   S1132     1.0  0.71803  0.87297  0.87510  1.0000
  C   C3940     1.0  0.68780  0.83319  0.96982  1.0000
  H   H6764     1.0  0.61356  0.62017  0.75106  1.0000
  Fe  Fe565     1.0  0.72131  0.82106  0.89508  1.0000
  S   S1133     1.0  0.70830  0.80675  0.89255  1.0000
  C   C3941     1.0  0.70486  0.86506  0.93075  1.0000
  C   C3942     1.0  0.58135  0.69844  0.73298  1.0000
  Fe  Fe566     1.0  0.66854  0.77625  0.82359  1.0000
  S   S1134     1.0  0.68456  0.75900  0.81389  1.0000
  S   S1135     1.0  0.64504  0.77741  0.82564  1.0000
  Fe  Fe567     1.0  0.69170  0.78935  0.82715  1.0000
  S   S1136     1.0  0.70939  0.77313  0.81712  1.0000
  S   S1137     1.0  0.69902  0.80728  0.83138  1.0000
  Fe  Fe568     1.0  0.69604  0.77634  0.80132  1.0000
  S   S1138     1.0  0.70444  0.77735  0.77777  1.0000
  Fe  Fe569     1.0  0.69626  0.75725  0.83075  1.0000
  S   S1139     1.0  0.70838  0.73574  0.84039  1.0000
  S   S1140     1.0  0.67937  0.79410  0.80988  1.0000
  S   S1141     1.0  0.67926  0.77310  0.84198  1.0000
  Fe  Fe570     1.0  0.64741  0.70913  0.76517  1.0000
  S   S1142     1.0  0.62431  0.71434  0.77650  1.0000
  S   S1143     1.0  0.66271  0.68864  0.77199  1.0000
  Fe  Fe571     1.0  0.64560  0.73695  0.74378  1.0000
  S   S1144     1.0  0.62247  0.74470  0.75297  1.0000
  H   H6765     1.0  0.70557  0.92533  0.82004  1.0000
  Fe  Fe572     1.0  0.62865  0.73607  0.77434  1.0000
  S   S1145     1.0  0.61844  0.74920  0.79141  1.0000
  Fe  Fe573     1.0  0.62005  0.72249  0.75416  1.0000
  S   S1146     1.0  0.60084  0.72183  0.74626  1.0000
  S   S1147     1.0  0.65200  0.73002  0.76495  1.0000
  S   S1148     1.0  0.64285  0.71556  0.74310  1.0000
  H   H6766     1.0  0.63747  0.59556  0.74072  1.0000
  Fe  Fe574     1.0  0.71985  0.93102  0.77760  1.0000
  H   H6767     1.0  0.67492  0.74357  0.79412  1.0000
  S   S1149     1.0  0.71166  0.70249  0.79371  1.0000
  Fe  Fe575     1.0  0.71037  0.90495  0.77427  1.0000
  Fe  Fe576     1.0  0.66358  0.83075  0.73265  1.0000
  S   S1150     1.0  0.69403  0.89243  0.77479  1.0000
  H   H6768     1.0  0.73197  0.71821  0.82455  1.0000
  C   C3943     1.0  0.69843  0.81871  0.77776  1.0000
  H   H6769     1.0  0.67941  0.76767  0.75631  1.0000
  S   S1151     1.0  0.71062  0.91285  0.79356  1.0000
  S   S1152     1.0  0.71716  0.92442  0.75859  1.0000
  H   H6770     1.0  0.67524  0.82292  0.78227  1.0000
  H   H6771     1.0  0.73096  0.75682  0.85602  1.0000
  S   S1153     1.0  0.65283  0.81651  0.75177  1.0000
  C   C3944     1.0  0.73044  0.97633  0.74166  1.0000
  C   C3945     1.0  0.69069  0.88842  0.75974  1.0000
  H   H6772     1.0  0.66838  0.65520  0.72845  1.0000
  C   C3946     1.0  0.72651  0.92936  0.81763  1.0000
  H   H6773     1.0  0.71220  0.87219  0.92404  1.0000
  C   C3947     1.0  0.67986  0.87439  0.75054  1.0000
  C   C3948     1.0  0.68283  0.87788  0.76211  1.0000
  C   C3949     1.0  0.71894  0.62125  0.78139  1.0000
  H   H6774     1.0  0.67370  0.86634  0.75259  1.0000
  H   H6775     1.0  0.67895  0.87240  0.77299  1.0000
  H   H6776     1.0  0.72797  0.78786  0.85855  1.0000
  H   H6777     1.0  0.69878  0.80701  0.78153  1.0000
  C   C3950     1.0  0.59667  0.70711  0.74265  1.0000
  C   C3951     1.0  0.60427  0.69298  0.74637  1.0000
  C   C3952     1.0  0.60026  0.68163  0.74358  1.0000
  C   C3953     1.0  0.58888  0.68430  0.73675  1.0000
  H   H6778     1.0  0.72928  0.78198  0.83000  1.0000
  C   C3954     1.0  0.73160  0.62018  0.79953  1.0000
  H   H6779     1.0  0.61298  0.69077  0.75170  1.0000
  H   H6780     1.0  0.60591  0.67070  0.74685  1.0000
  C   C3955     1.0  0.68412  0.82533  0.77296  1.0000
  Fe  Fe577     1.0  0.73090  0.83194  0.91690  1.0000
  C   C3956     1.0  0.68968  0.78552  0.76992  1.0000
  C   C3957     1.0  0.69176  0.79168  0.75524  1.0000
  C   C3958     1.0  0.68022  0.80061  0.74948  1.0000
  C   C3959     1.0  0.66654  0.80314  0.75832  1.0000
  C   C3960     1.0  0.66424  0.79585  0.77271  1.0000
  C   C3961     1.0  0.67584  0.78707  0.77851  1.0000
  H   H6781     1.0  0.70237  0.79017  0.74843  1.0000
  H   H6782     1.0  0.68209  0.80590  0.73831  1.0000
  H   H6783     1.0  0.65367  0.79758  0.77958  1.0000
  H   H6784     1.0  0.67404  0.78186  0.78975  1.0000
  C   C3962     1.0  0.63852  0.76940  0.81550  1.0000
  C   C3963     1.0  0.62393  0.76939  0.81911  1.0000
  C   C3964     1.0  0.61814  0.76316  0.81159  1.0000
  C   C3965     1.0  0.62680  0.75676  0.80030  1.0000
  C   C3966     1.0  0.64145  0.75682  0.79647  1.0000
  C   C3967     1.0  0.64726  0.76321  0.80404  1.0000
  H   H6785     1.0  0.61704  0.77421  0.82784  1.0000
  H   H6786     1.0  0.60683  0.76329  0.81461  1.0000
  H   H6787     1.0  0.64820  0.75206  0.78768  1.0000
  H   H6788     1.0  0.65842  0.76354  0.80103  1.0000
  H   H6789     1.0  0.64619  0.65822  0.75182  1.0000
  H   H6790     1.0  0.61766  0.79448  0.75395  1.0000
  H   H6791     1.0  0.73338  0.70590  0.80569  1.0000
  H   H6792     1.0  0.65403  0.86272  0.95448  1.0000
  H   H6793     1.0  0.65218  0.79978  0.73142  1.0000
  C   C3968     1.0  0.72518  0.87643  0.85643  1.0000
  H   H6794     1.0  0.73721  0.85496  0.93633  1.0000
  H   H6795     1.0  0.60010  0.73053  0.79569  1.0000
  C   C3969     1.0  0.73178  0.85461  0.80793  1.0000
  C   C3970     1.0  0.72321  0.89013  0.83219  1.0000
  C   C3971     1.0  0.71749  0.88719  0.84711  1.0000
  H   H6796     1.0  0.68220  0.83716  0.76924  1.0000
  H   H6797     1.0  0.67266  0.75618  0.77772  1.0000
  H   H6798     1.0  0.71721  0.89831  0.82505  1.0000
  H   H6799     1.0  0.70708  0.89317  0.85145  1.0000
  C   C3972     1.0  0.70549  0.80714  0.87556  1.0000
  C   C3973     1.0  0.69818  0.79742  0.87440  1.0000
  C   C3974     1.0  0.69600  0.79733  0.86098  1.0000
  C   C3975     1.0  0.70110  0.80700  0.84862  1.0000
  C   C3976     1.0  0.70844  0.81664  0.84980  1.0000
  C   C3977     1.0  0.71059  0.81678  0.86317  1.0000
  H   H6800     1.0  0.69417  0.78993  0.88393  1.0000
  H   H6801     1.0  0.69032  0.78982  0.86024  1.0000
  H   H6802     1.0  0.71276  0.82380  0.84025  1.0000
  H   H6803     1.0  0.71623  0.82429  0.86388  1.0000
  C   C3978     1.0  0.72865  0.95178  0.82138  1.0000
  H   H6804     1.0  0.69638  0.84719  0.77783  1.0000
  C   C3979     1.0  0.67834  0.69245  0.74399  1.0000
  C   C3980     1.0  0.67608  0.68325  0.75757  1.0000
  C   C3981     1.0  0.68428  0.66926  0.75964  1.0000
  C   C3982     1.0  0.69433  0.66427  0.74815  1.0000
  C   C3983     1.0  0.72824  0.79908  0.77890  1.0000
  H   H6805     1.0  0.67240  0.70343  0.74238  1.0000
  H   H6806     1.0  0.68258  0.66211  0.77006  1.0000
  H   H6807     1.0  0.70074  0.65348  0.74996  1.0000
  H   H6808     1.0  0.72708  0.93433  0.80598  1.0000
  C   C3984     1.0  0.71058  0.93075  0.82512  1.0000
  H   H6809     1.0  0.63021  0.77374  0.76646  1.0000
  H   H6810     1.0  0.70803  0.85788  0.76517  1.0000
  N   N287      1.0  0.73506  0.93583  0.82355  1.0000
  H   H6811     1.0  0.70241  0.75660  0.76194  1.0000
  N   N288      1.0  0.71173  0.82138  0.76656  1.0000
  C   C3985     1.0  0.73419  0.63810  0.77735  1.0000
  C   C3986     1.0  0.69535  0.89562  0.74559  1.0000
  C   C3987     1.0  0.61684  0.61067  0.74608  1.0000
  C   C3988     1.0  0.71058  0.71061  0.80765  1.0000
  C   C3989     1.0  0.72305  0.71072  0.81139  1.0000
  C   C3990     1.0  0.72228  0.71769  0.82214  1.0000
  C   C3991     1.0  0.70907  0.72472  0.82904  1.0000
  C   C3992     1.0  0.69654  0.72423  0.82561  1.0000
  C   C3993     1.0  0.69729  0.71720  0.81488  1.0000
  H   H6812     1.0  0.64741  0.77784  0.75714  1.0000
  H   H6813     1.0  0.67573  0.76791  0.73969  1.0000
  H   H6814     1.0  0.68627  0.72954  0.83104  1.0000
  H   H6815     1.0  0.72109  0.83911  0.75288  1.0000
  H   H6816     1.0  0.63873  0.61419  0.73675  1.0000
  C   C3994     1.0  0.71829  0.97888  0.78385  1.0000
  H   H6817     1.0  0.63905  0.68506  0.73979  1.0000
  H   H6818     1.0  0.71296  0.80255  0.75902  1.0000
  C   C3995     1.0  0.65235  0.66651  0.75003  1.0000
  H   H6819     1.0  0.57506  0.73463  0.82183  1.0000
  C   C3996     1.0  0.73511  0.77769  0.85603  1.0000
  H   H6820     1.0  0.68326  0.82047  0.76455  1.0000
  C   C3997     1.0  0.69193  0.89250  0.73405  1.0000
  C   C3998     1.0  0.73752  0.63178  0.79090  1.0000
  H   H6821     1.0  0.73605  0.85288  0.81761  1.0000
  H   H6822     1.0  0.73091  0.65382  0.73077  1.0000
  C   C3999     1.0  0.58657  0.62773  0.74409  1.0000
  H   H6823     1.0  0.65300  0.78279  0.72862  1.0000
  H   H6824     1.0  0.72853  0.67856  0.73109  1.0000
  C   C4000     1.0  0.65002  0.67861  0.73668  1.0000
  H   H6825     1.0  0.68051  0.83022  0.96503  1.0000
  C   C4001     1.0  0.73516  0.82836  0.96651  1.0000
  S   S1154     1.0  0.68317  0.83687  0.73384  1.0000
  C   C4002     1.0  0.62792  0.82307  0.73040  1.0000
  Fe  Fe578     1.0  0.68880  0.61944  0.73098  1.0000
  H   H6826     1.0  0.60835  0.77571  0.73064  1.0000
  H   H6827     1.0  0.61177  0.81187  0.73256  1.0000
  H   H6828     1.0  0.72709  0.80846  0.73491  1.0000
  C   C4003     1.0  0.73353  0.67025  0.73940  1.0000
  H   H6829     1.0  0.70643  0.86772  0.97208  1.0000
  H   H6830     1.0  0.72725  0.82581  0.73643  1.0000
  H   H6831     1.0  0.71870  0.76610  0.86905  1.0000
  H   H6832     1.0  0.73137  0.97251  0.82214  1.0000
  H   H6833     1.0  0.64495  0.65368  0.73006  1.0000
  H   H6834     1.0  0.67463  0.87435  0.94414  1.0000
  C   C4004     1.0  0.62921  0.79255  0.74865  1.0000
  Fe  Fe579     1.0  0.73413  0.69043  0.78791  1.0000
  N   N289      1.0  0.68954  0.85948  0.95664  1.0000
  H   H6835     1.0  0.68651  0.71103  0.76645  1.0000
  S   S1155     1.0  0.73513  0.83260  0.87606  1.0000
  H   H6836     1.0  0.70462  0.94209  0.82373  1.0000
  H   H6837     1.0  0.68897  0.75239  0.78410  1.0000
  N   N290      1.0  0.70530  0.85927  0.82164  1.0000
  C   C4005     1.0  0.71684  0.85114  0.81151  1.0000
  C   C4006     1.0  0.69215  0.85326  0.82476  1.0000
  C   C4007     1.0  0.71050  0.85675  0.83527  1.0000
  C   C4008     1.0  0.70291  0.87498  0.81435  1.0000
  H   H6838     1.0  0.71725  0.77233  0.85082  1.0000
  C   C4009     1.0  0.68570  0.85514  0.81174  1.0000
  C   C4010     1.0  0.69912  0.85829  0.84922  1.0000
  C   C4011     1.0  0.69039  0.88527  0.82196  1.0000
  H   H6839     1.0  0.71814  0.83934  0.81589  1.0000
  H   H6840     1.0  0.71391  0.85327  0.80097  1.0000
  H   H6841     1.0  0.68337  0.85796  0.83289  1.0000
  H   H6842     1.0  0.69449  0.84156  0.82971  1.0000
  H   H6843     1.0  0.71724  0.84577  0.83773  1.0000
  H   H6844     1.0  0.71768  0.86400  0.83391  1.0000
  H   H6845     1.0  0.71254  0.87920  0.81295  1.0000
  H   H6846     1.0  0.70181  0.87675  0.80308  1.0000
  C   C4012     1.0  0.68578  0.86456  0.97050  1.0000
  C   C4013     1.0  0.73718  0.84942  0.94739  1.0000
  H   H6847     1.0  0.69770  0.82248  0.78755  1.0000
  H   H6848     1.0  0.67550  0.85139  0.81562  1.0000
  H   H6849     1.0  0.68316  0.86652  0.80598  1.0000
  H   H6850     1.0  0.69272  0.84843  0.80417  1.0000
  H   H6851     1.0  0.69340  0.84934  0.85299  1.0000
  H   H6852     1.0  0.69136  0.86870  0.84817  1.0000
  H   H6853     1.0  0.70453  0.85761  0.85786  1.0000
  H   H6854     1.0  0.69377  0.88894  0.82985  1.0000
  H   H6855     1.0  0.68081  0.88076  0.82730  1.0000
  H   H6856     1.0  0.68672  0.89480  0.81377  1.0000
  C   C4014     1.0  0.63685  0.77749  0.75573  1.0000
  H   H6857     1.0  0.57509  0.62734  0.74674  1.0000
  H   H6858     1.0  0.70123  0.90388  0.74361  1.0000
  H   H6859     1.0  0.72806  0.70825  0.85498  1.0000
  H   H6860     1.0  0.72474  0.72826  0.76646  1.0000
  H   H6861     1.0  0.63102  0.66877  0.73291  1.0000
  H   H6862     1.0  0.60558  0.58564  0.73186  1.0000
  S   S1156     1.0  0.73262  0.89156  0.77303  1.0000
  H   H6863     1.0  0.63599  0.60409  0.75480  1.0000
  S   S1157     1.0  0.58397  0.66966  0.73378  1.0000
  H   H6864     1.0  0.57486  0.69999  0.78892  1.0000
  H   H6865     1.0  0.71363  0.74776  0.74834  1.0000
  H   H6866     1.0  0.56556  0.71732  0.78125  1.0000
  C   C4015     1.0  0.68807  0.68727  0.73231  1.0000
  C   C4016     1.0  0.72707  0.71042  0.86557  1.0000
  H   H6867     1.0  0.66383  0.66141  0.74937  1.0000
  C   C4017     1.0  0.67707  0.58899  0.72935  1.0000
  H   H6868     1.0  0.70701  0.84138  0.96100  1.0000
  H   H6869     1.0  0.61716  0.58455  0.74334  1.0000
  H   H6870     1.0  0.71946  0.79498  0.78727  1.0000
  H   H6871     1.0  0.57896  0.72056  0.73351  1.0000
  H   H6872     1.0  0.73133  0.79333  0.77003  1.0000
  C   C4018     1.0  0.72228  0.61506  0.79488  1.0000
  C   C4019     1.0  0.63319  0.60587  0.74426  1.0000
  H   H6873     1.0  0.72245  0.81997  0.78328  1.0000
  H   H6874     1.0  0.59276  0.60524  0.74407  1.0000
  S   S1158     1.0  0.72360  0.62607  0.73620  1.0000
  H   H6875     1.0  0.64876  0.67121  0.75971  1.0000
  H   H6876     1.0  0.72203  0.63789  0.76237  1.0000
  H   H6877     1.0  0.70911  0.92538  0.83667  1.0000
  H   H6878     1.0  0.73350  0.81751  0.97028  1.0000
  H   H6879     1.0  0.73413  0.61516  0.80995  1.0000
  H   H6880     1.0  0.71513  0.84339  0.77818  1.0000
  C   C4020     1.0  0.61119  0.78294  0.73566  1.0000
  H   H6881     1.0  0.72331  0.93341  0.84586  1.0000
  H   H6882     1.0  0.67833  0.85635  0.94226  1.0000
  H   H6883     1.0  0.70430  0.81863  0.74918  1.0000
  H   H6884     1.0  0.70275  0.84155  0.75339  1.0000
  H   H6885     1.0  0.73180  0.86572  0.80158  1.0000
  H   H6886     1.0  0.69123  0.74400  0.73895  1.0000
  H   H6887     1.0  0.72897  0.79820  0.83365  1.0000
  C   C4021     1.0  0.72508  0.76762  0.85782  1.0000
  H   H6888     1.0  0.69545  0.82327  0.97369  1.0000
  C   C4022     1.0  0.57580  0.71132  0.78421  1.0000
  C   C4023     1.0  0.72702  0.81469  0.74266  1.0000
  C   C4024     1.0  0.69572  0.67299  0.73433  1.0000
  H   H6889     1.0  0.68402  0.58966  0.73566  1.0000
  C   C4025     1.0  0.70737  0.84675  0.77116  1.0000
  H   H6890     1.0  0.62509  0.82308  0.74202  1.0000
  H   H6891     1.0  0.69575  0.86757  0.92548  1.0000
  H   H6892     1.0  0.61201  0.60224  0.75448  1.0000
  H   H6893     1.0  0.71098  0.85394  0.93048  1.0000
  H   H6894     1.0  0.68247  0.56587  0.73371  1.0000
  H   H6895     1.0  0.69359  0.76712  0.74043  1.0000
  H   H6896     1.0  0.61091  0.77747  0.74709  1.0000
  H   H6897     1.0  0.65738  0.68579  0.73516  1.0000
  H   H6898     1.0  0.63856  0.76920  0.74960  1.0000
  H   H6899     1.0  0.68760  0.71712  0.81206  1.0000
  C   C4026     1.0  0.72437  0.81555  0.77362  1.0000
  C   C4027     1.0  0.68372  0.76326  0.74655  1.0000
  H   H6900     1.0  0.57239  0.70062  0.72798  1.0000
  Fe  Fe580     1.0  0.73336  0.90063  0.79104  1.0000
  H   H6901     1.0  0.71796  0.95398  0.82866  1.0000
  N   N291      1.0  0.69482  0.66376  0.80716  1.0000
  C   C4028     1.0  0.70086  0.65256  0.81900  1.0000
  C   C4029     1.0  0.68383  0.65831  0.80356  1.0000
  C   C4030     1.0  0.68783  0.67781  0.81169  1.0000
  C   C4031     1.0  0.70691  0.66632  0.79440  1.0000
  C   C4032     1.0  0.71125  0.65679  0.82524  1.0000
  C   C4033     1.0  0.68968  0.64517  0.79660  1.0000
  C   C4034     1.0  0.67580  0.67716  0.82537  1.0000
  C   C4035     1.0  0.70265  0.67580  0.78032  1.0000
  H   H6902     1.0  0.69218  0.64910  0.82808  1.0000
  H   H6903     1.0  0.70695  0.64263  0.81512  1.0000
  H   H6904     1.0  0.67751  0.66688  0.79644  1.0000
  H   H6905     1.0  0.67578  0.65508  0.81342  1.0000
  H   H6906     1.0  0.69584  0.68268  0.81337  1.0000
  H   H6907     1.0  0.68312  0.68590  0.80301  1.0000
  H   H6908     1.0  0.71424  0.67145  0.79692  1.0000
  H   H6909     1.0  0.71368  0.65596  0.79206  1.0000
  H   H6910     1.0  0.71479  0.64771  0.83388  1.0000
  H   H6911     1.0  0.72106  0.65869  0.81706  1.0000
  H   H6912     1.0  0.70622  0.66623  0.83015  1.0000
  H   H6913     1.0  0.69737  0.64738  0.78624  1.0000
  H   H6914     1.0  0.69467  0.63557  0.80384  1.0000
  H   H6915     1.0  0.68070  0.64232  0.79423  1.0000
  H   H6916     1.0  0.67182  0.68807  0.82770  1.0000
  H   H6917     1.0  0.67961  0.66993  0.83491  1.0000
  H   H6918     1.0  0.66656  0.67402  0.82390  1.0000
  H   H6919     1.0  0.70828  0.68481  0.77621  1.0000
  H   H6920     1.0  0.69115  0.68071  0.78130  1.0000
  H   H6921     1.0  0.70617  0.66944  0.77189  1.0000
  H   H6922     1.0  0.58440  0.71115  0.77434  1.0000
  C   C4036     1.0  0.71337  0.81401  0.75465  1.0000
  N   N292      1.0  0.57913  0.73310  0.79182  1.0000
  C   C4037     1.0  0.58875  0.73541  0.79994  1.0000
  C   C4038     1.0  0.58503  0.73837  0.77603  1.0000
  C   C4039     1.0  0.57973  0.71716  0.79513  1.0000
  C   C4040     1.0  0.56421  0.74130  0.79689  1.0000
  C   C4041     1.0  0.58570  0.72935  0.81634  1.0000
  C   C4042     1.0  0.58511  0.75451  0.77108  1.0000
  H   H6923     1.0  0.60288  0.79300  0.73491  1.0000
  C   C4043     1.0  0.55280  0.74210  0.78876  1.0000
  H   H6924     1.0  0.58825  0.74704  0.79851  1.0000
  H   H6925     1.0  0.57928  0.73614  0.76910  1.0000
  H   H6926     1.0  0.59621  0.73237  0.77291  1.0000
  H   H6927     1.0  0.59076  0.71092  0.79599  1.0000
  H   H6928     1.0  0.57273  0.71378  0.80578  1.0000
  H   H6929     1.0  0.55990  0.73650  0.80830  1.0000
  H   H6930     1.0  0.56414  0.75244  0.79720  1.0000
  H   H6931     1.0  0.58686  0.71754  0.81914  1.0000
  H   H6932     1.0  0.59373  0.73161  0.82079  1.0000
  H   H6933     1.0  0.58867  0.75715  0.75918  1.0000
  H   H6934     1.0  0.57434  0.76136  0.77382  1.0000
  H   H6935     1.0  0.59284  0.75735  0.77540  1.0000
  C   C4044     1.0  0.73509  0.83537  0.95208  1.0000
  N   N293      1.0  0.63152  0.79578  0.73252  1.0000
  H   H6936     1.0  0.58748  0.63837  0.73697  1.0000
  H   H6937     1.0  0.54761  0.73278  0.79342  1.0000
  H   H6938     1.0  0.55687  0.74293  0.77707  1.0000
  H   H6939     1.0  0.54447  0.75209  0.78967  1.0000
  N   N294      1.0  0.69564  0.73819  0.76040  1.0000
  C   C4045     1.0  0.70299  0.72395  0.75630  1.0000
  C   C4046     1.0  0.70710  0.74580  0.75953  1.0000
  C   C4047     1.0  0.68643  0.74673  0.74969  1.0000
  C   C4048     1.0  0.68662  0.73514  0.77540  1.0000
  C   C4049     1.0  0.69302  0.71479  0.75567  1.0000
  C   C4050     1.0  0.71754  0.73811  0.76963  1.0000
  C   C4051     1.0  0.72445  0.96485  0.78172  1.0000
  C   C4052     1.0  0.68055  0.74773  0.78300  1.0000
  H   H6940     1.0  0.71053  0.72558  0.74563  1.0000
  H   H6941     1.0  0.70960  0.71699  0.76404  1.0000
  H   H6942     1.0  0.68128  0.87636  0.96853  1.0000
  H   H6943     1.0  0.69610  0.87948  0.94526  1.0000
  H   H6944     1.0  0.73274  0.91005  0.85555  1.0000
  H   H6945     1.0  0.67580  0.74390  0.75296  1.0000
  H   H6946     1.0  0.67735  0.73092  0.77558  1.0000
  H   H6947     1.0  0.69284  0.72655  0.78254  1.0000
  H   H6948     1.0  0.69965  0.70500  0.75187  1.0000
  H   H6949     1.0  0.72931  0.96856  0.73610  1.0000
  H   H6950     1.0  0.68592  0.72050  0.74807  1.0000
  H   H6951     1.0  0.72448  0.74541  0.76895  1.0000
  H   H6952     1.0  0.71195  0.73552  0.78105  1.0000
  C   C4053     1.0  0.72491  0.63283  0.77261  1.0000
  H   H6953     1.0  0.72609  0.70056  0.87410  1.0000
  C   C4054     1.0  0.69632  0.84370  0.95857  1.0000
  H   H6954     1.0  0.72357  0.88193  0.72977  1.0000
  H   H6955     1.0  0.65820  0.86970  0.96717  1.0000
  N   N295      1.0  0.61130  0.61416  0.73255  1.0000
  H   H6956     1.0  0.71769  0.60618  0.80178  1.0000
  H   H6957     1.0  0.73410  0.81900  0.76634  1.0000
  C   C4055     1.0  0.59538  0.61533  0.73667  1.0000
  C   C4056     1.0  0.58511  0.70973  0.73610  1.0000
  H   H6958     1.0  0.73096  0.91778  0.81799  1.0000
  H   H6959     1.0  0.73591  0.72878  0.86293  1.0000
  H   H6960     1.0  0.58952  0.62685  0.75432  1.0000
  H   H6961     1.0  0.71028  0.86513  0.95003  1.0000
  C   C4057     1.0  0.70026  0.86769  0.94617  1.0000
  C   C4058     1.0  0.73424  0.92995  0.83943  1.0000
  C   C4059     1.0  0.68421  0.88183  0.73643  1.0000
  H   H6962     1.0  0.73692  0.80983  0.74679  1.0000
  C   C4060     1.0  0.66217  0.86128  0.96077  1.0000
  H   H6963     1.0  0.71678  0.71838  0.86726  1.0000
  C   C4061     1.0  0.61608  0.58728  0.73206  1.0000
  C   C4062     1.0  0.73648  0.78848  0.83052  1.0000
  C   C4063     1.0  0.73680  0.88256  0.82662  1.0000
  S   S1159     1.0  0.73072  0.82664  0.94097  1.0000
  C   C4064     1.0  0.67655  0.86298  0.95026  1.0000
  H   H6964     1.0  0.73699  0.90732  0.83804  1.0000
  H   H6965     1.0  0.73646  0.97005  0.75006  1.0000
  H   H6966     1.0  0.63362  0.77484  0.72828  1.0000
  H   H6967     1.0  0.73754  0.80204  0.80913  1.0000
  C   C4065     1.0  0.73744  0.96117  0.82377  1.0000
  C   C4066     1.0  0.67611  0.57550  0.72831  1.0000
  H   H6968     1.0  0.78488  0.29577  0.13553  1.0000
  H   H6969     1.0  0.76084  0.01980  0.04644  1.0000
  H   H6970     1.0  0.77231  0.29170  0.12182  1.0000
  S   S1160     1.0  0.79330  0.13410  0.21814  1.0000
  Fe  Fe581     1.0  0.88024  0.05191  0.15728  1.0000
  S   S1161     1.0  0.88566  0.06697  0.13593  1.0000
  S   S1162     1.0  0.88514  0.02761  0.16175  1.0000
  Fe  Fe582     1.0  0.86502  0.07626  0.17265  1.0000
  S   S1163     1.0  0.86889  0.09326  0.15261  1.0000
  S   S1164     1.0  0.85432  0.08298  0.19361  1.0000
  Fe  Fe583     1.0  0.86300  0.07911  0.14197  1.0000
  S   S1165     1.0  0.84624  0.08862  0.12849  1.0000
  Fe  Fe584     1.0  0.89118  0.07978  0.14856  1.0000
  S   S1166     1.0  0.91080  0.08982  0.14043  1.0000
  S   S1167     1.0  0.85725  0.06327  0.16248  1.0000
  S   S1168     1.0  0.88764  0.06358  0.16936  1.0000
  Fe  Fe585     1.0  0.79847  0.03130  0.08806  1.0000
  S   S1169     1.0  0.80847  0.04841  0.07146  1.0000
  H   H6971     1.0  0.83339  0.07459  0.18407  1.0000
  S   S1170     1.0  0.86458  0.20417  0.03122  1.0000
  S   S1171     1.0  0.79592  0.06875  0.09513  1.0000
  H   H6972     1.0  0.80973  0.27134  0.03902  1.0000
  Fe  Fe586     1.0  0.78793  0.06351  0.07857  1.0000
  S   S1172     1.0  0.77422  0.08081  0.06486  1.0000
  Fe  Fe587     1.0  0.81554  0.05200  0.08956  1.0000
  S   S1173     1.0  0.83831  0.05219  0.08887  1.0000
  C   C4067     1.0  0.86959  0.23054  0.03035  1.0000
  S   S1174     1.0  0.80713  0.03379  0.10560  1.0000
  Fe  Fe588     1.0  0.94922  0.15450  0.18676  1.0000
  S   S1175     1.0  0.96073  0.13139  0.19086  1.0000
  S   S1176     1.0  0.93641  0.16527  0.20488  1.0000
  Fe  Fe589     1.0  0.95724  0.15771  0.15462  1.0000
  S   S1177     1.0  0.95659  0.17283  0.13320  1.0000
  Fe  Fe590     1.0  0.95041  0.12955  0.17400  1.0000
  S   S1178     1.0  0.93507  0.11443  0.17970  1.0000
  C   C4068     1.0  0.87703  0.02031  0.15267  1.0000
  S   S1179     1.0  0.93806  0.15233  0.17110  1.0000
  S   S1180     1.0  0.96735  0.16212  0.16994  1.0000
  Fe  Fe591     1.0  0.83500  0.22040  0.19931  1.0000
  H   H6973     1.0  0.81956  0.03271  0.03675  1.0000
  S   S1181     1.0  0.81771  0.23129  0.18711  1.0000
  Fe  Fe592     1.0  0.86610  0.21364  0.20082  1.0000
  S   S1182     1.0  0.88720  0.21763  0.18715  1.0000
  S   S1183     1.0  0.85381  0.20352  0.19221  1.0000
  Fe  Fe593     1.0  0.89713  0.24314  0.07234  1.0000
  S   S1184     1.0  0.88284  0.24461  0.09406  1.0000
  S   S1185     1.0  0.88737  0.24655  0.05306  1.0000
  Fe  Fe594     1.0  0.92364  0.24410  0.08242  1.0000
  S   S1186     1.0  0.91108  0.24600  0.10460  1.0000
  Fe  Fe595     1.0  0.90104  0.22913  0.10290  1.0000
  S   S1187     1.0  0.89712  0.21209  0.12298  1.0000
  Fe  Fe596     1.0  0.89408  0.26131  0.09379  1.0000
  S   S1188     1.0  0.88115  0.28244  0.09902  1.0000
  S   S1189     1.0  0.91462  0.22608  0.08121  1.0000
  S   S1190     1.0  0.90737  0.26101  0.07156  1.0000
  Fe  Fe597     1.0  0.80685  0.30471  0.18437  1.0000
  S   S1191     1.0  0.82650  0.30616  0.19019  1.0000
  S   S1192     1.0  0.78962  0.29338  0.19817  1.0000
  Fe  Fe598     1.0  0.81483  0.32096  0.15371  1.0000
  S   S1193     1.0  0.83499  0.32441  0.15661  1.0000
  S   S1194     1.0  0.80662  0.32939  0.13346  1.0000
  Fe  Fe599     1.0  0.83812  0.30137  0.16852  1.0000
  S   S1195     1.0  0.85918  0.28549  0.16468  1.0000
  Fe  Fe600     1.0  0.82171  0.32891  0.17781  1.0000
  S   S1196     1.0  0.82313  0.34747  0.18549  1.0000
  S   S1197     1.0  0.81888  0.29757  0.16405  1.0000
  S   S1198     1.0  0.80112  0.32783  0.17369  1.0000
  H   H6974     1.0  0.75379  0.04986  0.12235  1.0000
  H   H6975     1.0  0.83481  0.00340  0.06654  1.0000
  C   C4069     1.0  0.77154  0.24971  0.06586  1.0000
  Fe  Fe601     1.0  0.78045  0.12342  0.21065  1.0000
  H   H6976     1.0  0.89816  0.24125  0.18999  1.0000
  H   H6977     1.0  0.95311  0.26173  0.11448  1.0000
  H   H6978     1.0  0.84991  0.01747  0.05180  1.0000
  H   H6979     1.0  0.80818  0.03336  0.14116  1.0000
  Fe  Fe602     1.0  0.75076  0.39754  0.19796  1.0000
  S   S1199     1.0  0.76701  0.39426  0.17781  1.0000
  H   H6980     1.0  0.86468  0.23472  0.02116  1.0000
  H   H6981     1.0  0.89772  0.26036  0.18414  1.0000
  H   H6982     1.0  0.76799  0.21342  0.99444  1.0000
  C   C4070     1.0  0.75010  0.05887  0.12752  1.0000
  H   H6983     1.0  0.74864  0.16257  0.06847  1.0000
  S   S1200     1.0  0.79461  0.09926  0.99725  1.0000
  S   S1201     1.0  0.80585  0.19488  0.01844  1.0000
  C   C4071     1.0  0.75938  0.06261  0.13343  1.0000
  H   H6984     1.0  0.87689  0.17189  0.20285  1.0000
  Fe  Fe603     1.0  0.97833  0.13886  0.17262  1.0000
  S   S1202     1.0  0.77703  0.13938  0.99774  1.0000
  Fe  Fe604     1.0  0.80306  0.28267  0.08818  1.0000
  S   S1203     1.0  0.79842  0.30417  0.07329  1.0000
  S   S1204     1.0  0.81523  0.27715  0.10550  1.0000
  C   C4072     1.0  0.90442  0.99029  0.13202  1.0000
  S   S1205     1.0  0.78231  0.28885  0.05869  1.0000
  C   C4073     1.0  0.82239  0.27011  0.00364  1.0000
  Fe  Fe605     1.0  0.80444  0.29154  0.05618  1.0000
  S   S1206     1.0  0.81833  0.29816  0.03461  1.0000
  Fe  Fe606     1.0  0.77672  0.29954  0.07721  1.0000
  S   S1207     1.0  0.75548  0.31470  0.08155  1.0000
  S   S1208     1.0  0.81130  0.27049  0.07066  1.0000
  H   H6985     1.0  0.84060  0.03154  0.13040  1.0000
  S   S1209     1.0  0.75297  0.35466  0.12210  1.0000
  Fe  Fe607     1.0  0.85073  0.21179  0.01462  1.0000
  S   S1210     1.0  0.84811  0.16797  0.21895  1.0000
  C   C4074     1.0  0.87458  0.23970  0.03547  1.0000
  H   H6986     1.0  0.77754  0.32614  0.08578  1.0000
  Fe  Fe608     1.0  0.82346  0.20730  0.00972  1.0000
  C   C4075     1.0  0.81976  0.28724  0.02286  1.0000
  C   C4076     1.0  0.82713  0.28298  0.99869  1.0000
  C   C4077     1.0  0.82601  0.29141  0.00831  1.0000
  H   H6987     1.0  0.88815  0.28600  0.20040  1.0000
  H   H6988     1.0  0.82981  0.30129  0.00445  1.0000
  S   S1211     1.0  0.82746  0.22241  0.02064  1.0000
  C   C4078     1.0  0.81621  0.26583  0.01821  1.0000
  C   C4079     1.0  0.79726  0.17542  0.00944  1.0000
  C   C4080     1.0  0.79502  0.16967  0.99898  1.0000
  H   H6989     1.0  0.79571  0.16970  0.02055  1.0000
  H   H6990     1.0  0.79188  0.15948  0.00204  1.0000
  H   H6991     1.0  0.74192  0.23872  0.06642  1.0000
  H   H6992     1.0  0.75459  0.25897  0.99475  1.0000
  Fe  Fe609     1.0  0.83164  0.23632  0.99851  1.0000
  H   H6993     1.0  0.75813  0.36310  0.14887  1.0000
  H   H6994     1.0  0.73807  0.09053  0.06092  1.0000
  H   H6995     1.0  0.85133  0.30040  0.04295  1.0000
  C   C4081     1.0  0.80321  0.14775  0.15559  1.0000
  C   C4082     1.0  0.97323  0.25686  0.09967  1.0000
  H   H6996     1.0  0.80820  0.34526  0.21395  1.0000
  C   C4083     1.0  0.82409  0.15251  0.20245  1.0000
  H   H6997     1.0  0.77838  0.15376  0.03519  1.0000
  C   C4084     1.0  0.80987  0.31544  0.12464  1.0000
  C   C4085     1.0  0.82034  0.30305  0.12762  1.0000
  C   C4086     1.0  0.82195  0.29132  0.12171  1.0000
  C   C4087     1.0  0.81322  0.29203  0.11259  1.0000
  C   C4088     1.0  0.80304  0.30459  0.10920  1.0000
  C   C4089     1.0  0.80142  0.31632  0.11518  1.0000
  H   H6998     1.0  0.82730  0.30254  0.13440  1.0000
  H   H6999     1.0  0.82996  0.28172  0.12421  1.0000
  H   H7000     1.0  0.79612  0.30517  0.10232  1.0000
  H   H7001     1.0  0.79338  0.32591  0.11282  1.0000
  C   C4090     1.0  0.80736  0.36065  0.18470  1.0000
  C   C4091     1.0  0.79400  0.35698  0.19030  1.0000
  C   C4092     1.0  0.78146  0.36754  0.18897  1.0000
  C   C4093     1.0  0.78234  0.38158  0.18157  1.0000
  C   C4094     1.0  0.79567  0.38526  0.17618  1.0000
  C   C4095     1.0  0.80816  0.37486  0.17802  1.0000
  H   H7002     1.0  0.79335  0.34602  0.19561  1.0000
  H   H7003     1.0  0.77113  0.36476  0.19316  1.0000
  H   H7004     1.0  0.79634  0.39613  0.17048  1.0000
  H   H7005     1.0  0.81847  0.37771  0.17372  1.0000
  C   C4096     1.0  0.78647  0.25957  0.99688  1.0000
  H   H7006     1.0  0.93953  0.25290  0.10240  1.0000
  C   C4097     1.0  0.88108  0.23447  0.04735  1.0000
  C   C4098     1.0  0.88243  0.21994  0.05418  1.0000
  C   C4099     1.0  0.87750  0.21075  0.04901  1.0000
  H   H7007     1.0  0.88745  0.21577  0.06329  1.0000
  H   H7008     1.0  0.87871  0.19951  0.05426  1.0000
  C   C4100     1.0  0.87503  0.28284  0.11736  1.0000
  C   C4101     1.0  0.88198  0.27302  0.12776  1.0000
  C   C4102     1.0  0.87731  0.27407  0.14224  1.0000
  C   C4103     1.0  0.86540  0.28465  0.14643  1.0000
  C   C4104     1.0  0.85843  0.29437  0.13604  1.0000
  C   C4105     1.0  0.86331  0.29356  0.12154  1.0000
  H   H7009     1.0  0.89103  0.26470  0.12466  1.0000
  H   H7010     1.0  0.88281  0.26658  0.15021  1.0000
  H   H7011     1.0  0.84933  0.30262  0.13915  1.0000
  H   H7012     1.0  0.85786  0.30119  0.11357  1.0000
  C   C4106     1.0  0.86696  0.00091  0.15179  1.0000
  C   C4107     1.0  0.80968  0.24833  0.19074  1.0000
  C   C4108     1.0  0.79489  0.25348  0.19226  1.0000
  C   C4109     1.0  0.78848  0.26710  0.19529  1.0000
  C   C4110     1.0  0.79696  0.27565  0.19645  1.0000
  C   C4111     1.0  0.81169  0.27046  0.19498  1.0000
  C   C4112     1.0  0.81802  0.25679  0.19225  1.0000
  H   H7013     1.0  0.78842  0.24693  0.19107  1.0000
  H   H7014     1.0  0.77710  0.27119  0.19623  1.0000
  H   H7015     1.0  0.81828  0.27709  0.19574  1.0000
  H   H7016     1.0  0.82943  0.25308  0.19071  1.0000
  C   C4113     1.0  0.94006  0.18419  0.13105  1.0000
  C   C4114     1.0  0.92807  0.18473  0.14246  1.0000
  C   C4115     1.0  0.91484  0.19345  0.14008  1.0000
  C   C4116     1.0  0.91371  0.20186  0.12638  1.0000
  C   C4117     1.0  0.92584  0.20168  0.11518  1.0000
  C   C4118     1.0  0.93891  0.19273  0.11745  1.0000
  H   H7017     1.0  0.92894  0.17845  0.15306  1.0000
  H   H7018     1.0  0.90552  0.19368  0.14884  1.0000
  H   H7019     1.0  0.92512  0.20814  0.10461  1.0000
  H   H7020     1.0  0.94815  0.19241  0.10860  1.0000
  C   C4119     1.0  0.92337  0.18043  0.19974  1.0000
  C   C4120     1.0  0.92329  0.18647  0.18522  1.0000
  C   C4121     1.0  0.91236  0.19819  0.18136  1.0000
  C   C4122     1.0  0.90132  0.20362  0.19201  1.0000
  C   C4123     1.0  0.90150  0.19770  0.20651  1.0000
  C   C4124     1.0  0.91262  0.18624  0.21035  1.0000
  H   H7021     1.0  0.93168  0.18216  0.17699  1.0000
  H   H7022     1.0  0.91228  0.20280  0.17012  1.0000
  H   H7023     1.0  0.89316  0.20201  0.21477  1.0000
  H   H7024     1.0  0.91276  0.18168  0.22158  1.0000
  C   C4125     1.0  0.78045  0.08608  0.04617  1.0000
  C   C4126     1.0  0.77177  0.09733  0.03825  1.0000
  C   C4127     1.0  0.77616  0.10156  0.02327  1.0000
  C   C4128     1.0  0.78919  0.09444  0.01609  1.0000
  C   C4129     1.0  0.79787  0.08316  0.02399  1.0000
  C   C4130     1.0  0.79356  0.07906  0.03903  1.0000
  H   H7025     1.0  0.82552  0.16458  0.98002  1.0000
  H   H7026     1.0  0.76936  0.11018  0.01724  1.0000
  H   H7027     1.0  0.80799  0.07769  0.01847  1.0000
  H   H7028     1.0  0.80037  0.07047  0.04506  1.0000
  H   H7029     1.0  0.92769  0.13064  0.20366  1.0000
  C   C4131     1.0  0.91771  0.09605  0.15171  1.0000
  C   C4132     1.0  0.91006  0.09757  0.16552  1.0000
  C   C4133     1.0  0.91561  0.10311  0.17393  1.0000
  C   C4134     1.0  0.92875  0.10741  0.16859  1.0000
  C   C4135     1.0  0.93648  0.10577  0.15482  1.0000
  C   C4136     1.0  0.93101  0.10004  0.14648  1.0000
  H   H7030     1.0  0.89989  0.09442  0.16977  1.0000
  H   H7031     1.0  0.90968  0.10402  0.18467  1.0000
  H   H7032     1.0  0.94677  0.10866  0.15071  1.0000
  H   H7033     1.0  0.93714  0.09862  0.13592  1.0000
  C   C4137     1.0  0.84442  0.07849  0.11728  1.0000
  C   C4138     1.0  0.83279  0.08328  0.11054  1.0000
  C   C4139     1.0  0.83078  0.07525  0.10189  1.0000
  C   C4140     1.0  0.84058  0.06251  0.09967  1.0000
  C   C4141     1.0  0.85238  0.05787  0.10616  1.0000
  C   C4142     1.0  0.85421  0.06573  0.11509  1.0000
  H   H7034     1.0  0.82524  0.09320  0.11209  1.0000
  H   H7035     1.0  0.82176  0.07903  0.09679  1.0000
  H   H7036     1.0  0.86008  0.04813  0.10435  1.0000
  H   H7037     1.0  0.86326  0.06198  0.12017  1.0000
  H   H7038     1.0  0.84276  0.27208  0.04843  1.0000
  H   H7039     1.0  0.82111  0.00271  0.10644  1.0000
  H   H7040     1.0  0.84546  0.98735  0.06131  1.0000
  C   C4143     1.0  0.82834  0.09470  0.20841  1.0000
  H   H7041     1.0  0.89426  0.17369  0.20225  1.0000
  S   S1212     1.0  0.96908  0.13479  0.15603  1.0000
  H   H7042     1.0  0.78141  0.38933  0.14900  1.0000
  C   C4144     1.0  0.75457  0.07424  0.14016  1.0000
  C   C4145     1.0  0.74078  0.30787  0.16772  1.0000
  H   H7043     1.0  0.75402  0.19703  0.99405  1.0000
  C   C4146     1.0  0.79175  0.99876  0.08429  1.0000
  C   C4147     1.0  0.77707  0.00314  0.08950  1.0000
  C   C4148     1.0  0.76780  0.99428  0.09058  1.0000
  C   C4149     1.0  0.95102  0.22001  0.12147  1.0000
  H   H7044     1.0  0.78450  0.29059  0.16765  1.0000
  H   H7045     1.0  0.77285  0.01335  0.09263  1.0000
  C   C4150     1.0  0.83838  0.01119  0.09026  1.0000
  C   C4151     1.0  0.87504  0.02725  0.13883  1.0000
  C   C4152     1.0  0.86937  0.02086  0.13136  1.0000
  H   H7046     1.0  0.87816  0.03740  0.13376  1.0000
  H   H7047     1.0  0.86814  0.02613  0.12053  1.0000
  C   C4153     1.0  0.77150  0.26067  0.05349  1.0000
  C   C4154     1.0  0.76234  0.18742  0.02937  1.0000
  H   H7048     1.0  0.75008  0.28784  0.07086  1.0000
  H   H7049     1.0  0.76698  0.18231  0.02004  1.0000
  H   H7050     1.0  0.76879  0.19526  0.02837  1.0000
  H   H7051     1.0  0.77928  0.14703  0.05806  1.0000
  C   C4155     1.0  0.80211  0.18824  0.00544  1.0000
  N   N296      1.0  0.77466  0.23794  0.01032  1.0000
  C   C4156     1.0  0.78342  0.23424  0.02160  1.0000
  H   H7052     1.0  0.77797  0.10088  0.18165  1.0000
  C   C4157     1.0  0.77244  0.22412  0.00853  1.0000
  C   C4158     1.0  0.76058  0.24750  0.01548  1.0000
  C   C4159     1.0  0.77797  0.22440  0.03607  1.0000
  H   H7053     1.0  0.73861  0.34258  0.22625  1.0000
  H   H7054     1.0  0.75509  0.10883  0.20641  1.0000
  C   C4160     1.0  0.75006  0.25282  0.00542  1.0000
  H   H7055     1.0  0.79463  0.22885  0.01742  1.0000
  H   H7056     1.0  0.78406  0.24409  0.02444  1.0000
  H   H7057     1.0  0.77782  0.28188  0.14887  1.0000
  H   H7058     1.0  0.85593  0.26487  0.22417  1.0000
  H   H7059     1.0  0.76123  0.23288  0.07979  1.0000
  H   H7060     1.0  0.76287  0.22096  0.01647  1.0000
  H   H7061     1.0  0.75472  0.24187  0.02573  1.0000
  H   H7062     1.0  0.76226  0.25706  0.01799  1.0000
  H   H7063     1.0  0.78529  0.22267  0.04332  1.0000
  H   H7064     1.0  0.76723  0.22930  0.04165  1.0000
  H   H7065     1.0  0.77794  0.21365  0.03488  1.0000
  H   H7066     1.0  0.78238  0.06938  0.19346  1.0000
  H   H7067     1.0  0.75490  0.31044  0.19477  1.0000
  C   C4161     1.0  0.77242  0.09821  0.17477  1.0000
  H   H7068     1.0  0.80686  0.08181  0.18922  1.0000
  H   H7069     1.0  0.78268  0.11175  0.15561  1.0000
  H   H7070     1.0  0.83697  0.99983  0.11279  1.0000
  C   C4162     1.0  0.75366  0.34470  0.10973  1.0000
  H   H7071     1.0  0.75589  0.17194  0.99334  1.0000
  H   H7072     1.0  0.77984  0.08872  0.17095  1.0000
  C   C4163     1.0  0.76347  0.36438  0.15669  1.0000
  C   C4164     1.0  0.76450  0.39649  0.13726  1.0000
  H   H7073     1.0  0.86857  0.01585  0.06405  1.0000
  S   S1213     1.0  0.74513  0.37958  0.21638  1.0000
  H   H7074     1.0  0.76159  0.35560  0.16622  1.0000
  H   H7075     1.0  0.76001  0.40322  0.14542  1.0000
  H   H7076     1.0  0.75687  0.38966  0.13902  1.0000
  H   H7077     1.0  0.87351  0.25090  0.03008  1.0000
  N   N297      1.0  0.85806  0.23660  0.15068  1.0000
  C   C4165     1.0  0.87132  0.22594  0.15441  1.0000
  C   C4166     1.0  0.84632  0.22844  0.15472  1.0000
  C   C4167     1.0  0.85407  0.24748  0.15991  1.0000
  C   C4168     1.0  0.86140  0.24353  0.13490  1.0000
  C   C4169     1.0  0.88490  0.23191  0.15125  1.0000
  C   C4170     1.0  0.84881  0.21656  0.14650  1.0000
  C   C4171     1.0  0.84109  0.25989  0.15758  1.0000
  C   C4172     1.0  0.84863  0.25086  0.12754  1.0000
  H   H7078     1.0  0.86927  0.22049  0.16599  1.0000
  H   H7079     1.0  0.87449  0.21727  0.14837  1.0000
  H   H7080     1.0  0.83583  0.23556  0.15351  1.0000
  H   H7081     1.0  0.84454  0.22326  0.16637  1.0000
  H   H7082     1.0  0.85200  0.24206  0.17151  1.0000
  H   H7083     1.0  0.86296  0.25281  0.15822  1.0000
  H   H7084     1.0  0.86774  0.25172  0.13304  1.0000
  H   H7085     1.0  0.86844  0.23544  0.12866  1.0000
  H   H7086     1.0  0.88400  0.23890  0.15854  1.0000
  H   H7087     1.0  0.89401  0.22274  0.15323  1.0000
  H   H7088     1.0  0.88787  0.23753  0.13988  1.0000
  H   H7089     1.0  0.85214  0.22030  0.13472  1.0000
  H   H7090     1.0  0.85679  0.20697  0.15031  1.0000
  H   H7091     1.0  0.83866  0.21298  0.14867  1.0000
  H   H7092     1.0  0.84320  0.26711  0.14683  1.0000
  H   H7093     1.0  0.83916  0.26661  0.16546  1.0000
  H   H7094     1.0  0.83110  0.25617  0.15948  1.0000
  H   H7095     1.0  0.85013  0.26168  0.12120  1.0000
  H   H7096     1.0  0.83797  0.25248  0.13476  1.0000
  H   H7097     1.0  0.84850  0.24483  0.11971  1.0000
  H   H7098     1.0  0.83031  0.01487  0.08359  1.0000
  H   H7099     1.0  0.87627  0.28948  0.03800  1.0000
  H   H7100     1.0  0.75586  0.30179  0.11704  1.0000
  N   N298      1.0  0.75225  0.32276  0.22097  1.0000
  N   N299      1.0  0.91792  0.29666  0.09594  1.0000
  C   C4173     1.0  0.91641  0.28309  0.10730  1.0000
  C   C4174     1.0  0.91838  0.29350  0.08178  1.0000
  C   C4175     1.0  0.90475  0.30803  0.09962  1.0000
  C   C4176     1.0  0.93129  0.30088  0.09612  1.0000
  C   C4177     1.0  0.91375  0.28428  0.12306  1.0000
  C   C4178     1.0  0.93042  0.28095  0.07730  1.0000
  C   C4179     1.0  0.90335  0.32266  0.08895  1.0000
  C   C4180     1.0  0.93825  0.31045  0.08219  1.0000
  H   H7101     1.0  0.90765  0.27869  0.10646  1.0000
  H   H7102     1.0  0.92619  0.27457  0.10566  1.0000
  H   H7103     1.0  0.91939  0.30289  0.07274  1.0000
  H   H7104     1.0  0.90809  0.29099  0.08200  1.0000
  H   H7105     1.0  0.89493  0.30407  0.10098  1.0000
  H   H7106     1.0  0.90407  0.31051  0.11008  1.0000
  H   H7107     1.0  0.92925  0.30639  0.10509  1.0000
  H   H7108     1.0  0.93982  0.29108  0.09837  1.0000
  H   H7109     1.0  0.90273  0.29024  0.12681  1.0000
  H   H7110     1.0  0.91471  0.27331  0.13005  1.0000
  H   H7111     1.0  0.92167  0.28922  0.12473  1.0000
  H   H7112     1.0  0.78750  0.01602  0.03769  1.0000
  H   H7113     1.0  0.77220  0.31759  0.16434  1.0000
  H   H7114     1.0  0.93137  0.28109  0.06585  1.0000
  H   H7115     1.0  0.91153  0.32836  0.08876  1.0000
  H   H7116     1.0  0.89281  0.32954  0.09269  1.0000
  H   H7117     1.0  0.90351  0.32187  0.07800  1.0000
  H   H7118     1.0  0.94285  0.31793  0.08514  1.0000
  H   H7119     1.0  0.93100  0.31714  0.07510  1.0000
  C   C4181     1.0  0.74753  0.28112  0.08181  1.0000
  N   N300      1.0  0.91734  0.14614  0.12748  1.0000
  C   C4182     1.0  0.92134  0.13351  0.12042  1.0000
  C   C4183     1.0  0.93086  0.15127  0.12524  1.0000
  C   C4184     1.0  0.90665  0.15766  0.12001  1.0000
  C   C4185     1.0  0.91082  0.14116  0.14316  1.0000
  C   C4186     1.0  0.90887  0.12720  0.12031  1.0000
  C   C4187     1.0  0.94247  0.14068  0.13282  1.0000
  C   C4188     1.0  0.90493  0.17319  0.12125  1.0000
  C   C4189     1.0  0.90809  0.15150  0.15317  1.0000
  H   H7120     1.0  0.92718  0.13638  0.10903  1.0000
  H   H7121     1.0  0.92881  0.12445  0.12575  1.0000
  H   H7122     1.0  0.92878  0.16137  0.12887  1.0000
  H   H7123     1.0  0.93577  0.15406  0.11355  1.0000
  H   H7124     1.0  0.90952  0.15806  0.10823  1.0000
  H   H7125     1.0  0.89582  0.15518  0.12393  1.0000
  H   H7126     1.0  0.90031  0.13860  0.14445  1.0000
  H   H7127     1.0  0.91724  0.13074  0.14791  1.0000
  H   H7128     1.0  0.90118  0.13502  0.11419  1.0000
  H   H7129     1.0  0.91328  0.11797  0.11494  1.0000
  H   H7130     1.0  0.90320  0.12283  0.13131  1.0000
  H   H7131     1.0  0.95153  0.14590  0.13089  1.0000
  H   H7132     1.0  0.93855  0.13777  0.14463  1.0000
  H   H7133     1.0  0.94697  0.13085  0.12847  1.0000
  H   H7134     1.0  0.90276  0.17428  0.13246  1.0000
  H   H7135     1.0  0.89574  0.18019  0.11666  1.0000
  H   H7136     1.0  0.91446  0.17753  0.11484  1.0000
  H   H7137     1.0  0.89709  0.15824  0.15404  1.0000
  H   H7138     1.0  0.91582  0.15847  0.15008  1.0000
  H   H7139     1.0  0.90932  0.14505  0.16405  1.0000
  N   N301      1.0  0.82649  0.22084  0.06763  1.0000
  C   C4190     1.0  0.82104  0.23044  0.07825  1.0000
  C   C4191     1.0  0.81390  0.21973  0.06268  1.0000
  C   C4192     1.0  0.83697  0.22690  0.05476  1.0000
  C   C4193     1.0  0.83402  0.20638  0.07484  1.0000
  C   C4194     1.0  0.83249  0.23425  0.08343  1.0000
  C   C4195     1.0  0.80378  0.21064  0.07373  1.0000
  C   C4196     1.0  0.83169  0.24245  0.04698  1.0000
  C   C4197     1.0  0.83975  0.19482  0.06571  1.0000
  H   H7140     1.0  0.81420  0.24068  0.07376  1.0000
  H   H7141     1.0  0.81390  0.22555  0.08807  1.0000
  H   H7142     1.0  0.81736  0.21544  0.05275  1.0000
  H   H7143     1.0  0.80715  0.23054  0.05948  1.0000
  H   H7144     1.0  0.84714  0.22634  0.05767  1.0000
  H   H7145     1.0  0.84007  0.22030  0.04657  1.0000
  H   H7146     1.0  0.84348  0.20739  0.07802  1.0000
  H   H7147     1.0  0.82715  0.20201  0.08521  1.0000
  H   H7148     1.0  0.82704  0.24181  0.09069  1.0000
  H   H7149     1.0  0.83862  0.22471  0.08976  1.0000
  H   H7150     1.0  0.83994  0.23978  0.07450  1.0000
  H   H7151     1.0  0.79444  0.21163  0.06922  1.0000
  H   H7152     1.0  0.80903  0.19909  0.07596  1.0000
  H   H7153     1.0  0.79950  0.21445  0.08389  1.0000
  H   H7154     1.0  0.83974  0.24528  0.03701  1.0000
  H   H7155     1.0  0.83038  0.25023  0.05358  1.0000
  H   H7156     1.0  0.82158  0.24382  0.04372  1.0000
  H   H7157     1.0  0.85153  0.19333  0.06185  1.0000
  H   H7158     1.0  0.83514  0.19727  0.05616  1.0000
  H   H7159     1.0  0.83735  0.18440  0.07234  1.0000
  H   H7160     1.0  0.92192  0.99690  0.16037  1.0000
  H   H7161     1.0  0.83612  0.98897  0.10132  1.0000
  S   S1214     1.0  0.84633  0.19545  0.00546  1.0000
  H   H7162     1.0  0.91461  0.00529  0.14489  1.0000
  C   C4198     1.0  0.89147  0.17270  0.18212  1.0000
  H   H7163     1.0  0.76185  0.07729  0.14444  1.0000
  C   C4199     1.0  0.76261  0.17658  0.04389  1.0000
  H   H7164     1.0  0.84614  0.26442  0.09743  1.0000
  H   H7165     1.0  0.83695  0.13404  0.17673  1.0000
  C   C4200     1.0  0.84069  0.13631  0.98447  1.0000
  H   H7166     1.0  0.87113  0.24716  0.19167  1.0000
  H   H7167     1.0  0.78070  0.06385  0.02311  1.0000
  S   S1215     1.0  0.76082  0.12486  0.98195  1.0000
  H   H7168     1.0  0.75563  0.28754  0.16691  1.0000
  H   H7169     1.0  0.77175  0.15810  0.07105  1.0000
  H   H7170     1.0  0.80807  0.02952  0.05409  1.0000
  H   H7171     1.0  0.83545  0.27928  0.07699  1.0000
  C   C4201     1.0  0.76525  0.31864  0.14417  1.0000
  H   H7172     1.0  0.89064  0.23737  0.21335  1.0000
  H   H7173     1.0  0.88377  0.00698  0.07858  1.0000
  H   H7174     1.0  0.83219  0.31786  0.07897  1.0000
  C   C4202     1.0  0.76815  0.32527  0.15519  1.0000
  C   C4203     1.0  0.83364  0.30841  0.07441  1.0000
  H   H7175     1.0  0.74334  0.07123  0.18904  1.0000
  C   C4204     1.0  0.80964  0.02890  0.04280  1.0000
  C   C4205     1.0  0.75146  0.30901  0.21791  1.0000
  C   C4206     1.0  0.80188  0.18985  0.98065  1.0000
  S   S1216     1.0  0.78378  0.24722  0.07644  1.0000
  H   H7176     1.0  0.77363  0.32040  0.13416  1.0000
  H   H7177     1.0  0.75514  0.32552  0.14120  1.0000
  C   C4207     1.0  0.87883  0.24086  0.21652  1.0000
  S   S1217     1.0  0.77722  0.14110  0.19137  1.0000
  C   C4208     1.0  0.74963  0.25653  0.05104  1.0000
  H   H7178     1.0  0.78344  0.36484  0.15992  1.0000
  H   H7179     1.0  0.84180  0.02439  0.15583  1.0000
  H   H7180     1.0  0.79785  0.04965  0.03439  1.0000
  H   H7181     1.0  0.77632  0.34225  0.10143  1.0000
  H   H7182     1.0  0.77553  0.04042  0.02426  1.0000
  C   C4209     1.0  0.76818  0.01572  0.05395  1.0000
  H   H7183     1.0  0.77633  0.33175  0.14954  1.0000
  N   N302      1.0  0.76420  0.30307  0.14877  1.0000
  H   H7184     1.0  0.75843  0.33295  0.15931  1.0000
  N   N303      1.0  0.82251  0.12405  0.16037  1.0000
  C   C4210     1.0  0.83100  0.11632  0.17181  1.0000
  C   C4211     1.0  0.81125  0.11577  0.16235  1.0000
  C   C4212     1.0  0.83273  0.12453  0.14592  1.0000
  C   C4213     1.0  0.84207  0.12379  0.17319  1.0000
  C   C4214     1.0  0.81675  0.10111  0.15803  1.0000
  C   C4215     1.0  0.82622  0.12968  0.13247  1.0000
  H   H7185     1.0  0.82371  0.11455  0.18260  1.0000
  H   H7186     1.0  0.83707  0.10550  0.17011  1.0000
  H   H7187     1.0  0.80304  0.12179  0.15608  1.0000
  H   H7188     1.0  0.80515  0.11403  0.17375  1.0000
  H   H7189     1.0  0.84013  0.13164  0.14444  1.0000
  H   H7190     1.0  0.83998  0.11381  0.14532  1.0000
  H   H7191     1.0  0.84775  0.11669  0.18165  1.0000
  H   H7192     1.0  0.76598  0.12097  0.16439  1.0000
  H   H7193     1.0  0.80400  0.08270  0.13466  1.0000
  H   H7194     1.0  0.80796  0.09523  0.16174  1.0000
  H   H7195     1.0  0.82007  0.10249  0.14619  1.0000
  H   H7196     1.0  0.82577  0.09417  0.16281  1.0000
  H   H7197     1.0  0.82672  0.14105  0.12738  1.0000
  H   H7198     1.0  0.81510  0.12853  0.13447  1.0000
  H   H7199     1.0  0.83249  0.12306  0.12449  1.0000
  S   S1218     1.0  0.82365  0.25998  0.99124  1.0000
  C   C4216     1.0  0.83296  0.99991  0.10340  1.0000
  C   C4217     1.0  0.81558  0.13894  0.16302  1.0000
  C   C4218     1.0  0.95071  0.25282  0.09801  1.0000
  C   C4219     1.0  0.80565  0.09455  0.20405  1.0000
  H   H7200     1.0  0.78218  0.35882  0.12527  1.0000
  C   C4220     1.0  0.81475  0.27449  0.02782  1.0000
  C   C4221     1.0  0.87109  0.21599  0.03706  1.0000
  C   C4222     1.0  0.76982  0.14993  0.06652  1.0000
  H   H7201     1.0  0.83179  0.28638  0.98742  1.0000
  H   H7202     1.0  0.82082  0.02330  0.15166  1.0000
  S   S1219     1.0  0.94763  0.24311  0.07568  1.0000
  C   C4223     1.0  0.73974  0.08161  0.18184  1.0000
  C   C4224     1.0  0.77118  0.06901  0.19406  1.0000
  C   C4225     1.0  0.75405  0.09810  0.10065  1.0000
  H   H7203     1.0  0.77668  0.26790  0.99930  1.0000
  H   H7204     1.0  0.88968  0.28789  0.04735  1.0000
  C   C4226     1.0  0.96630  0.21070  0.12112  1.0000
  H   H7205     1.0  0.75425  0.13851  0.03779  1.0000
  C   C4227     1.0  0.96343  0.20410  0.14722  1.0000
  H   H7206     1.0  0.74010  0.11861  0.10137  1.0000
  H   H7207     1.0  0.76107  0.15142  0.15169  1.0000
  H   H7208     1.0  0.83102  0.33849  0.22369  1.0000
  H   H7209     1.0  0.75307  0.33510  0.19076  1.0000
  C   C4228     1.0  0.76699  0.15435  0.03554  1.0000
  H   H7210     1.0  0.76013  0.27315  0.03699  1.0000
  C   C4229     1.0  0.83393  0.15332  0.20978  1.0000
  H   H7211     1.0  0.74119  0.30104  0.20597  1.0000
  C   C4230     1.0  0.76505  0.13883  0.03850  1.0000
  H   H7212     1.0  0.76583  0.15934  0.02426  1.0000
  Fe  Fe610     1.0  0.78240  0.12080  0.98713  1.0000
  C   C4231     1.0  0.86318  0.00220  0.09189  1.0000
  H   H7213     1.0  0.75074  0.08115  0.20402  1.0000
  N   N304      1.0  0.85320  0.00635  0.08172  1.0000
  C   C4232     1.0  0.74632  0.17759  0.99945  1.0000
  C   C4233     1.0  0.78884  0.29351  0.15594  1.0000
  S   S1220     1.0  0.78713  0.10119  0.20614  1.0000
  H   H7214     1.0  0.91697  0.13645  0.21937  1.0000
  H   H7215     1.0  0.85473  0.30091  0.07887  1.0000
  H   H7216     1.0  0.83927  0.14366  0.21616  1.0000
  C   C4234     1.0  0.87289  0.00718  0.15919  1.0000
  C   C4235     1.0  0.74181  0.33260  0.09987  1.0000
  C   C4236     1.0  0.82783  0.08135  0.19163  1.0000
  H   H7217     1.0  0.76741  0.37320  0.12731  1.0000
  H   H7218     1.0  0.86406  0.99283  0.06640  1.0000
  C   C4237     1.0  0.91644  0.13380  0.20943  1.0000
  H   H7219     1.0  0.83131  0.17387  0.99576  1.0000
  H   H7220     1.0  0.80439  0.23283  0.21959  1.0000
  H   H7221     1.0  0.80650  0.16852  0.22438  1.0000
  H   H7222     1.0  0.84928  0.03611  0.16084  1.0000
  H   H7223     1.0  0.87532  0.30343  0.04698  1.0000
  C   C4238     1.0  0.84052  0.17199  0.98666  1.0000
  C   C4239     1.0  0.83560  0.08625  0.19834  1.0000
  H   H7224     1.0  0.75830  0.37452  0.16041  1.0000
  S   S1221     1.0  0.74410  0.13633  0.14462  1.0000
  H   H7225     1.0  0.74033  0.31954  0.16511  1.0000
  H   H7226     1.0  0.89544  0.99815  0.13696  1.0000
  C   C4240     1.0  0.74245  0.16748  0.04216  1.0000
  C   C4241     1.0  0.79758  0.17679  0.98449  1.0000
  C   C4242     1.0  0.88725  0.12803  0.20377  1.0000
  C   C4243     1.0  0.86545  0.00764  0.13775  1.0000
  H   H7227     1.0  0.87416  0.00194  0.17002  1.0000
  H   H7228     1.0  0.73833  0.15778  0.04347  1.0000
  H   H7229     1.0  0.78308  0.39034  0.10947  1.0000
  Fe  Fe611     1.0  0.78705  0.05026  0.10998  1.0000
  H   H7230     1.0  0.85222  0.03476  0.05130  1.0000
  S   S1222     1.0  0.80384  0.00963  0.08213  1.0000
  C   C4244     1.0  0.80854  0.36895  0.14456  1.0000
  H   H7231     1.0  0.81836  0.07661  0.14373  1.0000
  C   C4245     1.0  0.95743  0.24782  0.08544  1.0000
  H   H7232     1.0  0.95000  0.23093  0.12289  1.0000
  H   H7233     1.0  0.76812  0.34265  0.18790  1.0000
  C   C4246     1.0  0.83660  0.16664  0.20906  1.0000
  H   H7234     1.0  0.82817  0.35564  0.21186  1.0000
  H   H7235     1.0  0.89996  0.98883  0.16104  1.0000
  C   C4247     1.0  0.81340  0.09891  0.21119  1.0000
  H   H7236     1.0  0.85860  0.14554  0.98105  1.0000
  S   S1223     1.0  0.85511  0.22669  0.99298  1.0000
  H   H7237     1.0  0.87291  0.14884  0.20204  1.0000
  C   C4248     1.0  0.74051  0.09990  0.07708  1.0000
  S   S1224     1.0  0.84778  0.23183  0.20575  1.0000
  C   C4249     1.0  0.88847  0.16774  0.19866  1.0000
  S   S1225     1.0  0.77697  0.05276  0.13253  1.0000
  C   C4250     1.0  0.84157  0.99292  0.07039  1.0000
  C   C4251     1.0  0.88465  0.14449  0.19899  1.0000
  H   H7238     1.0  0.79195  0.30400  0.15289  1.0000
  C   C4252     1.0  0.81722  0.16499  0.19412  1.0000
  H   H7239     1.0  0.85293  0.28133  0.19906  1.0000
  H   H7240     1.0  0.76664  0.10860  0.15371  1.0000
  H   H7241     1.0  0.75979  0.05534  0.06831  1.0000
  Fe  Fe612     1.0  0.78841  0.15241  0.19991  1.0000
  H   H7242     1.0  0.77279  0.13340  0.03016  1.0000
  H   H7243     1.0  0.80618  0.14922  0.14380  1.0000
  S   S1226     1.0  0.85862  0.00001  0.12784  1.0000
  S   S1227     1.0  0.77734  0.04618  0.09403  1.0000
  C   C4253     1.0  0.81284  0.08540  0.19458  1.0000
  C   C4254     1.0  0.97371  0.22519  0.13279  1.0000
  H   H7244     1.0  0.88744  0.14666  0.18706  1.0000
  H   H7245     1.0  0.73772  0.10457  0.19470  1.0000
  H   H7246     1.0  0.77734  0.24828  0.98761  1.0000
  H   H7247     1.0  0.87919  0.26622  0.22188  1.0000
  H   H7248     1.0  0.86211  0.27106  0.09014  1.0000
  H   H7249     1.0  0.78458  0.35176  0.15031  1.0000
  C   C4255     1.0  0.82012  0.17821  0.19320  1.0000
  H   H7250     1.0  0.83293  0.03181  0.17160  1.0000
  C   C4256     1.0  0.82959  0.17906  0.20084  1.0000
  C   C4257     1.0  0.75619  0.29907  0.16411  1.0000
  C   C4258     1.0  0.85462  0.99361  0.07553  1.0000
  N   N305      1.0  0.89271  0.15178  0.20460  1.0000
  H   H7251     1.0  0.89818  0.12292  0.19870  1.0000
  H   H7252     1.0  0.81473  0.18789  0.18688  1.0000
  H   H7253     1.0  0.76178  0.03670  0.07672  1.0000
  C   C4259     1.0  0.83907  0.03404  0.16036  1.0000
  N   N306      1.0  0.75696  0.16345  0.04573  1.0000
  Fe  Fe613     1.0  0.75625  0.14457  0.99095  1.0000
  C   C4260     1.0  0.77918  0.37049  0.12541  1.0000
  H   H7254     1.0  0.91425  0.15560  0.19805  1.0000
  H   H7255     1.0  0.77949  0.36214  0.22344  1.0000
  H   H7256     1.0  0.74752  0.09071  0.10836  1.0000
  H   H7257     1.0  0.87601  0.15160  0.22398  1.0000
  H   H7258     1.0  0.78509  0.03403  0.06565  1.0000
  H   H7259     1.0  0.87158  0.26540  0.18617  1.0000
  C   C4261     1.0  0.81846  0.03337  0.14349  1.0000
  Fe  Fe614     1.0  0.84839  0.21145  0.98435  1.0000
  C   C4262     1.0  0.77970  0.36312  0.15110  1.0000
  H   H7260     1.0  0.82692  0.04055  0.12027  1.0000
  H   H7261     1.0  0.83123  0.18943  0.20046  1.0000
  H   H7262     1.0  0.82105  0.32228  0.21815  1.0000
  H   H7263     1.0  0.87979  0.12425  0.19990  1.0000
  C   C4263     1.0  0.90867  0.14684  0.19962  1.0000
  C   C4264     1.0  0.77996  0.38852  0.13855  1.0000
  Fe  Fe615     1.0  0.75744  0.15058  0.20595  1.0000
  C   C4265     1.0  0.75571  0.15548  0.06118  1.0000
  C   C4266     1.0  0.85778  0.26051  0.21445  1.0000
  C   C4267     1.0  0.76328  0.32978  0.20942  1.0000
  H   H7264     1.0  0.79337  0.23816  0.99299  1.0000
  C   C4268     1.0  0.74144  0.14392  0.15931  1.0000
  H   H7265     1.0  0.77029  0.00381  0.05605  1.0000
  C   C4269     1.0  0.87638  0.25522  0.19276  1.0000
  S   S1228     1.0  0.82868  0.20733  0.22138  1.0000
  C   C4270     1.0  0.80848  0.07401  0.14307  1.0000
  H   H7266     1.0  0.80048  0.07436  0.15331  1.0000
  H   H7267     1.0  0.76451  0.40409  0.12666  1.0000
  S   S1229     1.0  0.82530  0.22243  0.98823  1.0000
  C   C4271     1.0  0.80067  0.36915  0.13313  1.0000
  C   C4272     1.0  0.82974  0.03188  0.12946  1.0000
  N   N307      1.0  0.87361  0.25589  0.20834  1.0000
  H   H7268     1.0  0.74566  0.30822  0.13933  1.0000
  C   C4273     1.0  0.92009  0.99481  0.15065  1.0000
  H   H7269     1.0  0.75643  0.99776  0.09448  1.0000
  H   H7270     1.0  0.80512  0.37918  0.14821  1.0000
  N   N308      1.0  0.78452  0.37309  0.13707  1.0000
  C   C4274     1.0  0.74600  0.31034  0.20443  1.0000
  H   H7271     1.0  0.85263  0.25116  0.21838  1.0000
  N   N309      1.0  0.85370  0.28841  0.06452  1.0000
  H   H7272     1.0  0.85033  0.12551  0.16316  1.0000
  H   H7273     1.0  0.81969  0.06062  0.12823  1.0000
  H   H7274     1.0  0.78706  0.39505  0.13018  1.0000
  S   S1230     1.0  0.86248  0.19989  0.22306  1.0000
  H   H7275     1.0  0.88980  0.18460  0.17922  1.0000
  H   H7276     1.0  0.82019  0.36744  0.13980  1.0000
  H   H7277     1.0  0.91175  0.12426  0.21230  1.0000
  H   H7278     1.0  0.75669  0.18255  0.05253  1.0000
  H   H7279     1.0  0.88504  0.99298  0.09419  1.0000
  H   H7280     1.0  0.76224  0.06581  0.02402  1.0000
  C   C4275     1.0  0.76741  0.33033  0.09225  1.0000
  S   S1231     1.0  0.73779  0.22180  0.04274  1.0000
  C   C4276     1.0  0.89222  0.25180  0.18497  1.0000
  H   H7281     1.0  0.80724  0.35979  0.15388  1.0000
  H   H7282     1.0  0.84632  0.12613  0.99052  1.0000
  C   C4277     1.0  0.75018  0.24484  0.06280  1.0000
  H   H7283     1.0  0.76175  0.29993  0.17193  1.0000
  H   H7284     1.0  0.94304  0.21477  0.13000  1.0000
  H   H7285     1.0  0.74319  0.17289  0.03068  1.0000
  H   H7286     1.0  0.76736  0.13236  0.04899  1.0000
  H   H7287     1.0  0.82764  0.24950  0.22620  1.0000
  H   H7288     1.0  0.76159  0.10277  0.04366  1.0000
  H   H7289     1.0  0.86353  0.99094  0.15694  1.0000
  H   H7290     1.0  0.79587  0.37408  0.10574  1.0000
  H   H7291     1.0  0.78489  0.04462  0.17484  1.0000
  H   H7292     1.0  0.77825  0.37769  0.10286  1.0000
  H   H7293     1.0  0.84741  0.26674  0.19605  1.0000
  H   H7294     1.0  0.80444  0.35840  0.13041  1.0000
  H   H7295     1.0  0.93066  0.99104  0.14393  1.0000
  C   C4278     1.0  0.77076  0.06082  0.03022  1.0000
  C   C4279     1.0  0.78452  0.37875  0.11005  1.0000
  C   C4280     1.0  0.79112  0.04645  0.16358  1.0000
  C   C4281     1.0  0.75610  0.30038  0.13930  1.0000
  C   C4282     1.0  0.85150  0.27806  0.04422  1.0000
  H   H7296     1.0  0.81109  0.13834  0.17475  1.0000
  H   H7297     1.0  0.83017  0.02162  0.12678  1.0000
  H   H7298     1.0  0.88514  0.12417  0.21559  1.0000
  H   H7299     1.0  0.82829  0.31225  0.06520  1.0000
  H   H7300     1.0  0.76122  0.04257  0.03891  1.0000
  H   H7301     1.0  0.77390  0.17344  0.04512  1.0000
  H   H7302     1.0  0.80491  0.37673  0.12328  1.0000
  H   H7303     1.0  0.85672  0.98348  0.08375  1.0000
  S   S1232     1.0  0.78096  0.27894  0.09344  1.0000
  H   H7304     1.0  0.83871  0.04983  0.14036  1.0000
  H   H7305     1.0  0.84496  0.18181  0.98244  1.0000
  Fe  Fe616     1.0  0.84851  0.19123  0.21488  1.0000
  H   H7306     1.0  0.82809  0.30070  0.08295  1.0000
  C   C4283     1.0  0.87874  0.28138  0.20200  1.0000
  C   C4284     1.0  0.74994  0.15580  0.17252  1.0000
  H   H7307     1.0  0.75788  0.16088  0.17331  1.0000
  H   H7308     1.0  0.74445  0.11550  0.17823  1.0000
  H   H7309     1.0  0.81223  0.25607  0.02199  1.0000
  H   H7310     1.0  0.85415  0.31077  0.06115  1.0000
  H   H7311     1.0  0.78987  0.03821  0.15873  1.0000
  H   H7312     1.0  0.75224  0.11781  0.08453  1.0000
  H   H7313     1.0  0.74930  0.10428  0.06883  1.0000
  C   C4285     1.0  0.95849  0.25759  0.10493  1.0000
  Fe  Fe617     1.0  0.78869  0.26853  0.07457  1.0000
  C   C4286     1.0  0.76113  0.24148  0.07029  1.0000
  H   H7314     1.0  0.79334  0.25788  0.00451  1.0000
  C   C4287     1.0  0.78301  0.24548  0.99649  1.0000
  C   C4288     1.0  0.77883  0.04162  0.05788  1.0000
  H   H7315     1.0  0.80200  0.05870  0.13576  1.0000
  H   H7316     1.0  0.80791  0.10546  0.21894  1.0000
  S   S1233     1.0  0.80475  0.16436  0.18505  1.0000
  H   H7317     1.0  0.82194  0.14223  0.20310  1.0000
  N   N310      1.0  0.81707  0.04640  0.14916  1.0000
  C   C4289     1.0  0.81171  0.05959  0.13856  1.0000
  H   H7318     1.0  0.89273  0.25122  0.17381  1.0000
  S   S1234     1.0  0.98234  0.26358  0.10847  1.0000
  H   H7319     1.0  0.94749  0.30384  0.07597  1.0000
  C   C4290     1.0  0.83127  0.04738  0.15095  1.0000
  H   H7320     1.0  0.78246  0.05181  0.05575  1.0000
  C   C4291     1.0  0.77217  0.04439  0.03441  1.0000
  C   C4292     1.0  0.84844  0.02518  0.05857  1.0000
  H   H7321     1.0  0.86165  0.27044  0.04588  1.0000
  H   H7322     1.0  0.74619  0.24384  0.00429  1.0000
  H   H7323     1.0  0.78002  0.26641  0.04950  1.0000
  H   H7324     1.0  0.98361  0.23851  0.13942  1.0000
  C   C4293     1.0  0.76302  0.04437  0.06613  1.0000
  N   N311      1.0  0.78226  0.03623  0.04425  1.0000
  N   N312      1.0  0.97290  0.21005  0.13333  1.0000
  H   H7325     1.0  0.75020  0.14649  0.06363  1.0000
  H   H7326     1.0  0.87737  0.28259  0.19101  1.0000
  S   S1235     1.0  0.76832  0.16362  0.21274  1.0000
  H   H7327     1.0  0.76215  0.12006  0.18952  1.0000
  H   H7328     1.0  0.81155  0.01751  0.04220  1.0000
  C   C4294     1.0  0.76092  0.08335  0.19658  1.0000
  H   H7329     1.0  0.79930  0.03635  0.02498  1.0000
  C   C4295     1.0  0.84804  0.29106  0.05124  1.0000
  H   H7330     1.0  0.82999  0.05649  0.15598  1.0000
  C   C4296     1.0  0.77881  0.29322  0.14680  1.0000
  H   H7331     1.0  0.80011  0.15868  0.15786  1.0000
  C   C4297     1.0  0.79703  0.03834  0.03600  1.0000
  C   C4298     1.0  0.77168  0.11059  0.16140  1.0000
  C   C4299     1.0  0.75494  0.32677  0.09176  1.0000
  H   H7332     1.0  0.76920  0.13995  0.07499  1.0000
  H   H7333     1.0  0.76767  0.06566  0.03975  1.0000
  H   H7334     1.0  0.78939  0.01434  0.05544  1.0000
  H   H7335     1.0  0.90267  0.16837  0.17702  1.0000
  C   C4300     1.0  0.75170  0.15054  0.16028  1.0000
  C   C4301     1.0  0.75848  0.33991  0.19593  1.0000
  H   H7336     1.0  0.97754  0.24287  0.07063  1.0000
  H   H7337     1.0  0.96327  0.23119  0.13805  1.0000
  C   C4302     1.0  0.78256  0.02038  0.04758  1.0000
  H   H7338     1.0  0.98517  0.18345  0.12215  1.0000
  H   H7339     1.0  0.80056  0.24807  0.22717  1.0000
  H   H7340     1.0  0.76290  0.01852  0.06447  1.0000
  H   H7341     1.0  0.76807  0.06014  0.20309  1.0000
  H   H7342     1.0  0.83773  0.27503  0.21070  1.0000
  H   H7343     1.0  0.78615  0.05723  0.15797  1.0000
  H   H7344     1.0  0.74795  0.09839  0.16558  1.0000
  H   H7345     1.0  0.94815  0.22122  0.11108  1.0000
  H   H7346     1.0  0.94098  0.28147  0.07848  1.0000
  C   C4303     1.0  0.97222  0.24685  0.08030  1.0000
  H   H7347     1.0  0.83785  0.02080  0.09426  1.0000
  H   H7348     1.0  0.92786  0.27051  0.08357  1.0000
  C   C4304     1.0  0.96875  0.20130  0.16112  1.0000
  C   C4305     1.0  0.76040  0.26429  0.04625  1.0000
  H   H7349     1.0  0.75347  0.28957  0.14343  1.0000
  C   C4306     1.0  0.76673  0.33943  0.10112  1.0000
  H   H7350     1.0  0.85717  0.02782  0.07498  1.0000
  H   H7351     1.0  0.89124  0.13775  0.22592  1.0000
  S   S1236     1.0  0.75297  0.41115  0.21161  1.0000
  H   H7352     1.0  0.76046  0.08198  0.16769  1.0000
  H   H7353     1.0  0.91124  0.14420  0.18888  1.0000
  H   H7354     1.0  0.77078  0.06616  0.18422  1.0000
  H   H7355     1.0  0.80712  0.05349  0.16915  1.0000
  H   H7356     1.0  0.87445  0.23296  0.21387  1.0000
  C   C4307     1.0  0.85742  0.01886  0.07011  1.0000
  C   C4308     1.0  0.87924  0.99765  0.08532  1.0000
  H   H7357     1.0  0.83430  0.09835  0.21376  1.0000
  H   H7358     1.0  0.77262  0.32151  0.20556  1.0000
  C   C4309     1.0  0.84725  0.27684  0.07566  1.0000
  H   H7359     1.0  0.78791  0.33571  0.22545  1.0000
  C   C4310     1.0  0.80686  0.04525  0.16363  1.0000
  H   H7360     1.0  0.88390  0.16997  0.17752  1.0000
  H   H7361     1.0  0.79890  0.28541  0.15360  1.0000
  H   H7362     1.0  0.81016  0.03474  0.17086  1.0000
  H   H7363     1.0  0.83490  0.98609  0.07890  1.0000
  H   H7364     1.0  0.90454  0.15848  0.22346  1.0000
  C   C4311     1.0  0.85052  0.27380  0.09060  1.0000
  C   C4312     1.0  0.88170  0.26565  0.21039  1.0000
  H   H7365     1.0  0.80247  0.36045  0.22161  1.0000
  H   H7366     1.0  0.80477  0.31560  0.22479  1.0000
  C   C4313     1.0  0.80416  0.19554  0.99105  1.0000
  H   H7367     1.0  0.75133  0.19359  0.02876  1.0000
  C   C4314     1.0  0.88790  0.14920  0.22074  1.0000
  H   H7368     1.0  0.87402  0.28435  0.07053  1.0000
  H   H7369     1.0  0.88660  0.16920  0.22693  1.0000
  H   H7370     1.0  0.85105  0.26647  0.07210  1.0000
  H   H7371     1.0  0.78159  0.21512  0.01078  1.0000
  H   H7372     1.0  0.76281  0.23246  0.98924  1.0000
  C   C4315     1.0  0.76367  0.30133  0.12333  1.0000
  H   H7373     1.0  0.75514  0.04355  0.06069  1.0000
  H   H7374     1.0  0.76202  0.09236  0.09268  1.0000
  H   H7375     1.0  0.83619  0.29434  0.05380  1.0000
  C   C4316     1.0  0.84976  0.30219  0.06970  1.0000
  H   H7376     1.0  0.84540  0.28293  0.09596  1.0000
  H   H7377     1.0  0.79348  0.14326  0.16005  1.0000
  H   H7378     1.0  0.74407  0.12478  0.19873  1.0000
  H   H7379     1.0  0.83698  0.02895  0.06314  1.0000
  C   C4317     1.0  0.74531  0.19179  0.99999  1.0000
  H   H7380     1.0  0.85266  0.28189  0.03240  1.0000
  H   H7381     1.0  0.91304  0.99630  0.12645  1.0000
  H   H7382     1.0  0.86188  0.01120  0.09715  1.0000
  H   H7383     1.0  0.96600  0.21124  0.16525  1.0000
  H   H7384     1.0  0.86920  0.28788  0.20797  1.0000
  C   C4318     1.0  0.87805  0.29171  0.04764  1.0000
  H   H7385     1.0  0.87317  0.27195  0.06144  1.0000
  C   C4319     1.0  0.86977  0.28352  0.06161  1.0000
  H   H7386     1.0  0.76811  0.31107  0.11867  1.0000
  H   H7387     1.0  0.82365  0.14570  0.15985  1.0000
  C   C4320     1.0  0.84865  0.27157  0.20435  1.0000
  C   C4321     1.0  0.74118  0.34149  0.10887  1.0000
  H   H7388     1.0  0.79109  0.19346  0.22730  1.0000
  H   H7389     1.0  0.76763  0.33645  0.21381  1.0000
  C   C4322     1.0  0.73792  0.33309  0.22276  1.0000
  H   H7390     1.0  0.75147  0.35017  0.19840  1.0000
  C   C4323     1.0  0.75213  0.08931  0.17394  1.0000
  H   H7391     1.0  0.76018  0.10099  0.10681  1.0000
  H   H7392     1.0  0.95283  0.21160  0.14899  1.0000
  S   S1237     1.0  0.75953  0.13186  0.22465  1.0000
  H   H7393     1.0  0.74688  0.28710  0.08996  1.0000
  H   H7394     1.0  0.78145  0.22350  0.98572  1.0000
  H   H7395     1.0  0.76222  0.30176  0.21644  1.0000
  H   H7396     1.0  0.86055  0.99297  0.10074  1.0000
  C   C4324     1.0  0.98522  0.22699  0.13942  1.0000
  C   C4325     1.0  0.75278  0.11558  0.19602  1.0000
  H   H7397     1.0  0.89345  0.26124  0.20811  1.0000
  H   H7398     1.0  0.74562  0.08918  0.08279  1.0000
  N   N313      1.0  0.75833  0.09459  0.18326  1.0000
  C   C4326     1.0  0.77106  0.22360  0.99357  1.0000
  H   H7399     1.0  0.75667  0.27179  0.08285  1.0000
  H   H7400     1.0  0.76578  0.08732  0.20311  1.0000
  H   H7401     1.0  0.84837  0.16308  0.99150  1.0000
  C   C4327     1.0  0.79710  0.98543  0.08036  1.0000
  C   C4328     1.0  0.74044  0.08211  0.14105  1.0000
  H   H7402     1.0  0.78049  0.31406  0.22645  1.0000
  H   H7403     1.0  0.80755  0.20555  0.98786  1.0000
  C   C4329     1.0  0.74777  0.10756  0.18772  1.0000
  C   C4330     1.0  0.74480  0.11189  0.09321  1.0000
  H   H7404     1.0  0.83339  0.14230  0.99257  1.0000
  H   H7405     1.0  0.96064  0.19414  0.14679  1.0000
  H   H7406     1.0  0.97314  0.21474  0.11056  1.0000
  H   H7407     1.0  0.74508  0.30263  0.22729  1.0000
  H   H7408     1.0  0.96350  0.19317  0.16945  1.0000
  C   C4331     1.0  0.98014  0.25119  0.08748  1.0000
  H   H7409     1.0  0.89505  0.99759  0.11337  1.0000
  H   H7410     1.0  0.98483  0.22088  0.15063  1.0000
  C   C4332     1.0  0.80833  0.34903  0.22341  1.0000
  C   C4333     1.0  0.73791  0.15446  0.18371  1.0000
  H   H7411     1.0  0.96554  0.19987  0.12079  1.0000
  H   H7412     1.0  0.74047  0.26019  0.01029  1.0000
  H   H7413     1.0  0.97590  0.23135  0.12145  1.0000
  C   C4334     1.0  0.91065  0.98364  0.15537  1.0000
  C   C4335     1.0  0.89947  0.98717  0.12008  1.0000
  Fe  Fe618     1.0  0.84298  0.21739  0.22742  1.0000
  C   C4336     1.0  0.82391  0.34932  0.22261  1.0000
  H   H7414     1.0  0.78163  0.26463  0.22613  1.0000
  H   H7415     1.0  0.78438  0.18343  0.21942  1.0000
  H   H7416     1.0  0.98237  0.17947  0.14158  1.0000
  H   H7417     1.0  0.98031  0.19656  0.15998  1.0000
  H   H7418     1.0  0.79259  0.26399  0.98610  1.0000
  H   H7419     1.0  0.88148  0.98927  0.07911  1.0000
  H   H7420     1.0  0.83440  0.13328  0.97861  1.0000
  H   H7421     1.0  0.81338  0.27403  0.22787  1.0000
  C   C4337     1.0  0.81406  0.31705  0.22781  1.0000
  H   H7422     1.0  0.88022  0.24493  0.23689  1.0000
  H   H7423     1.0  0.75547  0.32618  0.30504  1.0000
  H   H7424     1.0  0.75495  0.40015  0.29460  1.0000
  H   H7425     1.0  0.74042  0.43949  0.45098  1.0000
  H   H7426     1.0  0.77263  0.18282  0.26911  1.0000
  H   H7427     1.0  0.82465  0.35473  0.23067  1.0000
  H   H7428     1.0  0.75466  0.17485  0.26066  1.0000
  S   S1238     1.0  0.74727  0.29628  0.30107  1.0000
  C   C4338     1.0  0.77212  0.30972  0.23516  1.0000
  C   C4339     1.0  0.80028  0.23659  0.22980  1.0000
  C   C4340     1.0  0.81186  0.18017  0.24345  1.0000
  C   C4341     1.0  0.75395  0.32763  0.31580  1.0000
  C   C4342     1.0  0.74970  0.33130  0.34379  1.0000
  C   C4343     1.0  0.77533  0.26647  0.23677  1.0000
  H   H7429     1.0  0.77274  0.25625  0.27079  1.0000
  H   H7430     1.0  0.78285  0.19240  0.25370  1.0000
  N   N314      1.0  0.77681  0.23968  0.24964  1.0000
  H   H7431     1.0  0.81932  0.32466  0.24369  1.0000
  C   C4344     1.0  0.74703  0.16817  0.26309  1.0000
  S   S1239     1.0  0.83620  0.22458  0.24835  1.0000
  H   H7432     1.0  0.78998  0.34680  0.27190  1.0000
  Fe  Fe619     1.0  0.78163  0.28927  0.27161  1.0000
  S   S1240     1.0  0.76029  0.28778  0.26964  1.0000
  S   S1241     1.0  0.79941  0.28720  0.25194  1.0000
  Fe  Fe620     1.0  0.76948  0.29711  0.30081  1.0000
  H   H7433     1.0  0.76720  0.27653  0.23468  1.0000
  S   S1242     1.0  0.77258  0.30145  0.32068  1.0000
  Fe  Fe621     1.0  0.75761  0.27631  0.29276  1.0000
  C   C4345     1.0  0.73865  0.25988  0.27883  1.0000
  Fe  Fe622     1.0  0.75190  0.30780  0.27818  1.0000
  C   C4346     1.0  0.76708  0.22978  0.25893  1.0000
  S   S1243     1.0  0.77972  0.27604  0.29420  1.0000
  S   S1244     1.0  0.77344  0.31043  0.27830  1.0000
  H   H7434     1.0  0.75636  0.27217  0.34415  1.0000
  H   H7435     1.0  0.81394  0.17715  0.26583  1.0000
  H   H7436     1.0  0.82353  0.18961  0.25271  1.0000
  C   C4347     1.0  0.74745  0.34455  0.27256  1.0000
  H   H7437     1.0  0.79419  0.24721  0.25227  1.0000
  H   H7438     1.0  0.76065  0.25383  0.23833  1.0000
  H   H7439     1.0  0.81008  0.34656  0.25115  1.0000
  Fe  Fe623     1.0  0.74503  0.39419  0.23010  1.0000
  C   C4348     1.0  0.74476  0.34003  0.31996  1.0000
  C   C4349     1.0  0.75094  0.35805  0.26877  1.0000
  C   C4350     1.0  0.73795  0.34199  0.26598  1.0000
  H   H7440     1.0  0.73922  0.34812  0.31234  1.0000
  H   H7441     1.0  0.77321  0.23779  0.28060  1.0000
  S   S1245     1.0  0.75149  0.38472  0.25128  1.0000
  H   H7442     1.0  0.75861  0.35990  0.27354  1.0000
  H   H7443     1.0  0.78425  0.16269  0.26056  1.0000
  C   C4351     1.0  0.76127  0.31720  0.32554  1.0000
  H   H7444     1.0  0.80331  0.31835  0.24943  1.0000
  H   H7445     1.0  0.74811  0.33269  0.35460  1.0000
  C   C4352     1.0  0.78670  0.24013  0.25848  1.0000
  C   C4353     1.0  0.79942  0.34718  0.24927  1.0000
  H   H7446     1.0  0.77345  0.21937  0.26390  1.0000
  C   C4354     1.0  0.76758  0.25427  0.24518  1.0000
  C   C4355     1.0  0.79770  0.16978  0.23399  1.0000
  H   H7447     1.0  0.77966  0.34100  0.26353  1.0000
  H   H7448     1.0  0.78211  0.26844  0.24286  1.0000
  C   C4356     1.0  0.82598  0.24205  0.24904  1.0000
  H   H7449     1.0  0.74344  0.26290  0.34307  1.0000
  H   H7450     1.0  0.82030  0.30609  0.23150  1.0000
  C   C4357     1.0  0.80945  0.26976  0.25098  1.0000
  C   C4358     1.0  0.81179  0.25948  0.26344  1.0000
  C   C4359     1.0  0.82014  0.24571  0.26246  1.0000
  C   C4360     1.0  0.77578  0.35436  0.23331  1.0000
  H   H7451     1.0  0.75977  0.23438  0.26804  1.0000
  H   H7452     1.0  0.80739  0.26221  0.27384  1.0000
  H   H7453     1.0  0.82204  0.23785  0.27215  1.0000
  H   H7454     1.0  0.77661  0.18427  0.23767  1.0000
  C   C4361     1.0  0.74156  0.14599  0.26287  1.0000
  C   C4362     1.0  0.75144  0.15460  0.25974  1.0000
  H   H7455     1.0  0.78823  0.18673  0.27079  1.0000
  H   H7456     1.0  0.81964  0.18006  0.23297  1.0000
  H   H7457     1.0  0.77477  0.30922  0.24546  1.0000
  C   C4363     1.0  0.82030  0.17927  0.25468  1.0000
  H   H7458     1.0  0.83033  0.17088  0.25361  1.0000
  H   H7459     1.0  0.74028  0.42080  0.45805  1.0000
  C   C4364     1.0  0.80868  0.14082  0.25052  1.0000
  C   C4365     1.0  0.79215  0.16875  0.26033  1.0000
  S   S1246     1.0  0.76942  0.14822  0.25217  1.0000
  Fe  Fe624     1.0  0.77207  0.14420  0.23037  1.0000
  C   C4366     1.0  0.87518  0.23847  0.23309  1.0000
  C   C4367     1.0  0.74245  0.34178  0.33403  1.0000
  H   H7460     1.0  0.74235  0.26972  0.27478  1.0000
  C   C4368     1.0  0.75929  0.31917  0.33946  1.0000
  C   C4369     1.0  0.81436  0.15432  0.24867  1.0000
  H   H7461     1.0  0.76017  0.25788  0.25473  1.0000
  N   N315      1.0  0.80371  0.16853  0.24677  1.0000
  H   H7462     1.0  0.79363  0.22929  0.26132  1.0000
  C   C4370     1.0  0.78663  0.33986  0.23514  1.0000
  H   H7463     1.0  0.75632  0.32900  0.23850  1.0000
  C   C4371     1.0  0.77950  0.24529  0.27263  1.0000
  H   H7464     1.0  0.76506  0.31121  0.34697  1.0000
  H   H7465     1.0  0.79684  0.16303  0.26990  1.0000
  H   H7466     1.0  0.81880  0.15249  0.25831  1.0000
  H   H7467     1.0  0.86349  0.24055  0.23765  1.0000
  H   H7468     1.0  0.74271  0.29539  0.33247  1.0000
  H   H7469     1.0  0.78792  0.24574  0.27772  1.0000
  C   C4372     1.0  0.75693  0.31905  0.23502  1.0000
  C   C4373     1.0  0.74815  0.27250  0.33842  1.0000
  C   C4374     1.0  0.78374  0.18364  0.26331  1.0000
  H   H7470     1.0  0.74954  0.23589  0.24731  1.0000
  H   H7471     1.0  0.75085  0.21882  0.25931  1.0000
  C   C4375     1.0  0.74505  0.36890  0.25829  1.0000
  H   H7472     1.0  0.82372  0.15430  0.23940  1.0000
  H   H7473     1.0  0.78148  0.33227  0.24436  1.0000
  H   H7474     1.0  0.74805  0.39349  0.28361  1.0000
  H   H7475     1.0  0.74494  0.28131  0.36319  1.0000
  H   H7476     1.0  0.74726  0.38477  0.30241  1.0000
  H   H7477     1.0  0.81681  0.13111  0.25383  1.0000
  H   H7478     1.0  0.75216  0.33612  0.28049  1.0000
  H   H7479     1.0  0.74498  0.13544  0.26041  1.0000
  C   C4376     1.0  0.81534  0.26616  0.23753  1.0000
  C   C4377     1.0  0.75730  0.22623  0.25135  1.0000
  S   S1247     1.0  0.74791  0.25704  0.30328  1.0000
  C   C4378     1.0  0.78524  0.23353  0.23664  1.0000
  C   C4379     1.0  0.79074  0.34055  0.26391  1.0000
  H   H7480     1.0  0.80787  0.23052  0.23686  1.0000
  H   H7481     1.0  0.79604  0.32934  0.26808  1.0000
  C   C4380     1.0  0.82347  0.25228  0.23657  1.0000
  H   H7482     1.0  0.77281  0.29854  0.23470  1.0000
  H   H7483     1.0  0.79456  0.35887  0.24666  1.0000
  H   H7484     1.0  0.76556  0.35262  0.23243  1.0000
  H   H7485     1.0  0.79210  0.16103  0.23579  1.0000
  H   H7486     1.0  0.79872  0.14040  0.25893  1.0000
  H   H7487     1.0  0.87945  0.22701  0.23768  1.0000
  H   H7488     1.0  0.89190  0.15320  0.23966  1.0000
  H   H7489     1.0  0.80490  0.19103  0.24191  1.0000
  H   H7490     1.0  0.80697  0.13996  0.24024  1.0000
  H   H7491     1.0  0.75394  0.27172  0.32725  1.0000
  H   H7492     1.0  0.78713  0.22158  0.23939  1.0000
  H   H7493     1.0  0.74971  0.31304  0.24380  1.0000
  H   H7494     1.0  0.76337  0.22073  0.24248  1.0000
  H   H7495     1.0  0.73903  0.43656  0.22815  1.0000
  H   H7496     1.0  0.74321  0.29940  0.35473  1.0000
  C   C4381     1.0  0.74621  0.39525  0.29460  1.0000
  C   C4382     1.0  0.80950  0.32508  0.24020  1.0000
  C   C4383     1.0  0.73998  0.25167  0.29251  1.0000
  C   C4384     1.0  0.78687  0.18368  0.22959  1.0000
  H   H7497     1.0  0.77911  0.23712  0.22796  1.0000
  N   N316      1.0  0.80097  0.34029  0.23702  1.0000
  H   H7498     1.0  0.77328  0.35926  0.24269  1.0000
  C   C4385     1.0  0.89314  0.15806  0.22799  1.0000
  H   H7499     1.0  0.92085  0.22296  0.70425  1.0000
  S   S1248     1.0  0.77391  0.13830  0.59874  1.0000
  H   H7500     1.0  0.80720  0.01178  0.72079  1.0000
  Fe  Fe625     1.0  0.77318  0.16398  0.62205  1.0000
  S   S1249     1.0  0.79359  0.14994  0.61300  1.0000
  S   S1250     1.0  0.77218  0.17822  0.63632  1.0000
  Fe  Fe626     1.0  0.78496  0.15661  0.59292  1.0000
  S   S1251     1.0  0.79860  0.16258  0.57090  1.0000
  Fe  Fe627     1.0  0.78072  0.13303  0.61969  1.0000
  S   S1252     1.0  0.78746  0.11094  0.63282  1.0000
  S   S1253     1.0  0.76569  0.17235  0.60146  1.0000
  S   S1254     1.0  0.76092  0.14664  0.63037  1.0000
  Fe  Fe628     1.0  0.84720  0.08478  0.67305  1.0000
  S   S1255     1.0  0.86707  0.06856  0.67732  1.0000
  S   S1256     1.0  0.84631  0.09804  0.65074  1.0000
  Fe  Fe629     1.0  0.85223  0.05506  0.69289  1.0000
  Fe  Fe630     1.0  0.86493  0.07938  0.69527  1.0000
  S   S1257     1.0  0.88553  0.08496  0.69570  1.0000
  S   S1258     1.0  0.83254  0.07042  0.68703  1.0000
  S   S1259     1.0  0.84585  0.09636  0.68989  1.0000
  C   C4386     1.0  0.84043  0.26404  0.56368  1.0000
  N   N317      1.0  0.84820  0.23791  0.57768  1.0000
  H   H7501     1.0  0.98677  0.11034  0.71262  1.0000
  H   H7502     1.0  0.85572  0.16206  0.72026  1.0000
  H   H7503     1.0  0.95959  0.18802  0.70194  1.0000
  C   C4387     1.0  0.84931  0.25340  0.57426  1.0000
  S   S1260     1.0  0.76399  0.20130  0.52410  1.0000
  C   C4388     1.0  0.89731  0.23879  0.71890  1.0000
  Fe  Fe631     1.0  0.92002  0.16947  0.70219  1.0000
  H   H7504     1.0  0.77170  0.47709  0.58042  1.0000
  S   S1261     1.0  0.91499  0.18773  0.68382  1.0000
  H   H7505     1.0  0.79811  0.15112  0.64598  1.0000
  H   H7506     1.0  0.80004  0.22993  0.62139  1.0000
  H   H7507     1.0  0.78662  0.44515  0.58911  1.0000
  H   H7508     1.0  0.87407  0.17555  0.70244  1.0000
  S   S1262     1.0  0.92901  0.14634  0.70132  1.0000
  Fe  Fe632     1.0  0.79169  0.28258  0.56857  1.0000
  S   S1263     1.0  0.80083  0.30232  0.56025  1.0000
  S   S1264     1.0  0.79388  0.26710  0.55507  1.0000
  Fe  Fe633     1.0  0.77928  0.28816  0.59809  1.0000
  S   S1265     1.0  0.78719  0.30844  0.59271  1.0000
  S   S1266     1.0  0.76734  0.28095  0.62049  1.0000
  Fe  Fe634     1.0  0.77985  0.31305  0.57224  1.0000
  S   S1267     1.0  0.76775  0.33507  0.56369  1.0000
  Fe  Fe635     1.0  0.80742  0.29618  0.58133  1.0000
  S   S1268     1.0  0.82848  0.29965  0.58214  1.0000
  S   S1269     1.0  0.76999  0.29390  0.57865  1.0000
  S   S1270     1.0  0.80025  0.27534  0.58860  1.0000
  Fe  Fe636     1.0  0.83386  0.20937  0.62983  1.0000
  S   S1271     1.0  0.85749  0.20663  0.62624  1.0000
  S   S1272     1.0  0.82642  0.20519  0.61237  1.0000
  Fe  Fe637     1.0  0.82787  0.22109  0.65668  1.0000
  S   S1273     1.0  0.85121  0.21909  0.65507  1.0000
  S   S1274     1.0  0.81150  0.23100  0.67397  1.0000
  Fe  Fe638     1.0  0.85192  0.22827  0.63162  1.0000
  S   S1275     1.0  0.86359  0.24567  0.61844  1.0000
  Fe  Fe639     1.0  0.85399  0.19783  0.65000  1.0000
  S   S1276     1.0  0.86668  0.17740  0.66094  1.0000
  S   S1277     1.0  0.82843  0.23154  0.63360  1.0000
  S   S1278     1.0  0.83056  0.19898  0.65334  1.0000
  H   H7509     1.0  0.75983  0.36821  0.55983  1.0000
  H   H7510     1.0  0.77951  0.45248  0.63554  1.0000
  H   H7511     1.0  0.76463  0.14380  0.69289  1.0000
  H   H7512     1.0  0.75401  0.28605  0.50801  1.0000
  H   H7513     1.0  0.77899  0.44646  0.61189  1.0000
  S   S1279     1.0  0.85398  0.24316  0.70259  1.0000
  H   H7514     1.0  0.76435  0.10963  0.67422  1.0000
  H   H7515     1.0  0.80139  0.28995  0.71171  1.0000
  H   H7516     1.0  0.89264  0.24610  0.72657  1.0000
  H   H7517     1.0  0.83842  0.20575  0.68470  1.0000
  H   H7518     1.0  0.77508  0.16579  0.66609  1.0000
  S   S1280     1.0  0.74422  0.24025  0.52980  1.0000
  Fe  Fe640     1.0  0.75896  0.33416  0.68328  1.0000
  S   S1281     1.0  0.77554  0.34539  0.68334  1.0000
  S   S1282     1.0  0.76992  0.42010  0.59697  1.0000
  Fe  Fe641     1.0  0.76426  0.34043  0.65096  1.0000
  S   S1283     1.0  0.78221  0.35117  0.64787  1.0000
  S   S1284     1.0  0.75474  0.34178  0.63254  1.0000
  Fe  Fe642     1.0  0.78898  0.33364  0.66617  1.0000
  S   S1285     1.0  0.81122  0.32015  0.66642  1.0000
  Fe  Fe643     1.0  0.76726  0.36200  0.66510  1.0000
  C   C4389     1.0  0.76100  0.00332  0.71234  1.0000
  S   S1286     1.0  0.77275  0.32152  0.66717  1.0000
  C   C4390     1.0  0.77623  0.03489  0.72472  1.0000
  H   H7519     1.0  0.87221  0.15882  0.72526  1.0000
  H   H7520     1.0  0.80773  0.29565  0.64171  1.0000
  H   H7521     1.0  0.76909  0.39036  0.60985  1.0000
  H   H7522     1.0  0.82517  0.29266  0.65697  1.0000
  C   C4391     1.0  0.75412  0.34678  0.54123  1.0000
  H   H7523     1.0  0.83564  0.30710  0.61029  1.0000
  C   C4392     1.0  0.74148  0.46742  0.61600  1.0000
  C   C4393     1.0  0.76582  0.38825  0.63273  1.0000
  C   C4394     1.0  0.85622  0.21575  0.56617  1.0000
  H   H7524     1.0  0.79247  0.33678  0.57759  1.0000
  S   S1287     1.0  0.93446  0.17039  0.71533  1.0000
  C   C4395     1.0  0.82245  0.30656  0.71071  1.0000
  C   C4396     1.0  0.81330  0.31981  0.70684  1.0000
  C   C4397     1.0  0.80987  0.32409  0.69325  1.0000
  C   C4398     1.0  0.81576  0.31524  0.68336  1.0000
  C   C4399     1.0  0.82523  0.30215  0.68710  1.0000
  C   C4400     1.0  0.82850  0.29778  0.70075  1.0000
  C   C4401     1.0  0.80773  0.02024  0.71068  1.0000
  H   H7525     1.0  0.80290  0.33437  0.69036  1.0000
  H   H7526     1.0  0.82982  0.29522  0.67958  1.0000
  H   H7527     1.0  0.83580  0.28766  0.70355  1.0000
  H   H7528     1.0  0.73938  0.01504  0.71851  1.0000
  H   H7529     1.0  0.84103  0.17866  0.70875  1.0000
  C   C4402     1.0  0.76667  0.16164  0.67497  1.0000
  C   C4403     1.0  0.82112  0.23777  0.68189  1.0000
  C   C4404     1.0  0.81806  0.23631  0.69681  1.0000
  C   C4405     1.0  0.82772  0.23887  0.70326  1.0000
  C   C4406     1.0  0.84054  0.24251  0.69478  1.0000
  C   C4407     1.0  0.84309  0.24480  0.67986  1.0000
  C   C4408     1.0  0.83315  0.24290  0.67341  1.0000
  H   H7530     1.0  0.80875  0.23233  0.70341  1.0000
  H   H7531     1.0  0.82572  0.23710  0.71484  1.0000
  H   H7532     1.0  0.85296  0.24767  0.67332  1.0000
  H   H7533     1.0  0.83514  0.24475  0.66185  1.0000
  C   C4409     1.0  0.75991  0.29738  0.62550  1.0000
  C   C4410     1.0  0.76026  0.29887  0.63897  1.0000
  C   C4411     1.0  0.75774  0.31262  0.64153  1.0000
  C   C4412     1.0  0.75497  0.32477  0.63063  1.0000
  C   C4413     1.0  0.75344  0.32325  0.61761  1.0000
  C   C4414     1.0  0.75591  0.30953  0.61505  1.0000
  H   H7534     1.0  0.76334  0.28949  0.64705  1.0000
  H   H7535     1.0  0.75830  0.31379  0.65179  1.0000
  H   H7536     1.0  0.75591  0.26772  0.51731  1.0000
  C   C4415     1.0  0.78583  0.25499  0.72318  1.0000
  C   C4416     1.0  0.83803  0.28489  0.59257  1.0000
  C   C4417     1.0  0.83085  0.27585  0.60404  1.0000
  C   C4418     1.0  0.83862  0.26401  0.61227  1.0000
  C   C4419     1.0  0.85358  0.26086  0.60878  1.0000
  C   C4420     1.0  0.86074  0.27011  0.59746  1.0000
  C   C4421     1.0  0.85297  0.28219  0.58945  1.0000
  H   H7537     1.0  0.81929  0.27815  0.60674  1.0000
  H   H7538     1.0  0.83298  0.25762  0.62150  1.0000
  H   H7539     1.0  0.87230  0.26789  0.59483  1.0000
  H   H7540     1.0  0.85854  0.28925  0.58064  1.0000
  C   C4422     1.0  0.76352  0.33501  0.54764  1.0000
  C   C4423     1.0  0.76950  0.32320  0.54121  1.0000
  C   C4424     1.0  0.76633  0.32329  0.52828  1.0000
  H   H7541     1.0  0.77668  0.31402  0.54610  1.0000
  H   H7542     1.0  0.79697  0.22516  0.64727  1.0000
  H   H7543     1.0  0.74945  0.40261  0.49379  1.0000
  C   C4425     1.0  0.90273  0.18432  0.67621  1.0000
  C   C4426     1.0  0.89850  0.17119  0.68108  1.0000
  C   C4427     1.0  0.88784  0.16890  0.67583  1.0000
  C   C4428     1.0  0.88128  0.17980  0.66582  1.0000
  C   C4429     1.0  0.88585  0.19275  0.66054  1.0000
  C   C4430     1.0  0.89657  0.19502  0.66576  1.0000
  H   H7544     1.0  0.90321  0.16288  0.68914  1.0000
  H   H7545     1.0  0.88436  0.15885  0.67994  1.0000
  H   H7546     1.0  0.88098  0.20112  0.65263  1.0000
  H   H7547     1.0  0.89988  0.20516  0.66192  1.0000
  H   H7548     1.0  0.81858  0.27799  0.64471  1.0000
  H   H7549     1.0  0.87423  0.18365  0.71624  1.0000
  C   C4431     1.0  0.76897  0.26076  0.57292  1.0000
  C   C4432     1.0  0.77760  0.26185  0.55904  1.0000
  C   C4433     1.0  0.77360  0.25790  0.54852  1.0000
  H   H7550     1.0  0.89348  0.23819  0.69814  1.0000
  H   H7551     1.0  0.87676  0.22032  0.58020  1.0000
  H   H7552     1.0  0.77219  0.26345  0.58121  1.0000
  H   H7553     1.0  0.78028  0.25870  0.53779  1.0000
  H   H7554     1.0  0.86624  0.21090  0.55929  1.0000
  C   C4434     1.0  0.83724  0.03137  0.67887  1.0000
  C   C4435     1.0  0.83039  0.02483  0.67261  1.0000
  H   H7555     1.0  0.83545  0.04291  0.67686  1.0000
  H   H7556     1.0  0.82331  0.03139  0.66564  1.0000
  C   C4436     1.0  0.88747  0.09797  0.70381  1.0000
  C   C4437     1.0  0.87618  0.10457  0.71344  1.0000
  C   C4438     1.0  0.84142  0.00138  0.68471  1.0000
  C   C4439     1.0  0.89173  0.11815  0.71672  1.0000
  C   C4440     1.0  0.90291  0.11186  0.70677  1.0000
  C   C4441     1.0  0.90081  0.10172  0.70048  1.0000
  C   C4442     1.0  0.76776  0.21837  0.67014  1.0000
  H   H7557     1.0  0.91327  0.11450  0.70424  1.0000
  H   H7558     1.0  0.90964  0.09663  0.69309  1.0000
  C   C4443     1.0  0.78721  0.18573  0.62975  1.0000
  C   C4444     1.0  0.79150  0.19177  0.63856  1.0000
  C   C4445     1.0  0.80373  0.19756  0.63334  1.0000
  C   C4446     1.0  0.81148  0.19752  0.61925  1.0000
  C   C4447     1.0  0.80717  0.19149  0.61045  1.0000
  C   C4448     1.0  0.79505  0.18554  0.61572  1.0000
  H   H7559     1.0  0.78553  0.19169  0.64949  1.0000
  H   H7560     1.0  0.80714  0.20207  0.64018  1.0000
  H   H7561     1.0  0.81338  0.19117  0.59967  1.0000
  H   H7562     1.0  0.79180  0.18080  0.60892  1.0000
  C   C4449     1.0  0.78865  0.17200  0.55779  1.0000
  C   C4450     1.0  0.77385  0.17675  0.56169  1.0000
  H   H7563     1.0  0.79809  0.14629  0.66453  1.0000
  N   N318      1.0  0.89649  0.22357  0.72669  1.0000
  C   C4451     1.0  0.78796  0.18419  0.53302  1.0000
  C   C4452     1.0  0.79566  0.17551  0.54337  1.0000
  S   S1288     1.0  0.96657  0.14029  0.71115  1.0000
  C   C4453     1.0  0.84842  0.00794  0.69083  1.0000
  H   H7564     1.0  0.79347  0.18705  0.52192  1.0000
  H   H7565     1.0  0.80711  0.17172  0.54026  1.0000
  C   C4454     1.0  0.80336  0.10861  0.63823  1.0000
  C   C4455     1.0  0.80506  0.09997  0.65169  1.0000
  C   C4456     1.0  0.81795  0.09742  0.65596  1.0000
  C   C4457     1.0  0.82941  0.10296  0.64653  1.0000
  C   C4458     1.0  0.82763  0.11181  0.63316  1.0000
  C   C4459     1.0  0.81456  0.11476  0.62906  1.0000
  H   H7566     1.0  0.79641  0.09518  0.65877  1.0000
  H   H7567     1.0  0.81915  0.09077  0.66635  1.0000
  H   H7568     1.0  0.83645  0.11616  0.62583  1.0000
  H   H7569     1.0  0.81336  0.12129  0.61857  1.0000
  H   H7570     1.0  0.75815  0.24974  0.54371  1.0000
  H   H7571     1.0  0.84758  0.28513  0.61959  1.0000
  H   H7572     1.0  0.84693  0.21454  0.56287  1.0000
  C   C4460     1.0  0.76727  0.39592  0.61835  1.0000
  H   H7573     1.0  0.79566  0.24835  0.65053  1.0000
  S   S1289     1.0  0.76202  0.38606  0.66188  1.0000
  C   C4461     1.0  0.85232  0.29507  0.64786  1.0000
  N   N319      1.0  0.85548  0.19235  0.70699  1.0000
  C   C4462     1.0  0.86254  0.20293  0.69485  1.0000
  C   C4463     1.0  0.84618  0.18703  0.70085  1.0000
  C   C4464     1.0  0.86714  0.17999  0.71178  1.0000
  C   C4465     1.0  0.84725  0.19989  0.71904  1.0000
  C   C4466     1.0  0.96519  0.18384  0.71099  1.0000
  C   C4467     1.0  0.91780  0.21246  0.70816  1.0000
  H   H7574     1.0  0.74983  0.25472  0.58703  1.0000
  H   H7575     1.0  0.81243  0.04799  0.72177  1.0000
  H   H7576     1.0  0.74194  0.42073  0.49525  1.0000
  H   H7577     1.0  0.79269  0.06922  0.69271  1.0000
  C   C4468     1.0  0.86249  0.16725  0.72345  1.0000
  H   H7578     1.0  0.76458  0.01267  0.70439  1.0000
  C   C4469     1.0  0.74337  0.41303  0.48856  1.0000
  H   H7579     1.0  0.74932  0.30049  0.53214  1.0000
  H   H7580     1.0  0.75795  0.99723  0.70626  1.0000
  H   H7581     1.0  0.87056  0.21240  0.70793  1.0000
  H   H7582     1.0  0.76346  0.44865  0.63400  1.0000
  H   H7583     1.0  0.74367  0.46441  0.62688  1.0000
  C   C4470     1.0  0.77690  0.45754  0.61354  1.0000
  H   H7584     1.0  0.78605  0.11288  0.67398  1.0000
  H   H7585     1.0  0.74830  0.37984  0.54808  1.0000
  C   C4471     1.0  0.75472  0.46296  0.60438  1.0000
  S   S1290     1.0  0.90246  0.16512  0.72120  1.0000
  C   C4472     1.0  0.73840  0.34698  0.71151  1.0000
  H   H7586     1.0  0.88415  0.19978  0.69844  1.0000
  H   H7587     1.0  0.74344  0.35586  0.52355  1.0000
  H   H7588     1.0  0.75710  0.16287  0.67078  1.0000
  H   H7589     1.0  0.87486  0.22578  0.72442  1.0000
  C   C4473     1.0  0.76279  0.41019  0.64038  1.0000
  H   H7590     1.0  0.89532  0.21480  0.70929  1.0000
  H   H7591     1.0  0.81954  0.33206  0.57278  1.0000
  C   C4474     1.0  0.74520  0.20893  0.63259  1.0000
  H   H7592     1.0  0.76372  0.42920  0.62350  1.0000
  C   C4475     1.0  0.83250  0.00981  0.67542  1.0000
  S   S1291     1.0  0.75001  0.44640  0.56709  1.0000
  C   C4476     1.0  0.90231  0.21314  0.71686  1.0000
  H   H7593     1.0  0.74975  0.25117  0.66780  1.0000
  Fe  Fe644     1.0  0.83285  0.08063  0.70441  1.0000
  H   H7594     1.0  0.80339  0.00538  0.70082  1.0000
  H   H7595     1.0  0.75615  0.21104  0.62882  1.0000
  C   C4477     1.0  0.75970  0.13273  0.67449  1.0000
  S   S1292     1.0  0.82279  0.26496  0.72538  1.0000
  C   C4478     1.0  0.74211  0.20277  0.62138  1.0000
  C   C4479     1.0  0.75070  0.25494  0.65608  1.0000
  C   C4480     1.0  0.81292  0.34238  0.56815  1.0000
  H   H7596     1.0  0.86690  0.23358  0.56055  1.0000
  H   H7597     1.0  0.82215  0.29035  0.62751  1.0000
  H   H7598     1.0  0.86824  0.26688  0.65139  1.0000
  H   H7599     1.0  0.79335  0.26447  0.69632  1.0000
  H   H7600     1.0  0.87480  0.23802  0.58335  1.0000
  C   C4481     1.0  0.76330  0.24590  0.64712  1.0000
  N   N320      1.0  0.87790  0.12605  0.66221  1.0000
  C   C4482     1.0  0.86704  0.12461  0.67627  1.0000
  C   C4483     1.0  0.87570  0.11700  0.65337  1.0000
  C   C4484     1.0  0.87615  0.14138  0.65389  1.0000
  C   C4485     1.0  0.89262  0.12119  0.66540  1.0000
  C   C4486     1.0  0.86625  0.13458  0.68608  1.0000
  C   C4487     1.0  0.88078  0.10067  0.65828  1.0000
  C   C4488     1.0  0.86115  0.14854  0.65079  1.0000
  C   C4489     1.0  0.90524  0.12155  0.65220  1.0000
  H   H7601     1.0  0.85610  0.12637  0.67448  1.0000
  H   H7602     1.0  0.86920  0.11347  0.68279  1.0000
  H   H7603     1.0  0.88093  0.12008  0.64184  1.0000
  H   H7604     1.0  0.86416  0.11886  0.65338  1.0000
  H   H7605     1.0  0.87903  0.14816  0.65941  1.0000
  H   H7606     1.0  0.88379  0.14220  0.64327  1.0000
  H   H7607     1.0  0.89410  0.12806  0.67177  1.0000
  H   H7608     1.0  0.89413  0.11030  0.67255  1.0000
  H   H7609     1.0  0.86327  0.14611  0.68097  1.0000
  H   H7610     1.0  0.85784  0.13246  0.69594  1.0000
  H   H7611     1.0  0.87633  0.13244  0.68973  1.0000
  H   H7612     1.0  0.89254  0.09733  0.65703  1.0000
  H   H7613     1.0  0.87552  0.09678  0.66954  1.0000
  H   H7614     1.0  0.87781  0.09517  0.65156  1.0000
  H   H7615     1.0  0.86131  0.15956  0.64416  1.0000
  H   H7616     1.0  0.85291  0.14967  0.66077  1.0000
  H   H7617     1.0  0.85794  0.14274  0.64456  1.0000
  H   H7618     1.0  0.90845  0.13205  0.64909  1.0000
  H   H7619     1.0  0.90293  0.11960  0.64273  1.0000
  H   H7620     1.0  0.91449  0.11285  0.65487  1.0000
  H   H7621     1.0  0.78254  0.26079  0.64169  1.0000
  H   H7622     1.0  0.74946  0.35591  0.54609  1.0000
  C   C4490     1.0  0.76654  0.41072  0.61499  1.0000
  C   C4491     1.0  0.78346  0.12105  0.68054  1.0000
  H   H7623     1.0  0.86167  0.29144  0.62158  1.0000
  C   C4492     1.0  0.78388  0.25230  0.65157  1.0000
  H   H7624     1.0  0.76376  0.21249  0.58370  1.0000
  C   C4493     1.0  0.77472  0.23118  0.66764  1.0000
  H   H7625     1.0  0.87471  0.22272  0.59787  1.0000
  H   H7626     1.0  0.76828  0.17378  0.57266  1.0000
  H   H7627     1.0  0.92543  0.20475  0.71447  1.0000
  H   H7628     1.0  0.80496  0.13266  0.65415  1.0000
  H   H7629     1.0  0.76804  0.23758  0.67560  1.0000
  H   H7630     1.0  0.86588  0.10177  0.71615  1.0000
  H   H7631     1.0  0.86059  0.25444  0.56970  1.0000
  C   C4494     1.0  0.83288  0.23656  0.58140  1.0000
  C   C4495     1.0  0.82348  0.24243  0.59457  1.0000
  H   H7632     1.0  0.85201  0.21934  0.59518  1.0000
  H   H7633     1.0  0.85043  0.23581  0.59933  1.0000
  H   H7634     1.0  0.82770  0.24184  0.57211  1.0000
  H   H7635     1.0  0.83223  0.22510  0.58380  1.0000
  H   H7636     1.0  0.82640  0.23543  0.60459  1.0000
  H   H7637     1.0  0.81215  0.24249  0.59534  1.0000
  H   H7638     1.0  0.82422  0.25345  0.59401  1.0000
  N   N321      1.0  0.79192  0.21168  0.56446  1.0000
  C   C4496     1.0  0.78044  0.21480  0.55609  1.0000
  C   C4497     1.0  0.78687  0.20265  0.57903  1.0000
  C   C4498     1.0  0.80552  0.20343  0.55650  1.0000
  C   C4499     1.0  0.79386  0.22585  0.56541  1.0000
  C   C4500     1.0  0.78449  0.22129  0.53983  1.0000
  C   C4501     1.0  0.77322  0.20990  0.58848  1.0000
  C   C4502     1.0  0.81679  0.19416  0.56520  1.0000
  C   C4503     1.0  0.80409  0.22551  0.57465  1.0000
  H   H7639     1.0  0.77691  0.20486  0.55710  1.0000
  H   H7640     1.0  0.77069  0.22230  0.56052  1.0000
  H   H7641     1.0  0.79508  0.19904  0.58552  1.0000
  H   H7642     1.0  0.78500  0.19252  0.57784  1.0000
  H   H7643     1.0  0.80301  0.19577  0.55174  1.0000
  H   H7644     1.0  0.81094  0.21082  0.54726  1.0000
  H   H7645     1.0  0.79791  0.23213  0.55456  1.0000
  H   H7646     1.0  0.78345  0.23283  0.56921  1.0000
  H   H7647     1.0  0.77492  0.22370  0.53522  1.0000
  H   H7648     1.0  0.78799  0.23149  0.53754  1.0000
  H   H7649     1.0  0.78382  0.26933  0.66136  1.0000
  H   H7650     1.0  0.81996  0.20014  0.57123  1.0000
  H   H7651     1.0  0.82659  0.18989  0.55768  1.0000
  H   H7652     1.0  0.81307  0.18465  0.57270  1.0000
  H   H7653     1.0  0.81521  0.22461  0.56821  1.0000
  H   H7654     1.0  0.80370  0.21696  0.58455  1.0000
  H   H7655     1.0  0.80078  0.23568  0.57850  1.0000
  H   H7656     1.0  0.84917  0.29130  0.65974  1.0000
  H   H7657     1.0  0.80973  0.04598  0.69195  1.0000
  C   C4504     1.0  0.84982  0.29290  0.62435  1.0000
  H   H7658     1.0  0.77112  0.27166  0.69222  1.0000
  N   N322      1.0  0.83452  0.06173  0.63118  1.0000
  C   C4505     1.0  0.82011  0.05822  0.63356  1.0000
  C   C4506     1.0  0.84549  0.05067  0.62380  1.0000
  C   C4507     1.0  0.83412  0.07639  0.62132  1.0000
  C   C4508     1.0  0.83703  0.06169  0.64550  1.0000
  C   C4509     1.0  0.80700  0.06882  0.64008  1.0000
  C   C4510     1.0  0.84636  0.03491  0.63217  1.0000
  C   C4511     1.0  0.84794  0.08206  0.61682  1.0000
  C   C4512     1.0  0.85271  0.05894  0.64683  1.0000
  H   H7659     1.0  0.81825  0.05735  0.62328  1.0000
  H   H7660     1.0  0.81961  0.04758  0.64100  1.0000
  H   H7661     1.0  0.85640  0.05262  0.62124  1.0000
  H   H7662     1.0  0.84337  0.05138  0.61315  1.0000
  H   H7663     1.0  0.83097  0.07669  0.61129  1.0000
  H   H7664     1.0  0.82589  0.08468  0.62642  1.0000
  H   H7665     1.0  0.83128  0.07195  0.64878  1.0000
  H   H7666     1.0  0.83233  0.05327  0.65394  1.0000
  H   H7667     1.0  0.80814  0.07072  0.65015  1.0000
  H   H7668     1.0  0.80472  0.07918  0.63230  1.0000
  H   H7669     1.0  0.79739  0.06421  0.64282  1.0000
  H   H7670     1.0  0.84689  0.03341  0.64350  1.0000
  H   H7671     1.0  0.83724  0.03076  0.63184  1.0000
  H   H7672     1.0  0.85620  0.02804  0.62703  1.0000
  H   H7673     1.0  0.85061  0.08402  0.62613  1.0000
  H   H7674     1.0  0.84615  0.09268  0.60928  1.0000
  H   H7675     1.0  0.85712  0.07506  0.61107  1.0000
  H   H7676     1.0  0.85320  0.06564  0.65389  1.0000
  H   H7677     1.0  0.86049  0.06162  0.63670  1.0000
  H   H7678     1.0  0.85639  0.04769  0.65246  1.0000
  C   C4513     1.0  0.85061  0.31145  0.64471  1.0000
  C   C4514     1.0  0.84348  0.30791  0.61592  1.0000
  H   H7679     1.0  0.86403  0.29080  0.64488  1.0000
  H   H7680     1.0  0.85584  0.31566  0.63347  1.0000
  H   H7681     1.0  0.85613  0.31397  0.65171  1.0000
  H   H7682     1.0  0.83935  0.31728  0.64724  1.0000
  H   H7683     1.0  0.85214  0.31193  0.60724  1.0000
  H   H7684     1.0  0.83857  0.31625  0.62226  1.0000
  C   C4515     1.0  0.78152  0.13939  0.65848  1.0000
  N   N323      1.0  0.78506  0.28141  0.70843  1.0000
  C   C4516     1.0  0.79039  0.29376  0.70965  1.0000
  C   C4517     1.0  0.79613  0.27418  0.69727  1.0000
  H   H7685     1.0  0.76444  0.12157  0.65669  1.0000
  C   C4518     1.0  0.77084  0.28749  0.70419  1.0000
  C   C4519     1.0  0.75247  0.27892  0.51886  1.0000
  C   C4520     1.0  0.79876  0.28332  0.68182  1.0000
  H   H7686     1.0  0.80871  0.32671  0.71444  1.0000
  C   C4521     1.0  0.76411  0.27688  0.70099  1.0000
  H   H7687     1.0  0.75114  0.33261  0.60920  1.0000
  H   H7688     1.0  0.79117  0.30204  0.69944  1.0000
  H   H7689     1.0  0.96393  0.17260  0.71543  1.0000
  C   C4522     1.0  0.97586  0.14145  0.72335  1.0000
  H   H7690     1.0  0.75144  0.01694  0.72735  1.0000
  H   H7691     1.0  0.74608  0.20927  0.61074  1.0000
  H   H7692     1.0  0.76276  0.29228  0.71279  1.0000
  H   H7693     1.0  0.77167  0.29651  0.69459  1.0000
  C   C4523     1.0  0.78718  0.23064  0.64291  1.0000
  H   H7694     1.0  0.97662  0.18401  0.70633  1.0000
  H   H7695     1.0  0.82742  0.20515  0.70263  1.0000
  H   H7696     1.0  0.80676  0.27656  0.67475  1.0000
  H   H7697     1.0  0.78897  0.28713  0.67742  1.0000
  H   H7698     1.0  0.80331  0.29252  0.68103  1.0000
  S   S1293     1.0  0.81122  0.08798  0.71801  1.0000
  H   H7699     1.0  0.85285  0.18159  0.69200  1.0000
  C   C4524     1.0  0.79222  0.23804  0.62705  1.0000
  H   H7700     1.0  0.89224  0.25568  0.70056  1.0000
  N   N324      1.0  0.77695  0.24021  0.65252  1.0000
  H   H7701     1.0  0.82707  0.19334  0.69210  1.0000
  N   N325      1.0  0.79651  0.34672  0.59257  1.0000
  C   C4525     1.0  0.79764  0.34544  0.57745  1.0000
  C   C4526     1.0  0.78106  0.34761  0.60026  1.0000
  C   C4527     1.0  0.80587  0.33342  0.59978  1.0000
  C   C4528     1.0  0.80159  0.35999  0.59159  1.0000
  C   C4529     1.0  0.95828  0.19327  0.72221  1.0000
  C   C4530     1.0  0.77030  0.36074  0.59411  1.0000
  C   C4531     1.0  0.80191  0.32902  0.61635  1.0000
  C   C4532     1.0  0.79965  0.36457  0.60577  1.0000
  H   H7702     1.0  0.77029  0.99662  0.71687  1.0000
  H   H7703     1.0  0.79179  0.35543  0.57128  1.0000
  H   H7704     1.0  0.77940  0.34770  0.61173  1.0000
  H   H7705     1.0  0.77759  0.33781  0.60043  1.0000
  H   H7706     1.0  0.80592  0.32385  0.59601  1.0000
  H   H7707     1.0  0.81724  0.33439  0.59668  1.0000
  H   H7708     1.0  0.79676  0.36942  0.58396  1.0000
  H   H7709     1.0  0.84209  0.27042  0.65735  1.0000
  H   H7710     1.0  0.74507  0.20103  0.64302  1.0000
  H   H7711     1.0  0.76927  0.36023  0.58344  1.0000
  H   H7712     1.0  0.75963  0.36072  0.60144  1.0000
  H   H7713     1.0  0.77298  0.37102  0.59353  1.0000
  H   H7714     1.0  0.79190  0.32491  0.62008  1.0000
  H   H7715     1.0  0.80083  0.33782  0.62160  1.0000
  H   H7716     1.0  0.81044  0.32007  0.62015  1.0000
  H   H7717     1.0  0.78953  0.36312  0.61354  1.0000
  H   H7718     1.0  0.79903  0.37631  0.60341  1.0000
  C   C4533     1.0  0.87123  0.22773  0.58755  1.0000
  H   H7719     1.0  0.91900  0.20871  0.69825  1.0000
  H   H7720     1.0  0.86902  0.26804  0.63255  1.0000
  H   H7721     1.0  0.78234  0.22196  0.64256  1.0000
  C   C4534     1.0  0.85486  0.22999  0.59041  1.0000
  H   H7722     1.0  0.84616  0.25760  0.58417  1.0000
  S   S1294     1.0  0.85523  0.03089  0.69584  1.0000
  H   H7723     1.0  0.78333  0.24236  0.62131  1.0000
  C   C4535     1.0  0.84643  0.02297  0.68786  1.0000
  C   C4536     1.0  0.80005  0.04635  0.70087  1.0000
  H   H7724     1.0  0.84321  0.26115  0.55310  1.0000
  H   H7725     1.0  0.77456  0.21968  0.59081  1.0000
  C   C4537     1.0  0.73990  0.14655  0.54092  1.0000
  H   H7726     1.0  0.98073  0.20226  0.71912  1.0000
  H   H7727     1.0  0.78783  0.45960  0.61114  1.0000
  C   C4538     1.0  0.75688  0.33502  0.52192  1.0000
  H   H7728     1.0  0.81322  0.35858  0.58670  1.0000
  S   S1295     1.0  0.85176  0.06434  0.71139  1.0000
  H   H7729     1.0  0.85465  0.20082  0.72516  1.0000
  H   H7730     1.0  0.77097  0.20231  0.59899  1.0000
  H   H7731     1.0  0.90847  0.24009  0.71456  1.0000
  H   H7732     1.0  0.86743  0.19830  0.68517  1.0000
  H   H7733     1.0  0.82552  0.30696  0.64190  1.0000
  H   H7734     1.0  0.74348  0.13476  0.54461  1.0000
  H   H7735     1.0  0.76525  0.25293  0.63623  1.0000
  H   H7736     1.0  0.80879  0.35891  0.61100  1.0000
  H   H7737     1.0  0.80661  0.27027  0.70055  1.0000
  H   H7738     1.0  0.86335  0.25350  0.64618  1.0000
  N   N326      1.0  0.76807  0.46792  0.60333  1.0000
  H   H7739     1.0  0.84210  0.26841  0.64009  1.0000
  C   C4539     1.0  0.87425  0.20826  0.69795  1.0000
  C   C4540     1.0  0.75563  0.15183  0.56208  1.0000
  C   C4541     1.0  0.84711  0.27332  0.64571  1.0000
  H   H7740     1.0  0.75326  0.13112  0.68572  1.0000
  C   C4542     1.0  0.88980  0.24500  0.70617  1.0000
  H   H7741     1.0  0.79776  0.24668  0.62591  1.0000
  H   H7742     1.0  0.82877  0.26522  0.56815  1.0000
  H   H7743     1.0  0.85630  0.20925  0.57719  1.0000
  N   N327      1.0  0.84440  0.28946  0.64043  1.0000
  C   C4543     1.0  0.76103  0.25284  0.55186  1.0000
  H   H7744     1.0  0.85061  0.23766  0.55543  1.0000
  C   C4544     1.0  0.79653  0.14244  0.65577  1.0000
  Fe  Fe645     1.0  0.75527  0.15358  0.60885  1.0000
  H   H7745     1.0  0.76552  0.21343  0.68183  1.0000
  C   C4545     1.0  0.83414  0.19862  0.69481  1.0000
  C   C4546     1.0  0.81887  0.28933  0.63929  1.0000
  C   C4547     1.0  0.75069  0.34673  0.52846  1.0000
  C   C4548     1.0  0.87835  0.11451  0.71995  1.0000
  C   C4549     1.0  0.85581  0.23179  0.56460  1.0000
  H   H7746     1.0  0.84266  0.27486  0.56177  1.0000
  C   C4550     1.0  0.82854  0.29513  0.64502  1.0000
  C   C4551     1.0  0.86290  0.26522  0.64374  1.0000
  H   H7747     1.0  0.75133  0.26643  0.65278  1.0000
  C   C4552     1.0  0.77699  0.46829  0.58823  1.0000
  H   H7748     1.0  0.87805  0.24683  0.70990  1.0000
  H   H7749     1.0  0.74356  0.35849  0.58807  1.0000
  H   H7750     1.0  0.95776  0.20451  0.71596  1.0000
  H   H7751     1.0  0.86965  0.11927  0.72768  1.0000
  H   H7752     1.0  0.81221  0.34142  0.55748  1.0000
  H   H7753     1.0  0.78689  0.30982  0.72203  1.0000
  C   C4553     1.0  0.75243  0.25162  0.56574  1.0000
  N   N328      1.0  0.80319  0.03501  0.71400  1.0000
  H   H7754     1.0  0.79279  0.21362  0.53399  1.0000
  C   C4554     1.0  0.78347  0.27109  0.72298  1.0000
  H   H7755     1.0  0.76355  0.16860  0.68286  1.0000
  H   H7756     1.0  0.75947  0.23719  0.64527  1.0000
  H   H7757     1.0  0.75548  0.30839  0.60467  1.0000
  H   H7758     1.0  0.77559  0.12131  0.70361  1.0000
  H   H7759     1.0  0.74277  0.35566  0.57156  1.0000
  H   H7760     1.0  0.75967  0.28005  0.52501  1.0000
  H   H7761     1.0  0.79403  0.12281  0.68046  1.0000
  S   S1296     1.0  0.74906  0.35203  0.66726  1.0000
  H   H7762     1.0  0.75347  0.14259  0.66853  1.0000
  S   S1297     1.0  0.74127  0.42513  0.54241  1.0000
  H   H7763     1.0  0.77509  0.02360  0.72753  1.0000
  H   H7764     1.0  0.85546  0.00135  0.69785  1.0000
  C   C4555     1.0  0.77324  0.18955  0.53706  1.0000
  C   C4556     1.0  0.75328  0.37917  0.55698  1.0000
  H   H7765     1.0  0.78754  0.47067  0.58719  1.0000
  C   C4557     1.0  0.77229  0.14599  0.68238  1.0000
  C   C4558     1.0  0.75640  0.25567  0.57625  1.0000
  H   H7766     1.0  0.84221  0.21116  0.71457  1.0000
  H   H7767     1.0  0.74713  0.35034  0.70311  1.0000
  H   H7768     1.0  0.80186  0.02306  0.69006  1.0000
  C   C4559     1.0  0.74040  0.16005  0.56759  1.0000
  H   H7769     1.0  0.82441  0.03954  0.70817  1.0000
  H   H7770     1.0  0.75741  0.22167  0.66682  1.0000
  Fe  Fe646     1.0  0.75029  0.42985  0.58778  1.0000
  H   H7771     1.0  0.76609  0.37692  0.63524  1.0000
  H   H7772     1.0  0.76720  0.26385  0.66699  1.0000
  C   C4560     1.0  0.77721  0.11416  0.69621  1.0000
  C   C4561     1.0  0.76421  0.41783  0.62604  1.0000
  C   C4562     1.0  0.75940  0.12022  0.66828  1.0000
  H   H7773     1.0  0.82753  0.01601  0.72588  1.0000
  H   H7774     1.0  0.74808  0.12001  0.66928  1.0000
  H   H7775     1.0  0.76493  0.46673  0.63272  1.0000
  H   H7776     1.0  0.90212  0.20197  0.72313  1.0000
  N   N329      1.0  0.77428  0.13478  0.67397  1.0000
  H   H7777     1.0  0.78262  0.25272  0.67394  1.0000
  H   H7778     1.0  0.75103  0.46720  0.59407  1.0000
  C   C4563     1.0  0.76379  0.39534  0.64377  1.0000
  H   H7779     1.0  0.76115  0.41574  0.64886  1.0000
  S   S1298     1.0  0.75254  0.33468  0.50609  1.0000
  H   H7780     1.0  0.77426  0.04002  0.71385  1.0000
  H   H7781     1.0  0.77501  0.20983  0.66473  1.0000
  H   H7782     1.0  0.77112  0.31419  0.52327  1.0000
  H   H7783     1.0  0.78238  0.14562  0.68533  1.0000
  H   H7784     1.0  0.75409  0.28290  0.69737  1.0000
  H   H7785     1.0  0.77468  0.14885  0.65274  1.0000
  H   H7786     1.0  0.77080  0.30820  0.71881  1.0000
  H   H7787     1.0  0.77050  0.45159  0.58213  1.0000
  H   H7788     1.0  0.81844  0.35123  0.56617  1.0000
  H   H7789     1.0  0.78301  0.13098  0.65249  1.0000
  S   S1299     1.0  0.74607  0.32181  0.70242  1.0000
  C   C4564     1.0  0.76620  0.18560  0.55138  1.0000
  C   C4565     1.0  0.77061  0.45638  0.62977  1.0000
  H   H7790     1.0  0.92601  0.22113  0.72699  1.0000
  H   H7791     1.0  0.74919  0.19190  0.62155  1.0000
  H   H7792     1.0  0.78511  0.22681  0.67102  1.0000
  H   H7793     1.0  0.78792  0.01871  0.70564  1.0000
  H   H7794     1.0  0.76113  0.26870  0.71076  1.0000
  H   H7795     1.0  0.85454  0.21275  0.69142  1.0000
  H   H7796     1.0  0.76192  0.14971  0.57038  1.0000
  Fe  Fe647     1.0  0.94233  0.14681  0.71625  1.0000
  H   H7797     1.0  0.78494  0.10420  0.69985  1.0000
  H   H7798     1.0  0.79184  0.04445  0.69651  1.0000
  C   C4566     1.0  0.77889  0.25987  0.66429  1.0000
  H   H7799     1.0  0.74053  0.25406  0.65421  1.0000
  S   S1300     1.0  0.82390  0.00219  0.66691  1.0000
  H   H7800     1.0  0.78486  0.06339  0.71124  1.0000
  H   H7801     1.0  0.75490  0.18932  0.55463  1.0000
  Fe  Fe648     1.0  0.74442  0.21703  0.53236  1.0000
  H   H7802     1.0  0.79739  0.25031  0.71984  1.0000
  H   H7803     1.0  0.76148  0.15793  0.55215  1.0000
  H   H7804     1.0  0.87720  0.21724  0.68896  1.0000
  H   H7805     1.0  0.74137  0.16928  0.57130  1.0000
  H   H7806     1.0  0.74701  0.17260  0.53933  1.0000
  H   H7807     1.0  0.76706  0.11103  0.69733  1.0000
  C   C4567     1.0  0.74830  0.00877  0.72395  1.0000
  H   H7808     1.0  0.75694  0.45106  0.60603  1.0000
  H   H7809     1.0  0.74875  0.40366  0.52567  1.0000
  C   C4568     1.0  0.78118  0.30194  0.72143  1.0000
  H   H7810     1.0  0.78683  0.45613  0.57150  1.0000
  H   H7811     1.0  0.75560  0.14118  0.56065  1.0000
  C   C4569     1.0  0.79956  0.01689  0.70132  1.0000
  H   H7812     1.0  0.74236  0.30873  0.51028  1.0000
  C   C4570     1.0  0.79492  0.06195  0.70296  1.0000
  H   H7813     1.0  0.80316  0.06565  0.70566  1.0000
  H   H7814     1.0  0.81912  0.01824  0.70489  1.0000
  H   H7815     1.0  0.84315  0.98981  0.68697  1.0000
  C   C4571     1.0  0.78031  0.45441  0.58266  1.0000
  H   H7816     1.0  0.77990  0.25281  0.71642  1.0000
  H   H7817     1.0  0.74958  0.15104  0.53735  1.0000
  Fe  Fe649     1.0  0.84433  0.25036  0.72317  1.0000
  C   C4572     1.0  0.74224  0.38370  0.57019  1.0000
  H   H7818     1.0  0.74848  0.38218  0.57837  1.0000
  C   C4573     1.0  0.81561  0.03790  0.71784  1.0000
  H   H7819     1.0  0.73956  0.38250  0.62741  1.0000
  S   S1301     1.0  0.73859  0.41662  0.58242  1.0000
  H   H7820     1.0  0.76074  0.38661  0.55275  1.0000
  H   H7821     1.0  0.94698  0.19206  0.72642  1.0000
  C   C4574     1.0  0.79075  0.03567  0.72674  1.0000
  Fe  Fe650     1.0  0.91212  0.14176  0.72146  1.0000
  S   S1302     1.0  0.89398  0.13017  0.72584  1.0000
  H   H7822     1.0  0.74270  0.20076  0.59407  1.0000
  C   C4575     1.0  0.73826  0.29968  0.53823  1.0000
  H   H7823     1.0  0.73906  0.31477  0.55005  1.0000
  H   H7824     1.0  0.73948  0.29073  0.54782  1.0000
  H   H7825     1.0  0.75025  0.41647  0.47792  1.0000
  H   H7826     1.0  0.73767  0.40502  0.63367  1.0000
  H   H7827     1.0  0.73804  0.39551  0.56701  1.0000
  H   H7828     1.0  0.73763  0.21914  0.63426  1.0000
  H   H7829     1.0  0.94972  0.22235  0.74662  1.0000
  H   H7830     1.0  0.77185  0.20312  0.89238  1.0000
  Fe  Fe651     1.0  0.77186  0.03539  0.77480  1.0000
  S   S1303     1.0  0.76285  0.02383  0.79693  1.0000
  S   S1304     1.0  0.79521  0.03555  0.76734  1.0000
  H   H7831     1.0  0.76141  0.00775  0.74528  1.0000
  C   C4576     1.0  0.93980  0.16300  0.77546  1.0000
  H   H7832     1.0  0.90121  0.26000  0.75263  1.0000
  S   S1305     1.0  0.76093  0.02610  0.76393  1.0000
  S   S1306     1.0  0.75519  0.05564  0.77530  1.0000
  H   H7833     1.0  0.79463  0.25703  0.81153  1.0000
  C   C4577     1.0  0.77572  0.18726  0.83441  1.0000
  C   C4578     1.0  0.75023  0.08298  0.83105  1.0000
  H   H7834     1.0  0.98426  0.16882  0.75248  1.0000
  Fe  Fe652     1.0  0.93181  0.21651  0.81770  1.0000
  S   S1307     1.0  0.93984  0.23485  0.80135  1.0000
  S   S1308     1.0  0.91748  0.22142  0.83846  1.0000
  Fe  Fe653     1.0  0.94572  0.19592  0.79782  1.0000
  S   S1309     1.0  0.95511  0.21261  0.78024  1.0000
  H   H7835     1.0  0.74534  0.09221  0.83583  1.0000
  Fe  Fe654     1.0  0.96069  0.21876  0.79787  1.0000
  H   H7836     1.0  0.95470  0.17312  0.74584  1.0000
  Fe  Fe655     1.0  0.93345  0.22679  0.78554  1.0000
  S   S1310     1.0  0.92266  0.24135  0.76774  1.0000
  S   S1311     1.0  0.95302  0.20081  0.81520  1.0000
  S   S1312     1.0  0.92377  0.20976  0.80230  1.0000
  Fe  Fe656     1.0  0.82647  0.21647  0.86677  1.0000
  S   S1313     1.0  0.83465  0.19503  0.86083  1.0000
  S   S1314     1.0  0.82205  0.23559  0.84875  1.0000
  Fe  Fe657     1.0  0.82821  0.20400  0.89822  1.0000
  S   S1315     1.0  0.83645  0.18149  0.89483  1.0000
  S   S1316     1.0  0.82072  0.20929  0.92026  1.0000
  Fe  Fe658     1.0  0.85033  0.19163  0.87454  1.0000
  S   S1317     1.0  0.87314  0.18113  0.86620  1.0000
  Fe  Fe659     1.0  0.82009  0.18691  0.88138  1.0000
  S   S1318     1.0  0.80398  0.17330  0.88546  1.0000
  S   S1319     1.0  0.84329  0.21380  0.87892  1.0000
  S   S1320     1.0  0.81068  0.20866  0.88638  1.0000
  Fe  Fe660     1.0  0.74483  0.28133  0.80680  1.0000
  H   H7837     1.0  0.74550  0.13293  0.81884  1.0000
  S   S1321     1.0  0.75314  0.29373  0.78484  1.0000
  H   H7838     1.0  0.77321  0.09862  0.75040  1.0000
  S   S1322     1.0  0.75750  0.26885  0.85584  1.0000
  S   S1323     1.0  0.76049  0.26282  0.81656  1.0000
  Fe  Fe661     1.0  0.77786  0.13018  0.84886  1.0000
  S   S1324     1.0  0.75737  0.13697  0.86410  1.0000
  S   S1325     1.0  0.79456  0.14376  0.84083  1.0000
  Fe  Fe662     1.0  0.76873  0.10356  0.84670  1.0000
  S   S1326     1.0  0.77585  0.08398  0.83653  1.0000
  Fe  Fe663     1.0  0.76055  0.11372  0.87514  1.0000
  H   H7839     1.0  0.74002  0.00958  0.76152  1.0000
  S   S1327     1.0  0.76744  0.12608  0.83349  1.0000
  S   S1328     1.0  0.78160  0.10701  0.86045  1.0000
  H   H7840     1.0  0.93226  0.15441  0.76183  1.0000
  Fe  Fe664     1.0  0.74857  0.26885  0.83746  1.0000
  H   H7841     1.0  0.74304  0.36005  0.77479  1.0000
  S   S1329     1.0  0.76799  0.14263  0.93771  1.0000
  H   H7842     1.0  0.86411  0.24613  0.94048  1.0000
  N   N330      1.0  0.80717  0.23134  0.80131  1.0000
  S   S1330     1.0  0.85949  0.20544  0.96283  1.0000
  C   C4579     1.0  0.93866  0.17507  0.78076  1.0000
  C   C4580     1.0  0.81346  0.24614  0.95365  1.0000
  C   C4581     1.0  0.90002  0.22784  0.77600  1.0000
  C   C4582     1.0  0.90545  0.23981  0.76769  1.0000
  H   H7843     1.0  0.77699  0.20166  0.95141  1.0000
  H   H7844     1.0  0.83689  0.23599  0.93560  1.0000
  H   H7845     1.0  0.79027  0.21186  0.94190  1.0000
  C   C4583     1.0  0.77982  0.06612  0.87702  1.0000
  H   H7846     1.0  0.92372  0.26422  0.84958  1.0000
  C   C4584     1.0  0.79819  0.24522  0.79467  1.0000
  C   C4585     1.0  0.78678  0.27304  0.75900  1.0000
  H   H7847     1.0  0.94187  0.26523  0.83059  1.0000
  H   H7848     1.0  0.76473  0.16139  0.83866  1.0000
  H   H7849     1.0  0.75177  0.19448  0.80388  1.0000
  S   S1331     1.0  0.75943  0.10512  0.89917  1.0000
  H   H7850     1.0  0.96661  0.21900  0.73447  1.0000
  H   H7851     1.0  0.80381  0.19539  0.96951  1.0000
  C   C4586     1.0  0.88603  0.22716  0.77648  1.0000
  H   H7852     1.0  0.75216  0.21930  0.78801  1.0000
  C   C4587     1.0  0.75486  0.98824  0.74421  1.0000
  C   C4588     1.0  0.83509  0.19332  0.73007  1.0000
  H   H7853     1.0  0.96516  0.21640  0.85317  1.0000
  H   H7854     1.0  0.80338  0.17033  0.91687  1.0000
  H   H7855     1.0  0.86528  0.23398  0.95740  1.0000
  C   C4589     1.0  0.76142  0.11570  0.90999  1.0000
  C   C4590     1.0  0.76308  0.12983  0.90425  1.0000
  C   C4591     1.0  0.76475  0.13793  0.91303  1.0000
  C   C4592     1.0  0.76498  0.13200  0.92760  1.0000
  C   C4593     1.0  0.76335  0.11784  0.93339  1.0000
  H   H7856     1.0  0.83579  0.21171  0.79539  1.0000
  H   H7857     1.0  0.76146  0.06031  0.85952  1.0000
  S   S1332     1.0  0.91011  0.17773  0.75074  1.0000
  N   N331      1.0  0.77748  0.19052  0.92755  1.0000
  C   C4594     1.0  0.83200  0.20797  0.93165  1.0000
  C   C4595     1.0  0.82567  0.20911  0.94588  1.0000
  C   C4596     1.0  0.83406  0.20807  0.95550  1.0000
  C   C4597     1.0  0.84885  0.20644  0.95087  1.0000
  C   C4598     1.0  0.85525  0.20536  0.93658  1.0000
  C   C4599     1.0  0.84686  0.20598  0.92699  1.0000
  H   H7858     1.0  0.81420  0.21070  0.94949  1.0000
  H   H7859     1.0  0.82904  0.20835  0.96655  1.0000
  H   H7860     1.0  0.86673  0.20395  0.93292  1.0000
  H   H7861     1.0  0.85184  0.20510  0.91601  1.0000
  C   C4600     1.0  0.80089  0.16674  0.87206  1.0000
  C   C4601     1.0  0.78882  0.16086  0.87528  1.0000
  C   C4602     1.0  0.78669  0.15403  0.86568  1.0000
  C   C4603     1.0  0.79658  0.15306  0.85270  1.0000
  C   C4604     1.0  0.80839  0.15944  0.84920  1.0000
  C   C4605     1.0  0.81058  0.16623  0.85888  1.0000
  H   H7862     1.0  0.78125  0.16127  0.88544  1.0000
  H   H7863     1.0  0.77754  0.14927  0.86852  1.0000
  H   H7864     1.0  0.81608  0.15878  0.83915  1.0000
  H   H7865     1.0  0.81996  0.17067  0.85633  1.0000
  C   C4606     1.0  0.80429  0.24541  0.85108  1.0000
  C   C4607     1.0  0.79482  0.24353  0.86447  1.0000
  C   C4608     1.0  0.78051  0.25098  0.86594  1.0000
  C   C4609     1.0  0.77557  0.26013  0.85397  1.0000
  C   C4610     1.0  0.78510  0.26233  0.84065  1.0000
  C   C4611     1.0  0.79951  0.25514  0.83928  1.0000
  H   H7866     1.0  0.79853  0.23648  0.87373  1.0000
  H   H7867     1.0  0.77321  0.24943  0.87631  1.0000
  H   H7868     1.0  0.78138  0.26971  0.83148  1.0000
  H   H7869     1.0  0.80694  0.25698  0.82904  1.0000
  H   H7870     1.0  0.79371  0.08331  0.76002  1.0000
  H   H7871     1.0  0.90657  0.21907  0.78206  1.0000
  C   C4612     1.0  0.75004  0.05149  0.90676  1.0000
  Fe  Fe665     1.0  0.77032  0.13833  0.96088  1.0000
  H   H7872     1.0  0.97868  0.16851  0.82472  1.0000
  H   H7873     1.0  0.77970  0.07516  0.88162  1.0000
  H   H7874     1.0  0.78440  0.22021  0.83278  1.0000
  H   H7875     1.0  0.94794  0.21264  0.85466  1.0000
  H   H7876     1.0  0.83143  0.21524  0.81335  1.0000
  H   H7877     1.0  0.76677  0.20023  0.81629  1.0000
  C   C4613     1.0  0.90546  0.20995  0.84655  1.0000
  C   C4614     1.0  0.90736  0.19734  0.84194  1.0000
  C   C4615     1.0  0.89748  0.18847  0.84821  1.0000
  C   C4616     1.0  0.88554  0.19227  0.85893  1.0000
  C   C4617     1.0  0.88364  0.20489  0.86354  1.0000
  C   C4618     1.0  0.89365  0.21366  0.85743  1.0000
  H   H7878     1.0  0.91649  0.19432  0.83363  1.0000
  H   H7879     1.0  0.89902  0.17869  0.84464  1.0000
  H   H7880     1.0  0.87461  0.20777  0.87198  1.0000
  H   H7881     1.0  0.89216  0.22338  0.86107  1.0000
  H   H7882     1.0  0.84502  0.14820  0.94984  1.0000
  Fe  Fe666     1.0  0.78486  0.15188  0.97580  1.0000
  C   C4619     1.0  0.77678  0.28395  0.76516  1.0000
  C   C4620     1.0  0.76492  0.28067  0.77587  1.0000
  C   C4621     1.0  0.76279  0.26663  0.77994  1.0000
  H   H7883     1.0  0.76252  0.11654  0.80020  1.0000
  H   H7884     1.0  0.88111  0.20015  0.73746  1.0000
  C   C4622     1.0  0.76154  0.10975  0.92461  1.0000
  H   H7885     1.0  0.75366  0.26395  0.78809  1.0000
  Fe  Fe667     1.0  0.74321  0.04548  0.76632  1.0000
  H   H7886     1.0  0.79881  0.09807  0.76242  1.0000
  C   C4623     1.0  0.78408  0.20230  0.92798  1.0000
  C   C4624     1.0  0.78522  0.17601  0.93442  1.0000
  C   C4625     1.0  0.76214  0.19314  0.93571  1.0000
  H   H7887     1.0  0.85344  0.24028  0.92445  1.0000
  N   N332      1.0  0.83476  0.25858  0.94797  1.0000
  H   H7888     1.0  0.75688  0.17193  0.94037  1.0000
  H   H7889     1.0  0.74724  0.27665  0.75836  1.0000
  C   C4626     1.0  0.92028  0.18834  0.76746  1.0000
  C   C4627     1.0  0.92915  0.18781  0.77637  1.0000
  H   H7890     1.0  0.74231  0.28137  0.88089  1.0000
  H   H7891     1.0  0.83762  0.24615  0.91778  1.0000
  H   H7892     1.0  0.76749  0.04097  0.73192  1.0000
  H   H7893     1.0  0.91247  0.19807  0.76483  1.0000
  H   H7894     1.0  0.92847  0.19729  0.77992  1.0000
  H   H7895     1.0  0.74077  0.33727  0.79565  1.0000
  H   H7896     1.0  0.80733  0.23366  0.82230  1.0000
  H   H7897     1.0  0.97110  0.15841  0.76069  1.0000
  S   S1333     1.0  0.74784  0.10853  0.86229  1.0000
  H   H7898     1.0  0.80272  0.06003  0.79382  1.0000
  H   H7899     1.0  0.79314  0.02681  0.73605  1.0000
  C   C4628     1.0  0.76484  0.07699  0.83005  1.0000
  H   H7900     1.0  0.80764  0.21600  0.82162  1.0000
  C   C4629     1.0  0.80284  0.22746  0.81751  1.0000
  H   H7901     1.0  0.87578  0.23191  0.73929  1.0000
  C   C4630     1.0  0.80135  0.17193  0.92793  1.0000
  H   H7902     1.0  0.78381  0.17503  0.94614  1.0000
  C   C4631     1.0  0.79923  0.05083  0.75446  1.0000
  C   C4632     1.0  0.78863  0.06121  0.74831  1.0000
  C   C4633     1.0  0.97166  0.13589  0.73806  1.0000
  H   H7903     1.0  0.79335  0.20758  0.79115  1.0000
  H   H7904     1.0  0.78929  0.10442  0.74110  1.0000
  C   C4634     1.0  0.81342  0.05233  0.74988  1.0000
  H   H7905     1.0  0.77771  0.06001  0.75156  1.0000
  H   H7906     1.0  0.77381  0.17852  0.84399  1.0000
  H   H7907     1.0  0.81362  0.24599  0.94248  1.0000
  H   H7908     1.0  0.82164  0.04439  0.75467  1.0000
  H   H7909     1.0  0.79445  0.20236  0.92006  1.0000
  H   H7910     1.0  0.76469  0.15445  0.81338  1.0000
  C   C4635     1.0  0.84174  0.24445  0.92758  1.0000
  C   C4636     1.0  0.79786  0.25864  0.79972  1.0000
  H   H7911     1.0  0.85373  0.17785  0.95216  1.0000
  H   H7912     1.0  0.74529  0.27629  0.74122  1.0000
  H   H7913     1.0  0.80210  0.24760  0.78281  1.0000
  H   H7914     1.0  0.96388  0.22830  0.82619  1.0000
  H   H7915     1.0  0.82341  0.24171  0.80188  1.0000
  H   H7916     1.0  0.84910  0.27258  0.94517  1.0000
  H   H7917     1.0  0.76412  0.32227  0.77348  1.0000
  H   H7918     1.0  0.77467  0.04529  0.88408  1.0000
  H   H7919     1.0  0.80821  0.26203  0.79574  1.0000
  H   H7920     1.0  0.75549  0.07723  0.90128  1.0000
  C   C4637     1.0  0.78146  0.10347  0.75158  1.0000
  H   H7921     1.0  0.78397  0.22513  0.79315  1.0000
  H   H7922     1.0  0.82806  0.06500  0.73543  1.0000
  C   C4638     1.0  0.82240  0.23327  0.79710  1.0000
  C   C4639     1.0  0.83390  0.21996  0.80166  1.0000
  H   H7923     1.0  0.77857  0.29475  0.76207  1.0000
  C   C4640     1.0  0.89703  0.25075  0.75921  1.0000
  H   H7924     1.0  0.76597  0.14887  0.90846  1.0000
  C   C4641     1.0  0.75142  0.06565  0.86598  1.0000
  C   C4642     1.0  0.77852  0.19069  0.91206  1.0000
  C   C4643     1.0  0.79230  0.07278  0.73725  1.0000
  S   S1334     1.0  0.76372  0.15839  0.96959  1.0000
  C   C4644     1.0  0.78934  0.09374  0.76332  1.0000
  H   H7925     1.0  0.76550  0.07881  0.79154  1.0000
  H   H7926     1.0  0.77684  0.11452  0.75328  1.0000
  H   H7927     1.0  0.96592  0.15750  0.82985  1.0000
  C   C4645     1.0  0.83848  0.25896  0.93205  1.0000
  N   N333      1.0  0.78070  0.09171  0.77857  1.0000
  C   C4646     1.0  0.79060  0.08187  0.78804  1.0000
  C   C4647     1.0  0.77592  0.10593  0.78302  1.0000
  H   H7928     1.0  0.96013  0.19772  0.75452  1.0000
  C   C4648     1.0  0.83539  0.16875  0.97487  1.0000
  H   H7929     1.0  0.76499  0.33653  0.78114  1.0000
  C   C4649     1.0  0.95591  0.21639  0.73807  1.0000
  H   H7930     1.0  0.84420  0.22329  0.79922  1.0000
  H   H7931     1.0  0.85919  0.13774  0.96696  1.0000
  H   H7932     1.0  0.79953  0.08687  0.78745  1.0000
  H   H7933     1.0  0.78491  0.08010  0.79950  1.0000
  H   H7934     1.0  0.76899  0.11404  0.77628  1.0000
  H   H7935     1.0  0.78531  0.11069  0.78133  1.0000
  H   H7936     1.0  0.76650  0.03118  0.90680  1.0000
  C   C4650     1.0  0.78671  0.20198  0.94270  1.0000
  S   S1335     1.0  0.94920  0.17436  0.79267  1.0000
  Fe  Fe668     1.0  0.75026  0.01587  0.78605  1.0000
  H   H7937     1.0  0.77532  0.10115  0.80620  1.0000
  N   N334      1.0  0.84596  0.15915  0.96556  1.0000
  H   H7938     1.0  0.96318  0.20588  0.84214  1.0000
  H   H7939     1.0  0.77587  0.99338  0.74018  1.0000
  S   S1336     1.0  0.79749  0.24495  0.75665  1.0000
  S   S1337     1.0  0.75001  0.22968  0.81303  1.0000
  Fe  Fe669     1.0  0.74709  0.13123  0.84961  1.0000
  C   C4651     1.0  0.85187  0.14471  0.97425  1.0000
  H   H7940     1.0  0.74525  0.17841  0.81038  1.0000
  H   H7941     1.0  0.77562  0.18100  0.91109  1.0000
  H   H7942     1.0  0.76023  0.09885  0.92917  1.0000
  C   C4652     1.0  0.93137  0.16373  0.76589  1.0000
  C   C4653     1.0  0.82859  0.28635  0.94419  1.0000
  H   H7943     1.0  0.95224  0.26542  0.80524  1.0000
  H   H7944     1.0  0.81919  0.23572  0.95906  1.0000
  H   H7945     1.0  0.76025  0.25400  0.75132  1.0000
  H   H7946     1.0  0.82806  0.16626  0.93758  1.0000
  H   H7947     1.0  0.81371  0.20924  0.79899  1.0000
  H   H7948     1.0  0.77651  0.19644  0.83824  1.0000
  H   H7949     1.0  0.81629  0.25975  0.96562  1.0000
  H   H7950     1.0  0.78124  0.16771  0.81853  1.0000
  H   H7951     1.0  0.77714  0.18176  0.80367  1.0000
  S   S1338     1.0  0.79755  0.16889  0.97065  1.0000
  H   H7952     1.0  0.79622  0.27551  0.75114  1.0000
  H   H7953     1.0  0.80210  0.24736  0.95951  1.0000
  S   S1339     1.0  0.82608  0.26468  0.75761  1.0000
  C   C4654     1.0  0.76784  0.10547  0.79880  1.0000
  H   H7954     1.0  0.77192  0.07652  0.77358  1.0000
  H   H7955     1.0  0.83328  0.29512  0.94456  1.0000
  H   H7956     1.0  0.75024  0.03085  0.90218  1.0000
  H   H7957     1.0  0.77947  0.23196  0.81699  1.0000
  H   H7958     1.0  0.88187  0.21792  0.78311  1.0000
  H   H7959     1.0  0.75949  0.09912  0.80215  1.0000
  H   H7960     1.0  0.89704  0.22291  0.74855  1.0000
  C   C4655     1.0  0.77051  0.16237  0.80554  1.0000
  H   H7961     1.0  0.97715  0.13035  0.75873  1.0000
  C   C4656     1.0  0.83815  0.15659  0.95577  1.0000
  C   C4657     1.0  0.74858  0.25561  0.75584  1.0000
  C   C4658     1.0  0.79732  0.06670  0.78502  1.0000
  H   H7962     1.0  0.74951  0.16229  0.83241  1.0000
  N   N335      1.0  0.81148  0.11798  0.90252  1.0000
  C   C4659     1.0  0.80406  0.13362  0.89951  1.0000
  C   C4660     1.0  0.81478  0.11279  0.88882  1.0000
  C   C4661     1.0  0.82532  0.11718  0.90638  1.0000
  C   C4662     1.0  0.80188  0.10986  0.91481  1.0000
  C   C4663     1.0  0.80118  0.14152  0.91175  1.0000
  C   C4664     1.0  0.80188  0.11523  0.88206  1.0000
  C   C4665     1.0  0.83497  0.10216  0.90966  1.0000
  C   C4666     1.0  0.80330  0.09387  0.91523  1.0000
  H   H7963     1.0  0.81031  0.13973  0.88975  1.0000
  H   H7964     1.0  0.79347  0.13493  0.89710  1.0000
  H   H7965     1.0  0.81977  0.10118  0.89034  1.0000
  H   H7966     1.0  0.82284  0.11820  0.88045  1.0000
  H   H7967     1.0  0.83180  0.12407  0.89760  1.0000
  H   H7968     1.0  0.82330  0.12150  0.91613  1.0000
  H   H7969     1.0  0.80330  0.11047  0.92535  1.0000
  H   H7970     1.0  0.79046  0.11491  0.91483  1.0000
  H   H7971     1.0  0.79741  0.13499  0.92248  1.0000
  H   H7972     1.0  0.81087  0.14497  0.91168  1.0000
  H   H7973     1.0  0.79270  0.15140  0.91003  1.0000
  H   H7974     1.0  0.79942  0.12642  0.87587  1.0000
  H   H7975     1.0  0.80459  0.10820  0.87431  1.0000
  H   H7976     1.0  0.79211  0.11293  0.89012  1.0000
  H   H7977     1.0  0.84528  0.10337  0.91090  1.0000
  H   H7978     1.0  0.83760  0.09634  0.90092  1.0000
  H   H7979     1.0  0.83023  0.09569  0.92007  1.0000
  H   H7980     1.0  0.79901  0.09256  0.90661  1.0000
  H   H7981     1.0  0.79670  0.08911  0.92556  1.0000
  H   H7982     1.0  0.81435  0.08750  0.91461  1.0000
  N   N336      1.0  0.87309  0.23364  0.82121  1.0000
  C   C4667     1.0  0.88861  0.23032  0.81366  1.0000
  C   C4668     1.0  0.86887  0.21950  0.82876  1.0000
  C   C4669     1.0  0.87185  0.24226  0.83205  1.0000
  C   C4670     1.0  0.86458  0.24219  0.81002  1.0000
  C   C4671     1.0  0.89550  0.24341  0.80616  1.0000
  C   C4672     1.0  0.87038  0.20917  0.81910  1.0000
  C   C4673     1.0  0.85915  0.24163  0.84511  1.0000
  C   C4674     1.0  0.84820  0.24537  0.81487  1.0000
  H   H7983     1.0  0.89520  0.22311  0.82134  1.0000
  H   H7984     1.0  0.89015  0.22436  0.80524  1.0000
  H   H7985     1.0  0.85769  0.22094  0.83508  1.0000
  H   H7986     1.0  0.87543  0.21361  0.83687  1.0000
  H   H7987     1.0  0.88153  0.23863  0.83677  1.0000
  H   H7988     1.0  0.87139  0.25379  0.82678  1.0000
  H   H7989     1.0  0.86729  0.25291  0.80539  1.0000
  H   H7990     1.0  0.86758  0.23730  0.80049  1.0000
  H   H7991     1.0  0.89516  0.24990  0.81375  1.0000
  H   H7992     1.0  0.90695  0.23955  0.80147  1.0000
  H   H7993     1.0  0.89069  0.25027  0.79705  1.0000
  H   H7994     1.0  0.88176  0.20445  0.81492  1.0000
  H   H7995     1.0  0.86542  0.20003  0.82568  1.0000
  H   H7996     1.0  0.86488  0.21436  0.81011  1.0000
  H   H7997     1.0  0.84877  0.24429  0.84203  1.0000
  H   H7998     1.0  0.85875  0.24952  0.85131  1.0000
  H   H7999     1.0  0.86048  0.23092  0.85254  1.0000
  H   H8000     1.0  0.84415  0.25472  0.82003  1.0000
  H   H8001     1.0  0.84399  0.23605  0.82198  1.0000
  H   H8002     1.0  0.84360  0.24791  0.80525  1.0000
  N   N337      1.0  0.95002  0.24286  0.83978  1.0000
  C   C4675     1.0  0.93691  0.24216  0.85186  1.0000
  C   C4676     1.0  0.95448  0.22869  0.83525  1.0000
  C   C4677     1.0  0.94566  0.25468  0.82745  1.0000
  C   C4678     1.0  0.96142  0.24597  0.84509  1.0000
  C   C4679     1.0  0.92958  0.25609  0.85736  1.0000
  C   C4680     1.0  0.95788  0.21527  0.84713  1.0000
  H   H8003     1.0  0.84007  0.24567  0.96803  1.0000
  H   H8004     1.0  0.75743  0.33456  0.75076  1.0000
  H   H8005     1.0  0.92862  0.23891  0.84866  1.0000
  H   H8006     1.0  0.93949  0.23381  0.86145  1.0000
  C   C4681     1.0  0.96578  0.17498  0.74233  1.0000
  H   H8007     1.0  0.96688  0.17001  0.81309  1.0000
  C   C4682     1.0  0.97711  0.24150  0.83711  1.0000
  H   H8008     1.0  0.93648  0.25275  0.82444  1.0000
  H   H8009     1.0  0.95930  0.25762  0.84490  1.0000
  H   H8010     1.0  0.96105  0.24030  0.85654  1.0000
  H   H8011     1.0  0.92143  0.25359  0.86738  1.0000
  H   H8012     1.0  0.93718  0.26071  0.86002  1.0000
  H   H8013     1.0  0.78623  0.18379  0.82739  1.0000
  H   H8014     1.0  0.98310  0.24955  0.83674  1.0000
  H   H8015     1.0  0.75359  0.05448  0.91504  1.0000
  C   C4683     1.0  0.87055  0.16530  0.96284  1.0000
  H   H8016     1.0  0.79129  0.27143  0.72892  1.0000
  H   H8017     1.0  0.75473  0.31653  0.75758  1.0000
  C   C4684     1.0  0.73810  0.98768  0.73053  1.0000
  H   H8018     1.0  0.97177  0.16752  0.73515  1.0000
  C   C4685     1.0  0.77144  0.05536  0.88814  1.0000
  H   H8019     1.0  0.96204  0.13168  0.74214  1.0000
  C   C4686     1.0  0.83294  0.16980  0.94439  1.0000
  H   H8020     1.0  0.84172  0.17474  0.93698  1.0000
  H   H8021     1.0  0.80569  0.06693  0.77495  1.0000
  H   H8022     1.0  0.94548  0.19856  0.74777  1.0000
  C   C4687     1.0  0.76352  0.19217  0.82619  1.0000
  C   C4688     1.0  0.98029  0.13506  0.74742  1.0000
  H   H8023     1.0  0.94593  0.22717  0.83098  1.0000
  C   C4689     1.0  0.85981  0.24475  0.95221  1.0000
  H   H8024     1.0  0.78981  0.26773  0.79519  1.0000
  H   H8025     1.0  0.82978  0.26633  0.92686  1.0000
  H   H8026     1.0  0.76618  0.99202  0.75826  1.0000
  H   H8027     1.0  0.79542  0.19285  0.94575  1.0000
  H   H8028     1.0  0.75540  0.10521  0.76923  1.0000
  H   H8029     1.0  0.75168  0.17134  0.85744  1.0000
  C   C4690     1.0  0.92143  0.17638  0.76205  1.0000
  H   H8030     1.0  0.82843  0.15246  0.96204  1.0000
  H   H8031     1.0  0.90665  0.20715  0.74241  1.0000
  H   H8032     1.0  0.81463  0.02430  0.73985  1.0000
  C   C4691     1.0  0.74115  0.22452  0.79157  1.0000
  S   S1340     1.0  0.75171  0.99163  0.78942  1.0000
  H   H8033     1.0  0.74947  0.14173  0.79241  1.0000
  Fe  Fe670     1.0  0.74531  0.04379  0.79686  1.0000
  C   C4692     1.0  0.78663  0.22987  0.82439  1.0000
  H   H8034     1.0  0.74027  0.18557  0.84739  1.0000
  C   C4693     1.0  0.75996  0.32737  0.78281  1.0000
  S   S1341     1.0  0.85459  0.26331  0.73094  1.0000
  C   C4694     1.0  0.95665  0.20019  0.74431  1.0000
  H   H8035     1.0  0.76302  0.13457  0.89305  1.0000
  H   H8036     1.0  0.81099  0.22214  0.78287  1.0000
  S   S1342     1.0  0.98177  0.22537  0.79417  1.0000
  H   H8037     1.0  0.74967  0.08925  0.77130  1.0000
  H   H8038     1.0  0.74435  0.24957  0.75071  1.0000
  H   H8039     1.0  0.87653  0.25861  0.75318  1.0000
  C   C4695     1.0  0.76848  0.08476  0.78022  1.0000
  H   H8040     1.0  0.74393  0.37224  0.74918  1.0000
  H   H8041     1.0  0.75437  0.19849  0.83268  1.0000
  S   S1343     1.0  0.85969  0.23730  0.77006  1.0000
  H   H8042     1.0  0.74726  0.25073  0.76750  1.0000
  H   H8043     1.0  0.75251  0.04558  0.88075  1.0000
  H   H8044     1.0  0.94718  0.15309  0.77875  1.0000
  H   H8045     1.0  0.83568  0.19336  0.74108  1.0000
  H   H8046     1.0  0.97766  0.18436  0.79472  1.0000
  H   H8047     1.0  0.81235  0.26849  0.94849  1.0000
  H   H8048     1.0  0.98256  0.23123  0.84320  1.0000
  H   H8049     1.0  0.78813  0.21114  0.80866  1.0000
  C   C4696     1.0  0.75439  0.09475  0.77659  1.0000
  H   H8050     1.0  0.97756  0.18458  0.77681  1.0000
  H   H8051     1.0  0.84818  0.26349  0.92681  1.0000
  C   C4697     1.0  0.81708  0.06393  0.73889  1.0000
  C   C4698     1.0  0.74802  0.06493  0.81966  1.0000
  H   H8052     1.0  0.92287  0.21884  0.74603  1.0000
  H   H8053     1.0  0.76157  0.19186  0.94735  1.0000
  H   H8054     1.0  0.75648  0.20440  0.93210  1.0000
  H   H8055     1.0  0.78335  0.23877  0.83014  1.0000
  H   H8056     1.0  0.87770  0.17214  0.95506  1.0000
  C   C4699     1.0  0.75307  0.18317  0.93496  1.0000
  C   C4700     1.0  0.75103  0.07565  0.89285  1.0000
  S   S1344     1.0  0.82584  0.30094  0.72814  1.0000
  C   C4701     1.0  0.75510  0.16898  0.83528  1.0000
  H   H8057     1.0  0.82573  0.23704  0.78521  1.0000
  C   C4702     1.0  0.88089  0.22336  0.73302  1.0000
  S   S1345     1.0  0.92626  0.14016  0.73654  1.0000
  H   H8058     1.0  0.75507  0.35002  0.76272  1.0000
  Fe  Fe671     1.0  0.84746  0.24972  0.75276  1.0000
  H   H8059     1.0  0.98392  0.20426  0.82138  1.0000
  C   C4703     1.0  0.77261  0.17346  0.81258  1.0000
  H   H8060     1.0  0.96739  0.17573  0.76388  1.0000
  C   C4704     1.0  0.81907  0.25888  0.95418  1.0000
  H   H8061     1.0  0.78694  0.24462  0.79636  1.0000
  H   H8062     1.0  0.74675  0.32849  0.74331  1.0000
  H   H8063     1.0  0.80719  0.17994  0.92787  1.0000
  H   H8064     1.0  0.76754  0.04981  0.81375  1.0000
  C   C4705     1.0  0.83781  0.27179  0.95021  1.0000
  C   C4706     1.0  0.76267  0.05908  0.81849  1.0000
  C   C4707     1.0  0.77095  0.06496  0.82383  1.0000
  H   H8065     1.0  0.77725  0.21303  0.92464  1.0000
  H   H8066     1.0  0.77085  0.24500  0.77691  1.0000
  C   C4708     1.0  0.77253  0.25586  0.77353  1.0000
  C   C4709     1.0  0.80675  0.21952  0.79474  1.0000
  H   H8067     1.0  0.75800  0.20502  0.90804  1.0000
  H   H8068     1.0  0.76489  0.16766  0.79658  1.0000
  H   H8069     1.0  0.78220  0.06015  0.82310  1.0000
  H   H8070     1.0  0.78975  0.19012  0.90595  1.0000
  H   H8071     1.0  0.76348  0.11315  0.94459  1.0000
  H   H8072     1.0  0.75262  0.18353  0.92385  1.0000
  H   H8073     1.0  0.77596  0.05277  0.89789  1.0000
  H   H8074     1.0  0.84185  0.23548  0.95557  1.0000
  C   C4710     1.0  0.74189  0.27190  0.75296  1.0000
  C   C4711     1.0  0.76964  0.20408  0.90373  1.0000
  H   H8075     1.0  0.80594  0.16155  0.93455  1.0000
  H   H8076     1.0  0.77262  0.21409  0.90352  1.0000
  H   H8077     1.0  0.78060  0.16737  0.93360  1.0000
  C   C4712     1.0  0.78466  0.25897  0.76327  1.0000
  C   C4713     1.0  0.79210  0.21588  0.79721  1.0000
  H   H8078     1.0  0.78927  0.06107  0.78475  1.0000
  C   C4714     1.0  0.88307  0.24997  0.75949  1.0000
  H   H8079     1.0  0.77280  0.27429  0.72997  1.0000
  S   S1346     1.0  0.79228  0.13291  0.96548  1.0000
  C   C4715     1.0  0.80657  0.07405  0.73243  1.0000
  C   C4716     1.0  0.85796  0.16627  0.95620  1.0000
  N   N338      1.0  0.75951  0.18038  0.82235  1.0000
  C   C4717     1.0  0.87745  0.23829  0.76837  1.0000
  H   H8080     1.0  0.86291  0.16169  0.94644  1.0000
  H   H8081     1.0  0.83658  0.27116  0.96188  1.0000
  H   H8082     1.0  0.78114  0.15630  0.80083  1.0000
  C   C4718     1.0  0.75472  0.03499  0.90887  1.0000
  S   S1347     1.0  0.83908  0.23555  0.74443  1.0000
  Fe  Fe672     1.0  0.74368  0.25051  0.82016  1.0000
  H   H8083     1.0  0.91591  0.23579  0.73573  1.0000
  H   H8084     1.0  0.86271  0.25263  0.95630  1.0000
  H   H8085     1.0  0.74191  0.18659  0.94083  1.0000
  C   C4719     1.0  0.74950  0.32785  0.75362  1.0000
  H   H8086     1.0  0.97861  0.24077  0.82590  1.0000
  H   H8087     1.0  0.74244  0.06643  0.86104  1.0000
  H   H8088     1.0  0.82453  0.17804  0.94934  1.0000
  C   C4720     1.0  0.74187  0.07688  0.82602  1.0000
  Fe  Fe673     1.0  0.83234  0.27696  0.73490  1.0000
  N   N339      1.0  0.75533  0.06007  0.89196  1.0000
  C   C4721     1.0  0.74794  0.18682  0.81389  1.0000
  Fe  Fe674     1.0  0.81839  0.25157  0.74752  1.0000
  H   H8089     1.0  0.82822  0.28753  0.93286  1.0000
  H   H8090     1.0  0.81760  0.28804  0.95095  1.0000
  C   C4722     1.0  0.95723  0.25715  0.81360  1.0000
  H   H8091     1.0  0.77587  0.07042  0.86698  1.0000
  H   H8092     1.0  0.86596  0.21051  0.74731  1.0000
  C   C4723     1.0  0.97344  0.16254  0.82054  1.0000
  H   H8093     1.0  0.96200  0.24747  0.80906  1.0000
  C   C4724     1.0  0.84352  0.24574  0.95634  1.0000
  H   H8094     1.0  0.86721  0.16940  0.97279  1.0000
  H   H8095     1.0  0.88253  0.20602  0.75264  1.0000
  H   H8096     1.0  0.76353  0.31921  0.79208  1.0000
  C   C4725     1.0  0.74351  0.33183  0.78651  1.0000
  H   H8097     1.0  0.98305  0.19356  0.74998  1.0000
  C   C4726     1.0  0.91804  0.22405  0.73651  1.0000
  C   C4727     1.0  0.76498  0.99602  0.74693  1.0000
  C   C4728     1.0  0.97259  0.16948  0.75552  1.0000
  N   N340      1.0  0.96568  0.19034  0.73445  1.0000
  C   C4729     1.0  0.90410  0.21900  0.73896  1.0000
  Fe  Fe675     1.0  0.91771  0.16389  0.73446  1.0000
  N   N341      1.0  0.74322  0.99734  0.73650  1.0000
  H   H8098     1.0  0.73951  0.32172  0.79100  1.0000
  H   H8099     1.0  0.79119  0.06062  0.87401  1.0000
  H   H8100     1.0  0.85734  0.17030  0.73392  1.0000
  H   H8101     1.0  0.96566  0.26147  0.81522  1.0000
  C   C4730     1.0  0.73961  0.14331  0.81435  1.0000
  H   H8102     1.0  0.78902  0.04542  0.73087  1.0000
  C   C4731     1.0  0.74350  0.35363  0.76702  1.0000
  C   C4732     1.0  0.87768  0.20912  0.74312  1.0000
  C   C4733     1.0  0.74171  0.14822  0.79939  1.0000
  C   C4734     1.0  0.74862  0.05701  0.88158  1.0000
  H   H8103     1.0  0.97825  0.16001  0.78874  1.0000
  H   H8104     1.0  0.78227  0.24909  0.73433  1.0000
  H   H8105     1.0  0.82451  0.20016  0.72853  1.0000
  H   H8106     1.0  0.83151  0.17939  0.96818  1.0000
  H   H8107     1.0  0.74632  0.09643  0.78660  1.0000
  H   H8108     1.0  0.74671  0.29838  0.87351  1.0000
  C   C4735     1.0  0.98418  0.15074  0.81344  1.0000
  H   H8109     1.0  0.87710  0.15421  0.96477  1.0000
  H   H8110     1.0  0.75051  0.03004  0.92024  1.0000
  H   H8111     1.0  0.83102  0.02997  0.73148  1.0000
  C   C4736     1.0  0.98408  0.18031  0.78507  1.0000
  H   H8112     1.0  0.77937  0.29483  0.73226  1.0000
  H   H8113     1.0  0.97762  0.14485  0.81073  1.0000
  H   H8114     1.0  0.83527  0.18216  0.73012  1.0000
  C   C4737     1.0  0.74551  0.17408  0.84894  1.0000
  H   H8115     1.0  0.73913  0.30017  0.75427  1.0000
  H   H8116     1.0  0.78415  0.08055  0.73222  1.0000
  C   C4738     1.0  0.82239  0.02623  0.72945  1.0000
  H   H8117     1.0  0.75563  0.08268  0.88285  1.0000
  H   H8118     1.0  0.75179  0.07689  0.86499  1.0000
  H   H8119     1.0  0.95023  0.22061  0.72913  1.0000
  H   H8120     1.0  0.73774  0.35844  0.74602  1.0000
  H   H8121     1.0  0.73816  0.05391  0.90977  1.0000
  C   C4739     1.0  0.98068  0.19272  0.72828  1.0000
  C   C4740     1.0  0.73760  0.29303  0.87889  1.0000
  H   H8122     1.0  0.89777  0.75628  0.98918  1.0000
  Fe  Fe676     1.0  0.90136  0.78025  0.03622  1.0000
  S   S1348     1.0  0.92179  0.76336  0.03423  1.0000
  S   S1349     1.0  0.88204  0.78545  0.02608  1.0000
  Fe  Fe677     1.0  0.90660  0.78712  0.06246  1.0000
  S   S1350     1.0  0.92670  0.77021  0.06310  1.0000
  S   S1351     1.0  0.89800  0.80126  0.07860  1.0000
  Fe  Fe678     1.0  0.93192  0.77861  0.03930  1.0000
  Fe  Fe679     1.0  0.91523  0.75641  0.05818  1.0000
  S   S1352     1.0  0.91889  0.73276  0.06789  1.0000
  S   S1353     1.0  0.91210  0.79639  0.03884  1.0000
  S   S1354     1.0  0.89442  0.77236  0.06003  1.0000
  Fe  Fe680     1.0  0.75715  0.66365  0.19384  1.0000
  H   H8123     1.0  0.87222  0.91041  0.16128  1.0000
  S   S1355     1.0  0.74806  0.67979  0.17611  1.0000
  H   H8124     1.0  0.82254  0.96994  0.10846  1.0000
  S   S1356     1.0  0.95442  0.78219  0.02856  1.0000
  H   H8125     1.0  0.79250  0.68606  0.13671  1.0000
  Fe  Fe681     1.0  0.84767  0.72180  0.11581  1.0000
  S   S1357     1.0  0.84285  0.74328  0.10103  1.0000
  S   S1358     1.0  0.86993  0.70953  0.11740  1.0000
  Fe  Fe682     1.0  0.81655  0.72097  0.12803  1.0000
  S   S1359     1.0  0.80905  0.74251  0.11441  1.0000
  S   S1360     1.0  0.79891  0.71055  0.14246  1.0000
  Fe  Fe683     1.0  0.82641  0.73466  0.09670  1.0000
  S   S1361     1.0  0.82284  0.73955  0.07429  1.0000
  Fe  Fe684     1.0  0.82610  0.74899  0.12015  1.0000
  S   S1362     1.0  0.82288  0.76892  0.12811  1.0000
  S   S1363     1.0  0.83257  0.71248  0.10988  1.0000
  S   S1364     1.0  0.83216  0.72811  0.13534  1.0000
  S   S1365     1.0  0.88099  0.76391  0.14412  1.0000
  S   S1366     1.0  0.86844  0.77989  0.17920  1.0000
  Fe  Fe685     1.0  0.95642  0.84027  0.13046  1.0000
  S   S1367     1.0  0.95598  0.84988  0.10724  1.0000
  S   S1368     1.0  0.97725  0.83142  0.13817  1.0000
  Fe  Fe686     1.0  0.92440  0.84095  0.13879  1.0000
  S   S1369     1.0  0.92150  0.85073  0.11627  1.0000
  S   S1370     1.0  0.90370  0.83774  0.15440  1.0000
  Fe  Fe687     1.0  0.94160  0.83510  0.10977  1.0000
  S   S1371     1.0  0.94582  0.82230  0.09294  1.0000
  Fe  Fe688     1.0  0.93581  0.86476  0.11579  1.0000
  S   S1372     1.0  0.92967  0.88785  0.10458  1.0000
  S   S1373     1.0  0.94361  0.82406  0.13235  1.0000
  S   S1374     1.0  0.93718  0.85631  0.13896  1.0000
  Fe  Fe689     1.0  0.84482  0.95133  0.14960  1.0000
  S   S1375     1.0  0.85966  0.93624  0.13608  1.0000
  S   S1376     1.0  0.82666  0.94482  0.16736  1.0000
  C   C4741     1.0  0.82414  0.81500  0.21804  1.0000
  S   S1377     1.0  0.87504  0.96323  0.11806  1.0000
  H   H8126     1.0  0.82197  0.71284  0.21315  1.0000
  Fe  Fe690     1.0  0.85646  0.95493  0.11758  1.0000
  S   S1378     1.0  0.85106  0.95516  0.09694  1.0000
  Fe  Fe691     1.0  0.87662  0.94590  0.13802  1.0000
  S   S1379     1.0  0.89693  0.93208  0.14413  1.0000
  H   H8127     1.0  0.78822  0.68819  0.21730  1.0000
  S   S1380     1.0  0.86207  0.95964  0.15311  1.0000
  S   S1381     1.0  0.81004  0.84908  0.18732  1.0000
  Fe  Fe692     1.0  0.75492  0.68067  0.06772  1.0000
  S   S1382     1.0  0.76436  0.68057  0.08567  1.0000
  C   C4742     1.0  0.89785  0.96894  0.14983  1.0000
  Fe  Fe693     1.0  0.75843  0.71117  0.05228  1.0000
  S   S1383     1.0  0.76692  0.71370  0.06986  1.0000
  S   S1384     1.0  0.75749  0.73006  0.03327  1.0000
  Fe  Fe694     1.0  0.78020  0.69168  0.06854  1.0000
  S   S1385     1.0  0.80364  0.68642  0.06849  1.0000
  H   H8128     1.0  0.75207  0.77404  0.21464  1.0000
  H   H8129     1.0  0.78057  0.83687  0.99137  1.0000
  S   S1386     1.0  0.77232  0.68939  0.05042  1.0000
  S   S1387     1.0  0.74536  0.65094  0.21377  1.0000
  S   S1388     1.0  0.81971  0.72885  0.99401  1.0000
  Fe  Fe695     1.0  0.85423  0.76586  0.19495  1.0000
  H   H8130     1.0  0.89677  0.96345  0.14198  1.0000
  C   C4743     1.0  0.87547  0.76669  0.99134  1.0000
  C   C4744     1.0  0.76099  0.89861  0.06075  1.0000
  H   H8131     1.0  0.89265  0.94996  0.16574  1.0000
  H   H8132     1.0  0.89917  0.86830  0.14087  1.0000
  Fe  Fe696     1.0  0.77762  0.92402  0.06828  1.0000
  S   S1389     1.0  0.77797  0.91855  0.04736  1.0000
  Fe  Fe697     1.0  0.79350  0.92108  0.09173  1.0000
  S   S1390     1.0  0.81271  0.91200  0.10177  1.0000
  S   S1391     1.0  0.78295  0.90634  0.08685  1.0000
  C   C4745     1.0  0.74409  0.76513  0.07348  1.0000
  H   H8133     1.0  0.79712  0.95641  0.16033  1.0000
  C   C4746     1.0  0.97116  0.77377  0.10300  1.0000
  S   S1392     1.0  0.75673  0.82902  0.01280  1.0000
  N   N342      1.0  0.79329  0.95682  0.13188  1.0000
  C   C4747     1.0  0.81327  0.74114  0.21555  1.0000
  H   H8134     1.0  0.76515  0.75779  0.05989  1.0000
  H   H8135     1.0  0.76962  0.72086  0.14170  1.0000
  H   H8136     1.0  0.77718  0.89088  0.11919  1.0000
  H   H8137     1.0  0.79511  0.93273  0.12266  1.0000
  C   C4748     1.0  0.77476  0.73052  0.02245  1.0000
  C   C4749     1.0  0.77686  0.74086  0.00954  1.0000
  C   C4750     1.0  0.79072  0.74091  0.00087  1.0000
  C   C4751     1.0  0.80240  0.73043  0.00501  1.0000
  C   C4752     1.0  0.80025  0.72029  0.01794  1.0000
  C   C4753     1.0  0.78656  0.72049  0.02671  1.0000
  H   H8138     1.0  0.76778  0.74873  0.00623  1.0000
  H   H8139     1.0  0.79231  0.74879  0.99088  1.0000
  H   H8140     1.0  0.80922  0.71221  0.02125  1.0000
  H   H8141     1.0  0.78520  0.71276  0.03678  1.0000
  C   C4754     1.0  0.76500  0.60260  0.16989  1.0000
  Fe  Fe698     1.0  0.77087  0.83978  0.01833  1.0000
  C   C4755     1.0  0.76734  0.90672  0.04778  1.0000
  C   C4756     1.0  0.76541  0.90522  0.03482  1.0000
  C   C4757     1.0  0.75739  0.89559  0.03477  1.0000
  H   H8142     1.0  0.76893  0.94612  0.13116  1.0000
  S   S1393     1.0  0.75875  0.83895  0.04097  1.0000
  C   C4758     1.0  0.75062  0.73926  0.10782  1.0000
  H   H8143     1.0  0.96408  0.73564  0.06881  1.0000
  S   S1394     1.0  0.83094  0.77342  0.20378  1.0000
  Fe  Fe699     1.0  0.88470  0.76711  0.19226  1.0000
  S   S1395     1.0  0.75954  0.86224  0.01013  1.0000
  H   H8144     1.0  0.76024  0.74342  0.10336  1.0000
  H   H8145     1.0  0.75828  0.72168  0.09706  1.0000
  C   C4759     1.0  0.75119  0.88735  0.04772  1.0000
  H   H8146     1.0  0.75573  0.89475  0.02474  1.0000
  H   H8147     1.0  0.78236  0.97238  0.11603  1.0000
  H   H8148     1.0  0.88581  0.68340  0.14867  1.0000
  Fe  Fe700     1.0  0.74346  0.83012  0.03496  1.0000
  S   S1396     1.0  0.80840  0.65285  0.18930  1.0000
  H   H8149     1.0  0.83095  0.69201  0.20388  1.0000
  H   H8150     1.0  0.80014  0.93931  0.14885  1.0000
  C   C4760     1.0  0.82320  0.92417  0.10036  1.0000
  C   C4761     1.0  0.82212  0.93731  0.09039  1.0000
  C   C4762     1.0  0.83085  0.94668  0.08926  1.0000
  C   C4763     1.0  0.84035  0.94317  0.09844  1.0000
  C   C4764     1.0  0.84117  0.93019  0.10865  1.0000
  C   C4765     1.0  0.83280  0.92061  0.10943  1.0000
  H   H8151     1.0  0.81478  0.94013  0.08333  1.0000
  H   H8152     1.0  0.83014  0.95672  0.08137  1.0000
  H   H8153     1.0  0.84853  0.92735  0.11568  1.0000
  H   H8154     1.0  0.83371  0.91045  0.11712  1.0000
  C   C4766     1.0  0.82328  0.92861  0.16673  1.0000
  C   C4767     1.0  0.81594  0.92051  0.17907  1.0000
  C   C4768     1.0  0.81371  0.90726  0.17877  1.0000
  C   C4769     1.0  0.81881  0.90215  0.16610  1.0000
  C   C4770     1.0  0.82579  0.91043  0.15368  1.0000
  C   C4771     1.0  0.82790  0.92369  0.15396  1.0000
  H   H8155     1.0  0.81224  0.92435  0.18894  1.0000
  C   C4772     1.0  0.75974  0.75661  0.07136  1.0000
  H   H8156     1.0  0.82959  0.90658  0.14383  1.0000
  H   H8157     1.0  0.83289  0.93017  0.14422  1.0000
  C   C4773     1.0  0.92076  0.90009  0.11565  1.0000
  C   C4774     1.0  0.92391  0.89822  0.12902  1.0000
  C   C4775     1.0  0.91662  0.90816  0.13769  1.0000
  C   C4776     1.0  0.90598  0.91980  0.13314  1.0000
  C   C4777     1.0  0.90270  0.92157  0.11986  1.0000
  C   C4778     1.0  0.91024  0.91184  0.11104  1.0000
  H   H8158     1.0  0.93210  0.88924  0.13257  1.0000
  H   H8159     1.0  0.91917  0.90677  0.14796  1.0000
  H   H8160     1.0  0.89452  0.93055  0.11628  1.0000
  H   H8161     1.0  0.90781  0.91332  0.10069  1.0000
  Fe  Fe701     1.0  0.78641  0.85128  0.19211  1.0000
  C   C4779     1.0  0.91494  0.79764  0.17833  1.0000
  C   C4780     1.0  0.91574  0.81100  0.16881  1.0000
  C   C4781     1.0  0.90321  0.82088  0.16613  1.0000
  C   C4782     1.0  0.88993  0.81734  0.17293  1.0000
  H   H8162     1.0  0.75662  0.70541  0.15972  1.0000
  H   H8163     1.0  0.77105  0.88223  0.15600  1.0000
  H   H8164     1.0  0.92601  0.81374  0.16376  1.0000
  H   H8165     1.0  0.88020  0.82501  0.17102  1.0000
  H   H8166     1.0  0.91099  0.95086  0.16264  1.0000
  C   C4783     1.0  0.83888  0.76801  0.13264  1.0000
  C   C4784     1.0  0.83913  0.77507  0.14292  1.0000
  C   C4785     1.0  0.85209  0.77378  0.14664  1.0000
  C   C4786     1.0  0.86480  0.76608  0.13949  1.0000
  C   C4787     1.0  0.86455  0.75948  0.12893  1.0000
  C   C4788     1.0  0.85157  0.76004  0.12589  1.0000
  H   H8167     1.0  0.82930  0.78118  0.14827  1.0000
  H   H8168     1.0  0.85226  0.77887  0.15490  1.0000
  H   H8169     1.0  0.87434  0.75367  0.12329  1.0000
  H   H8170     1.0  0.85150  0.75450  0.11806  1.0000
  C   C4789     1.0  0.81832  0.72479  0.07165  1.0000
  C   C4790     1.0  0.80727  0.72701  0.06464  1.0000
  C   C4791     1.0  0.80309  0.71526  0.06309  1.0000
  C   C4792     1.0  0.80984  0.70125  0.06870  1.0000
  C   C4793     1.0  0.82126  0.69904  0.07523  1.0000
  C   C4794     1.0  0.82547  0.71080  0.07674  1.0000
  H   H8171     1.0  0.80173  0.73780  0.06077  1.0000
  H   H8172     1.0  0.79475  0.71704  0.05743  1.0000
  H   H8173     1.0  0.82669  0.68823  0.07937  1.0000
  H   H8174     1.0  0.83431  0.70901  0.08174  1.0000
  C   C4795     1.0  0.74705  0.91629  0.20511  1.0000
  S   S1397     1.0  0.73814  0.80975  0.05011  1.0000
  H   H8175     1.0  0.74817  0.88274  0.07075  1.0000
  S   S1398     1.0  0.86975  0.75456  0.20922  1.0000
  H   H8176     1.0  0.78167  0.60980  0.17490  1.0000
  C   C4796     1.0  0.79726  0.96642  0.15187  1.0000
  C   C4797     1.0  0.81477  0.79842  0.21117  1.0000
  H   H8177     1.0  0.96319  0.79528  0.09204  1.0000
  C   C4798     1.0  0.79274  0.82130  0.97884  1.0000
  H   H8178     1.0  0.79274  0.97545  0.15747  1.0000
  C   C4799     1.0  0.80652  0.66883  0.17602  1.0000
  C   C4800     1.0  0.79316  0.67505  0.17264  1.0000
  C   C4801     1.0  0.79100  0.68813  0.16286  1.0000
  C   C4802     1.0  0.80238  0.69482  0.15559  1.0000
  C   C4803     1.0  0.81597  0.68855  0.15855  1.0000
  C   C4804     1.0  0.81800  0.67558  0.16892  1.0000
  H   H8179     1.0  0.78442  0.66971  0.17734  1.0000
  H   H8180     1.0  0.78054  0.69275  0.16049  1.0000
  H   H8181     1.0  0.82485  0.69363  0.15285  1.0000
  H   H8182     1.0  0.82843  0.67074  0.17136  1.0000
  C   C4805     1.0  0.91108  0.80831  0.08154  1.0000
  C   C4806     1.0  0.90718  0.81754  0.09108  1.0000
  C   C4807     1.0  0.91769  0.82215  0.09456  1.0000
  C   C4808     1.0  0.93213  0.81764  0.08835  1.0000
  C   C4809     1.0  0.93595  0.80880  0.07847  1.0000
  C   C4810     1.0  0.92548  0.80417  0.07506  1.0000
  H   H8183     1.0  0.89604  0.82092  0.09600  1.0000
  H   H8184     1.0  0.91464  0.82913  0.10203  1.0000
  H   H8185     1.0  0.94707  0.80546  0.07342  1.0000
  H   H8186     1.0  0.92861  0.79733  0.06745  1.0000
  C   C4811     1.0  0.87990  0.77806  0.01262  1.0000
  C   C4812     1.0  0.86640  0.78144  0.00921  1.0000
  C   C4813     1.0  0.86417  0.77575  0.99868  1.0000
  H   H8187     1.0  0.74431  0.77663  0.06870  1.0000
  C   C4814     1.0  0.89116  0.76886  0.00543  1.0000
  H   H8188     1.0  0.85764  0.78861  0.01465  1.0000
  H   H8189     1.0  0.85379  0.77856  0.99604  1.0000
  H   H8190     1.0  0.90161  0.76619  0.00790  1.0000
  C   C4815     1.0  0.90511  0.72677  0.08176  1.0000
  C   C4816     1.0  0.90670  0.71208  0.08784  1.0000
  C   C4817     1.0  0.89586  0.70692  0.09883  1.0000
  C   C4818     1.0  0.88328  0.71640  0.10365  1.0000
  C   C4819     1.0  0.88174  0.73115  0.09775  1.0000
  C   C4820     1.0  0.89269  0.73634  0.08683  1.0000
  H   H8191     1.0  0.91631  0.70465  0.08401  1.0000
  H   H8192     1.0  0.89714  0.69552  0.10343  1.0000
  H   H8193     1.0  0.87230  0.73858  0.10182  1.0000
  H   H8194     1.0  0.89158  0.74770  0.08247  1.0000
  C   C4821     1.0  0.74199  0.77361  0.22277  1.0000
  H   H8195     1.0  0.80748  0.66471  0.14386  1.0000
  H   H8196     1.0  0.74757  0.91334  0.18426  1.0000
  H   H8197     1.0  0.74180  0.83237  0.09634  1.0000
  H   H8198     1.0  0.95665  0.75322  0.04616  1.0000
  C   C4822     1.0  0.82958  0.73154  0.17834  1.0000
  C   C4823     1.0  0.86750  0.70746  0.21299  1.0000
  H   H8199     1.0  0.76710  0.89788  0.14185  1.0000
  H   H8200     1.0  0.97750  0.86210  0.12946  1.0000
  H   H8201     1.0  0.83849  0.71489  0.20168  1.0000
  S   S1399     1.0  0.79034  0.93803  0.07172  1.0000
  Fe  Fe702     1.0  0.82744  0.74780  0.97849  1.0000
  S   S1400     1.0  0.89349  0.75001  0.17946  1.0000
  H   H8202     1.0  0.96523  0.75197  0.00440  1.0000
  C   C4824     1.0  0.76204  0.73073  0.14456  1.0000
  H   H8203     1.0  0.79988  0.74193  0.18976  1.0000
  H   H8204     1.0  0.81427  0.66123  0.12607  1.0000
  H   H8205     1.0  0.89457  0.73576  0.11934  1.0000
  C   C4825     1.0  0.80442  0.66500  0.13382  1.0000
  C   C4826     1.0  0.82729  0.71506  0.20164  1.0000
  H   H8206     1.0  0.75840  0.91706  0.20284  1.0000
  H   H8207     1.0  0.74100  0.87436  0.19150  1.0000
  H   H8208     1.0  0.85058  0.78679  0.20912  1.0000
  H   H8209     1.0  0.79453  0.88695  0.99948  1.0000
  S   S1401     1.0  0.80392  0.87143  0.20862  1.0000
  S   S1402     1.0  0.78376  0.84774  0.21592  1.0000
  C   C4827     1.0  0.80851  0.64764  0.22502  1.0000
  H   H8210     1.0  0.98460  0.74169  0.01625  1.0000
  H   H8211     1.0  0.75180  0.77724  0.04496  1.0000
  H   H8212     1.0  0.74949  0.77068  0.03093  1.0000
  C   C4828     1.0  0.92361  0.95647  0.13103  1.0000
  H   H8213     1.0  0.79743  0.65725  0.13709  1.0000
  H   H8214     1.0  0.81535  0.89891  0.02359  1.0000
  H   H8215     1.0  0.81609  0.95232  0.13103  1.0000
  H   H8216     1.0  0.81723  0.75200  0.19376  1.0000
  S   S1403     1.0  0.73793  0.85987  0.98411  1.0000
  H   H8217     1.0  0.95380  0.77323  0.05936  1.0000
  H   H8218     1.0  0.96746  0.77499  0.11427  1.0000
  C   C4829     1.0  0.79279  0.94214  0.14139  1.0000
  H   H8219     1.0  0.92002  0.94738  0.13939  1.0000
  H   H8220     1.0  0.78214  0.94184  0.14877  1.0000
  C   C4830     1.0  0.77061  0.74261  0.14035  1.0000
  H   H8221     1.0  0.77438  0.70206  0.12655  1.0000
  H   H8222     1.0  0.80373  0.68240  0.10021  1.0000
  C   C4831     1.0  0.74043  0.75928  0.05216  1.0000
  C   C4832     1.0  0.79661  0.66285  0.10399  1.0000
  H   H8223     1.0  0.81743  0.70189  0.19403  1.0000
  H   H8224     1.0  0.82468  0.79917  0.98347  1.0000
  C   C4833     1.0  0.78027  0.60523  0.16648  1.0000
  C   C4834     1.0  0.74260  0.74075  0.16260  1.0000
  H   H8225     1.0  0.77643  0.74331  0.12896  1.0000
  H   H8226     1.0  0.97397  0.71384  0.04985  1.0000
  Fe  Fe703     1.0  0.80700  0.84774  0.21082  1.0000
  C   C4835     1.0  0.74562  0.90711  0.19555  1.0000
  H   H8227     1.0  0.81176  0.84972  0.01986  1.0000
  H   H8228     1.0  0.79118  0.86410  0.99687  1.0000
  H   H8229     1.0  0.90739  0.69791  0.14079  1.0000
  H   H8230     1.0  0.79120  0.70285  0.98088  1.0000
  H   H8231     1.0  0.98375  0.78528  0.02025  1.0000
  H   H8232     1.0  0.87700  0.72678  0.13432  1.0000
  H   H8233     1.0  0.81605  0.89725  0.00601  1.0000
  H   H8234     1.0  0.78885  0.95529  0.11207  1.0000
  C   C4836     1.0  0.90410  0.72812  0.12264  1.0000
  H   H8235     1.0  0.74318  0.81870  0.20434  1.0000
  C   C4837     1.0  0.73929  0.84634  0.21094  1.0000
  H   H8236     1.0  0.87531  0.73509  0.14865  1.0000
  H   H8237     1.0  0.80244  0.65561  0.11215  1.0000
  H   H8238     1.0  0.76422  0.79033  0.21271  1.0000
  H   H8239     1.0  0.82548  0.88274  0.01796  1.0000
  C   C4838     1.0  0.80300  0.87720  0.00203  1.0000
  H   H8240     1.0  0.96179  0.73508  0.01517  1.0000
  C   C4839     1.0  0.85759  0.68636  0.22462  1.0000
  H   H8241     1.0  0.79100  0.92126  0.13971  1.0000
  H   H8242     1.0  0.84106  0.72983  0.17850  1.0000
  C   C4840     1.0  0.85528  0.71592  0.22004  1.0000
  N   N343      1.0  0.79631  0.87448  0.13739  1.0000
  C   C4841     1.0  0.81008  0.87471  0.12622  1.0000
  C   C4842     1.0  0.78620  0.86973  0.13178  1.0000
  C   C4843     1.0  0.79879  0.86413  0.15126  1.0000
  C   C4844     1.0  0.79019  0.88934  0.14032  1.0000
  C   C4845     1.0  0.82223  0.87809  0.13066  1.0000
  C   C4846     1.0  0.78170  0.87964  0.11809  1.0000
  C   C4847     1.0  0.80647  0.84857  0.15010  1.0000
  H   H8243     1.0  0.78494  0.73067  0.20833  1.0000
  H   H8244     1.0  0.81424  0.86441  0.12260  1.0000
  H   H8245     1.0  0.80826  0.88300  0.11635  1.0000
  H   H8246     1.0  0.77632  0.86820  0.14012  1.0000
  H   H8247     1.0  0.79107  0.85905  0.12907  1.0000
  H   H8248     1.0  0.80495  0.86799  0.15657  1.0000
  H   H8249     1.0  0.78853  0.86343  0.15916  1.0000
  H   H8250     1.0  0.74055  0.64570  0.16077  1.0000
  H   H8251     1.0  0.79216  0.96622  0.07863  1.0000
  H   H8252     1.0  0.82564  0.87000  0.14000  1.0000
  H   H8253     1.0  0.83168  0.87803  0.12155  1.0000
  H   H8254     1.0  0.81926  0.88897  0.13295  1.0000
  H   H8255     1.0  0.86477  0.70830  0.15008  1.0000
  C   C4848     1.0  0.73976  0.61212  0.17930  1.0000
  H   H8256     1.0  0.77324  0.87586  0.11581  1.0000
  H   H8257     1.0  0.81735  0.84789  0.14317  1.0000
  H   H8258     1.0  0.80012  0.84327  0.14648  1.0000
  H   H8259     1.0  0.80774  0.84215  0.16096  1.0000
  H   H8260     1.0  0.76352  0.59625  0.18121  1.0000
  C   C4849     1.0  0.82566  0.74628  0.16825  1.0000
  H   H8261     1.0  0.91702  0.95979  0.12291  1.0000
  N   N344      1.0  0.85184  0.80271  0.08866  1.0000
  C   C4850     1.0  0.84698  0.81527  0.07710  1.0000
  C   C4851     1.0  0.83868  0.79780  0.09834  1.0000
  C   C4852     1.0  0.86154  0.79092  0.08134  1.0000
  C   C4853     1.0  0.85970  0.80777  0.09660  1.0000
  C   C4854     1.0  0.85894  0.82063  0.06466  1.0000
  C   C4855     1.0  0.82785  0.80869  0.10668  1.0000
  C   C4856     1.0  0.86311  0.77539  0.09030  1.0000
  C   C4857     1.0  0.86494  0.79698  0.10957  1.0000
  H   H8262     1.0  0.83962  0.81258  0.07209  1.0000
  H   H8263     1.0  0.84080  0.82474  0.08171  1.0000
  H   H8264     1.0  0.84140  0.78806  0.10662  1.0000
  H   H8265     1.0  0.83290  0.79454  0.09206  1.0000
  H   H8266     1.0  0.85774  0.79070  0.07186  1.0000
  H   H8267     1.0  0.87251  0.79301  0.07701  1.0000
  H   H8268     1.0  0.86940  0.81109  0.08929  1.0000
  H   H8269     1.0  0.85343  0.81783  0.10012  1.0000
  H   H8270     1.0  0.86524  0.81232  0.05849  1.0000
  H   H8271     1.0  0.85398  0.82980  0.05694  1.0000
  H   H8272     1.0  0.86628  0.82464  0.06841  1.0000
  H   H8273     1.0  0.81900  0.80353  0.11369  1.0000
  H   H8274     1.0  0.83267  0.81173  0.11391  1.0000
  H   H8275     1.0  0.82295  0.81837  0.09947  1.0000
  H   H8276     1.0  0.87076  0.76804  0.08369  1.0000
  H   H8277     1.0  0.85292  0.77173  0.09343  1.0000
  H   H8278     1.0  0.86742  0.77393  0.09982  1.0000
  H   H8279     1.0  0.87566  0.79026  0.10611  1.0000
  H   H8280     1.0  0.85746  0.79005  0.11594  1.0000
  H   H8281     1.0  0.86573  0.80293  0.11718  1.0000
  N   N345      1.0  0.91120  0.78846  0.13553  1.0000
  C   C4858     1.0  0.89774  0.79484  0.14526  1.0000
  C   C4859     1.0  0.91649  0.77336  0.14340  1.0000
  C   C4860     1.0  0.90713  0.78796  0.12217  1.0000
  C   C4861     1.0  0.92180  0.79790  0.13200  1.0000
  C   C4862     1.0  0.88979  0.81005  0.13901  1.0000
  C   C4863     1.0  0.92019  0.77200  0.15785  1.0000
  C   C4864     1.0  0.91899  0.78099  0.11092  1.0000
  C   C4865     1.0  0.93777  0.79098  0.12706  1.0000
  H   H8282     1.0  0.88993  0.78775  0.14882  1.0000
  H   H8283     1.0  0.90011  0.79566  0.15525  1.0000
  H   H8284     1.0  0.92605  0.76757  0.13689  1.0000
  H   H8285     1.0  0.90834  0.76685  0.14561  1.0000
  H   H8286     1.0  0.89824  0.78227  0.12504  1.0000
  H   H8287     1.0  0.90299  0.79892  0.11632  1.0000
  H   H8288     1.0  0.91904  0.80761  0.12356  1.0000
  H   H8289     1.0  0.92108  0.80208  0.14156  1.0000
  H   H8290     1.0  0.88106  0.81396  0.14769  1.0000
  H   H8291     1.0  0.89683  0.81787  0.13503  1.0000
  H   H8292     1.0  0.88462  0.81007  0.13045  1.0000
  H   H8293     1.0  0.92700  0.77938  0.15713  1.0000
  H   H8294     1.0  0.91035  0.77389  0.16627  1.0000
  H   H8295     1.0  0.92604  0.76087  0.16156  1.0000
  H   H8296     1.0  0.91418  0.78077  0.10216  1.0000
  H   H8297     1.0  0.92386  0.76970  0.11521  1.0000
  H   H8298     1.0  0.92723  0.78748  0.10580  1.0000
  H   H8299     1.0  0.94281  0.79880  0.11810  1.0000
  H   H8300     1.0  0.93992  0.78114  0.12306  1.0000
  H   H8301     1.0  0.94352  0.78888  0.13579  1.0000
  C   C4866     1.0  0.76663  0.67707  0.14169  1.0000
  H   H8302     1.0  0.77889  0.66259  0.12821  1.0000
  H   H8303     1.0  0.76663  0.67673  0.12004  1.0000
  H   H8304     1.0  0.75984  0.68806  0.14112  1.0000
  H   H8305     1.0  0.77392  0.67503  0.14903  1.0000
  H   H8306     1.0  0.92463  0.79006  0.18051  1.0000
  S   S1404     1.0  0.83113  0.76544  0.98608  1.0000
  C   C4867     1.0  0.86457  0.71776  0.15405  1.0000
  H   H8307     1.0  0.97075  0.82664  0.17428  1.0000
  H   H8308     1.0  0.74223  0.88131  0.21085  1.0000
  H   H8309     1.0  0.76233  0.89968  0.07082  1.0000
  H   H8310     1.0  0.77878  0.74026  0.14679  1.0000
  H   H8311     1.0  0.76999  0.91170  0.02477  1.0000
  C   C4868     1.0  0.88915  0.80386  0.18211  1.0000
  H   H8312     1.0  0.96475  0.71925  0.03571  1.0000
  H   H8313     1.0  0.98688  0.70190  0.03026  1.0000
  H   H8314     1.0  0.79380  0.71341  0.20518  1.0000
  H   H8315     1.0  0.98710  0.72782  0.05372  1.0000
  H   H8316     1.0  0.75072  0.84474  0.17062  1.0000
  C   C4869     1.0  0.79012  0.82855  0.98982  1.0000
  H   H8317     1.0  0.78203  0.72004  0.10590  1.0000
  C   C4870     1.0  0.88895  0.76326  0.99482  1.0000
  H   H8318     1.0  0.80343  0.66146  0.09331  1.0000
  C   C4871     1.0  0.78789  0.97647  0.08167  1.0000
  C   C4872     1.0  0.79713  0.68052  0.12771  1.0000
  N   N346      1.0  0.87859  0.88299  0.14423  1.0000
  C   C4873     1.0  0.87657  0.88182  0.13008  1.0000
  C   C4874     1.0  0.87143  0.87213  0.15583  1.0000
  C   C4875     1.0  0.89443  0.87899  0.14366  1.0000
  C   C4876     1.0  0.87236  0.89826  0.14598  1.0000
  C   C4877     1.0  0.88435  0.89093  0.11638  1.0000
  C   C4878     1.0  0.85518  0.87445  0.15734  1.0000
  C   C4879     1.0  0.86829  0.90093  0.16142  1.0000
  H   H8319     1.0  0.88012  0.87046  0.12888  1.0000
  H   H8320     1.0  0.86507  0.88514  0.12964  1.0000
  H   H8321     1.0  0.87303  0.87155  0.16657  1.0000
  H   H8322     1.0  0.87641  0.86109  0.15396  1.0000
  C   C4880     1.0  0.75621  0.62826  0.17128  1.0000
  H   H8323     1.0  0.87985  0.90531  0.13935  1.0000
  H   H8324     1.0  0.86243  0.90266  0.14171  1.0000
  H   H8325     1.0  0.88216  0.90237  0.11688  1.0000
  H   H8326     1.0  0.89606  0.88649  0.11409  1.0000
  H   H8327     1.0  0.88053  0.89063  0.10700  1.0000
  H   H8328     1.0  0.85269  0.87166  0.14837  1.0000
  H   H8329     1.0  0.85073  0.86724  0.16737  1.0000
  H   H8330     1.0  0.84948  0.88557  0.15813  1.0000
  H   H8331     1.0  0.81177  0.94940  0.11621  1.0000
  H   H8332     1.0  0.87268  0.89206  0.16962  1.0000
  H   H8333     1.0  0.85648  0.90384  0.16509  1.0000
  H   H8334     1.0  0.89654  0.88948  0.15957  1.0000
  N   N347      1.0  0.89197  0.71587  0.14818  1.0000
  C   C4881     1.0  0.90280  0.72466  0.13907  1.0000
  C   C4882     1.0  0.89245  0.71407  0.16367  1.0000
  C   C4883     1.0  0.82843  0.78960  0.20885  1.0000
  H   H8335     1.0  0.82392  0.86128  0.01257  1.0000
  C   C4884     1.0  0.90696  0.70620  0.16766  1.0000
  H   H8336     1.0  0.88720  0.97607  0.15251  1.0000
  C   C4885     1.0  0.79720  0.92959  0.13360  1.0000
  H   H8337     1.0  0.90055  0.73506  0.14236  1.0000
  H   H8338     1.0  0.91373  0.71903  0.14065  1.0000
  H   H8339     1.0  0.80217  0.81821  0.21692  1.0000
  H   H8340     1.0  0.88955  0.72475  0.16655  1.0000
  C   C4886     1.0  0.79965  0.82487  0.99889  1.0000
  C   C4887     1.0  0.89916  0.87864  0.15726  1.0000
  C   C4888     1.0  0.73790  0.65777  0.09901  1.0000
  H   H8341     1.0  0.81685  0.65259  0.21662  1.0000
  H   H8342     1.0  0.90540  0.70294  0.17955  1.0000
  H   H8343     1.0  0.91175  0.69634  0.16341  1.0000
  H   H8344     1.0  0.91461  0.71341  0.16398  1.0000
  H   H8345     1.0  0.89497  0.87076  0.16674  1.0000
  Fe  Fe704     1.0  0.75018  0.70238  0.08497  1.0000
  H   H8346     1.0  0.83284  0.74084  0.19954  1.0000
  C   C4889     1.0  0.79567  0.72340  0.20658  1.0000
  Fe  Fe705     1.0  0.85911  0.97631  0.13304  1.0000
  H   H8347     1.0  0.83168  0.74568  0.15712  1.0000
  N   N348      1.0  0.86863  0.74096  0.04471  1.0000
  C   C4890     1.0  0.86961  0.74010  0.02948  1.0000
  C   C4891     1.0  0.88280  0.74328  0.04522  1.0000
  C   C4892     1.0  0.85680  0.75367  0.04805  1.0000
  C   C4893     1.0  0.86526  0.72713  0.05451  1.0000
  C   C4894     1.0  0.85568  0.73946  0.02599  1.0000
  C   C4895     1.0  0.89586  0.73103  0.04222  1.0000
  C   C4896     1.0  0.85736  0.76036  0.06011  1.0000
  C   C4897     1.0  0.86562  0.72461  0.07046  1.0000
  H   H8348     1.0  0.87337  0.74948  0.02171  1.0000
  H   H8349     1.0  0.87762  0.73047  0.02661  1.0000
  H   H8350     1.0  0.88273  0.74513  0.05574  1.0000
  H   H8351     1.0  0.88509  0.75329  0.03737  1.0000
  H   H8352     1.0  0.85666  0.76268  0.03837  1.0000
  H   H8353     1.0  0.84616  0.75085  0.05087  1.0000
  H   H8354     1.0  0.85431  0.72636  0.05459  1.0000
  H   H8355     1.0  0.87223  0.71760  0.05040  1.0000
  H   H8356     1.0  0.85781  0.73936  0.01439  1.0000
  H   H8357     1.0  0.85192  0.72952  0.03213  1.0000
  H   H8358     1.0  0.84701  0.74897  0.02772  1.0000
  H   H8359     1.0  0.89458  0.72073  0.04990  1.0000
  H   H8360     1.0  0.89833  0.72973  0.03100  1.0000
  H   H8361     1.0  0.90539  0.73376  0.04363  1.0000
  H   H8362     1.0  0.84706  0.76803  0.06280  1.0000
  H   H8363     1.0  0.86588  0.76659  0.05645  1.0000
  H   H8364     1.0  0.85891  0.75234  0.07009  1.0000
  H   H8365     1.0  0.85498  0.72903  0.07669  1.0000
  H   H8366     1.0  0.87387  0.72892  0.07228  1.0000
  H   H8367     1.0  0.86842  0.71289  0.07500  1.0000
  N   N349      1.0  0.80184  0.87230  0.01809  1.0000
  H   H8368     1.0  0.89698  0.96226  0.17309  1.0000
  C   C4898     1.0  0.80195  0.88508  0.02343  1.0000
  C   C4899     1.0  0.78765  0.86805  0.02460  1.0000
  C   C4900     1.0  0.81405  0.85969  0.02094  1.0000
  C   C4901     1.0  0.81505  0.80736  0.98526  1.0000
  H   H8369     1.0  0.74254  0.63274  0.07977  1.0000
  C   C4902     1.0  0.78373  0.86319  0.04107  1.0000
  C   C4903     1.0  0.81823  0.85637  0.03562  1.0000
  C   C4904     1.0  0.95606  0.73458  0.06360  1.0000
  H   H8370     1.0  0.73869  0.66873  0.09758  1.0000
  H   H8371     1.0  0.80017  0.88291  0.03527  1.0000
  H   H8372     1.0  0.79283  0.89405  0.02089  1.0000
  H   H8373     1.0  0.77884  0.87700  0.02126  1.0000
  H   H8374     1.0  0.78709  0.85895  0.02055  1.0000
  C   C4905     1.0  0.83777  0.80607  0.21591  1.0000
  H   H8375     1.0  0.76884  0.71392  0.19084  1.0000
  H   H8376     1.0  0.74398  0.91157  0.21673  1.0000
  H   H8377     1.0  0.97222  0.83500  0.18742  1.0000
  H   H8378     1.0  0.74545  0.92355  0.13037  1.0000
  H   H8379     1.0  0.75024  0.71810  0.19088  1.0000
  S   S1405     1.0  0.88162  0.71487  0.20119  1.0000
  C   C4906     1.0  0.83998  0.79354  0.21099  1.0000
  H   H8380     1.0  0.75112  0.68556  0.22358  1.0000
  H   H8381     1.0  0.77280  0.86108  0.04421  1.0000
  H   H8382     1.0  0.76254  0.96187  0.11880  1.0000
  H   H8383     1.0  0.82003  0.84459  0.04006  1.0000
  H   H8384     1.0  0.81025  0.86143  0.04397  1.0000
  H   H8385     1.0  0.98462  0.81987  0.10600  1.0000
  N   N350      1.0  0.79831  0.77638  0.02686  1.0000
  C   C4907     1.0  0.81355  0.77027  0.02865  1.0000
  C   C4908     1.0  0.78939  0.76616  0.03701  1.0000
  C   C4909     1.0  0.79341  0.79088  0.03084  1.0000
  C   C4910     1.0  0.79819  0.77777  0.01137  1.0000
  C   C4911     1.0  0.82421  0.78018  0.02104  1.0000
  C   C4912     1.0  0.79300  0.75104  0.03396  1.0000
  C   C4913     1.0  0.77718  0.79655  0.03573  1.0000
  C   C4914     1.0  0.78360  0.78299  0.00709  1.0000
  H   H8386     1.0  0.81395  0.76715  0.04026  1.0000
  H   H8387     1.0  0.81818  0.76026  0.02449  1.0000
  H   H8388     1.0  0.77789  0.77032  0.03704  1.0000
  H   H8389     1.0  0.79023  0.76491  0.04829  1.0000
  H   H8390     1.0  0.79801  0.79081  0.03989  1.0000
  H   H8391     1.0  0.79741  0.79927  0.02172  1.0000
  H   H8392     1.0  0.80465  0.78551  0.00424  1.0000
  H   H8393     1.0  0.80372  0.76763  0.00769  1.0000
  H   H8394     1.0  0.82556  0.78280  0.00921  1.0000
  H   H8395     1.0  0.82124  0.79022  0.02501  1.0000
  H   H8396     1.0  0.83490  0.77451  0.02328  1.0000
  H   H8397     1.0  0.79142  0.75155  0.02325  1.0000
  H   H8398     1.0  0.80400  0.74509  0.03486  1.0000
  H   H8399     1.0  0.78561  0.74458  0.04191  1.0000
  H   H8400     1.0  0.77283  0.79040  0.04653  1.0000
  H   H8401     1.0  0.77096  0.79670  0.02805  1.0000
  H   H8402     1.0  0.77528  0.80783  0.03673  1.0000
  H   H8403     1.0  0.78061  0.79492  0.00435  1.0000
  H   H8404     1.0  0.77491  0.77866  0.01530  1.0000
  H   H8405     1.0  0.78433  0.77899  0.99745  1.0000
  H   H8406     1.0  0.80991  0.85583  0.99639  1.0000
  H   H8407     1.0  0.75011  0.75043  0.05131  1.0000
  C   C4915     1.0  0.97375  0.78779  0.09226  1.0000
  H   H8408     1.0  0.75489  0.89778  0.19583  1.0000
  C   C4916     1.0  0.79344  0.67880  0.10462  1.0000
  C   C4917     1.0  0.82786  0.70197  0.19585  1.0000
  S   S1406     1.0  0.74046  0.87561  0.04819  1.0000
  C   C4918     1.0  0.78851  0.70889  0.10673  1.0000
  H   H8409     1.0  0.78664  0.65942  0.10494  1.0000
  S   S1407     1.0  0.75688  0.93454  0.08084  1.0000
  H   H8410     1.0  0.79252  0.70715  0.09563  1.0000
  C   C4919     1.0  0.78383  0.96074  0.12123  1.0000
  C   C4920     1.0  0.77471  0.67434  0.12670  1.0000
  S   S1408     1.0  0.82145  0.83091  0.22371  1.0000
  C   C4921     1.0  0.97421  0.72048  0.03875  1.0000
  H   H8411     1.0  0.75932  0.66954  0.14671  1.0000
  H   H8412     1.0  0.81688  0.73108  0.22302  1.0000
  H   H8413     1.0  0.76574  0.76087  0.07654  1.0000
  C   C4922     1.0  0.95864  0.74142  0.04732  1.0000
  Fe  Fe706     1.0  0.76988  0.94696  0.08606  1.0000
  H   H8414     1.0  0.76984  0.70019  0.11116  1.0000
  H   H8415     1.0  0.74019  0.76447  0.08525  1.0000
  H   H8416     1.0  0.75878  0.62525  0.18206  1.0000
  H   H8417     1.0  0.76625  0.73414  0.17111  1.0000
  H   H8418     1.0  0.74064  0.92738  0.20277  1.0000
  H   H8419     1.0  0.78316  0.61230  0.15585  1.0000
  C   C4923     1.0  0.81134  0.97145  0.11467  1.0000
  H   H8420     1.0  0.75679  0.62735  0.13077  1.0000
  N   N351      1.0  0.75400  0.72759  0.16000  1.0000
  H   H8421     1.0  0.77097  0.61722  0.13940  1.0000
  N   N352      1.0  0.98407  0.79501  0.09467  1.0000
  H   H8422     1.0  0.76159  0.84205  0.21030  1.0000
  C   C4924     1.0  0.77900  0.69837  0.11628  1.0000
  H   H8423     1.0  0.78672  0.68464  0.09663  1.0000
  N   N353      1.0  0.97315  0.73598  0.03846  1.0000
  H   H8424     1.0  0.85473  0.72574  0.15184  1.0000
  C   C4925     1.0  0.75294  0.88901  0.06069  1.0000
  Fe  Fe707     1.0  0.87615  0.76182  0.16777  1.0000
  S   S1409     1.0  0.81678  0.88545  0.16534  1.0000
  H   H8425     1.0  0.80875  0.92469  0.13271  1.0000
  H   H8426     1.0  0.89828  0.68119  0.15924  1.0000
  S   S1410     1.0  0.77374  0.93070  0.10622  1.0000
  H   H8427     1.0  0.79759  0.70843  0.11134  1.0000
  H   H8428     1.0  0.89994  0.88668  0.13503  1.0000
  H   H8429     1.0  0.88438  0.70832  0.17128  1.0000
  N   N354      1.0  0.78625  0.68264  0.11899  1.0000
  H   H8430     1.0  0.80600  0.68594  0.12129  1.0000
  Fe  Fe708     1.0  0.80490  0.87288  0.18538  1.0000
  H   H8431     1.0  0.96261  0.77036  0.10046  1.0000
  H   H8432     1.0  0.73918  0.62710  0.15331  1.0000
  C   C4926     1.0  0.81559  0.89116  0.01729  1.0000
  H   H8433     1.0  0.74800  0.60954  0.15106  1.0000
  H   H8434     1.0  0.81927  0.62781  0.21793  1.0000
  S   S1411     1.0  0.74006  0.70220  0.06758  1.0000
  H   H8435     1.0  0.74795  0.81058  0.22122  1.0000
  C   C4927     1.0  0.96438  0.77452  0.05372  1.0000
  H   H8436     1.0  0.77520  0.71853  0.16438  1.0000
  H   H8437     1.0  0.81994  0.81205  0.00311  1.0000
  H   H8438     1.0  0.74223  0.71121  0.17325  1.0000
  S   S1412     1.0  0.79473  0.83186  0.01433  1.0000
  H   H8439     1.0  0.82858  0.85929  0.03419  1.0000
  H   H8440     1.0  0.97686  0.79068  0.11805  1.0000
  C   C4928     1.0  0.96738  0.77949  0.03880  1.0000
  H   H8441     1.0  0.80825  0.90092  0.18838  1.0000
  H   H8442     1.0  0.80156  0.74347  0.21655  1.0000
  C   C4929     1.0  0.92360  0.96881  0.13768  1.0000
  C   C4930     1.0  0.89557  0.70181  0.14356  1.0000
  H   H8443     1.0  0.74204  0.85430  0.09509  1.0000
  C   C4931     1.0  0.76868  0.95778  0.12743  1.0000
  S   S1413     1.0  0.77752  0.63500  0.22077  1.0000
  C   C4932     1.0  0.75789  0.84350  0.18959  1.0000
  Fe  Fe709     1.0  0.87691  0.73881  0.19495  1.0000
  H   H8444     1.0  0.80530  0.72544  0.18412  1.0000
  H   H8445     1.0  0.87885  0.80124  0.18731  1.0000
  H   H8446     1.0  0.85438  0.72735  0.21822  1.0000
  S   S1414     1.0  0.77594  0.84156  0.18101  1.0000
  H   H8447     1.0  0.97749  0.78485  0.08163  1.0000
  H   H8448     1.0  0.96714  0.80645  0.10906  1.0000
  S   S1415     1.0  0.78137  0.87523  0.18831  1.0000
  S   S1416     1.0  0.77052  0.66924  0.20523  1.0000
  C   C4933     1.0  0.97525  0.77067  0.06139  1.0000
  C   C4934     1.0  0.74953  0.72695  0.10431  1.0000
  H   H8449     1.0  0.73882  0.84982  0.07392  1.0000
  H   H8450     1.0  0.80544  0.68445  0.22118  1.0000
  N   N355      1.0  0.82058  0.72948  0.19347  1.0000
  C   C4935     1.0  0.76071  0.62514  0.14079  1.0000
  S   S1417     1.0  0.77320  0.64449  0.18758  1.0000
  H   H8451     1.0  0.87801  0.68615  0.20987  1.0000
  C   C4936     1.0  0.76451  0.72412  0.16956  1.0000
  C   C4937     1.0  0.80538  0.73049  0.19282  1.0000
  H   H8452     1.0  0.88056  0.69214  0.16323  1.0000
  C   C4938     1.0  0.90165  0.79397  0.18483  1.0000
  H   H8453     1.0  0.83615  0.70135  0.18579  1.0000
  H   H8454     1.0  0.91099  0.87518  0.15529  1.0000
  S   S1418     1.0  0.86027  0.74910  0.18200  1.0000
  H   H8455     1.0  0.75247  0.88616  0.17982  1.0000
  H   H8456     1.0  0.82901  0.72347  0.17278  1.0000
  C   C4939     1.0  0.82147  0.74118  0.19995  1.0000
  C   C4940     1.0  0.97702  0.83319  0.17641  1.0000
  C   C4941     1.0  0.87747  0.72450  0.14581  1.0000
  N   N356      1.0  0.90923  0.97765  0.14353  1.0000
  H   H8457     1.0  0.76354  0.75332  0.14093  1.0000
  C   C4942     1.0  0.77317  0.98093  0.08664  1.0000
  S   S1419     1.0  0.74858  0.90262  0.11340  1.0000
  H   H8458     1.0  0.81543  0.74987  0.21905  1.0000
  H   H8459     1.0  0.79935  0.72101  0.21667  1.0000
  H   H8460     1.0  0.76271  0.96337  0.13624  1.0000
  Fe  Fe710     1.0  0.76282  0.63214  0.20871  1.0000
  H   H8461     1.0  0.97793  0.80591  0.06483  1.0000
  Fe  Fe711     1.0  0.76288  0.91747  0.09967  1.0000
  Fe  Fe712     1.0  0.78614  0.64940  0.20002  1.0000
  S   S1420     1.0  0.90086  0.77685  0.19595  1.0000
  H   H8462     1.0  0.73845  0.59064  0.22393  1.0000
  H   H8463     1.0  0.74224  0.73771  0.07548  1.0000
  H   H8464     1.0  0.94990  0.73967  0.04351  1.0000
  H   H8465     1.0  0.97565  0.84353  0.16841  1.0000
  H   H8466     1.0  0.78333  0.87149  0.04673  1.0000
  H   H8467     1.0  0.92985  0.96368  0.14621  1.0000
  H   H8468     1.0  0.79065  0.89754  0.13002  1.0000
  Fe  Fe713     1.0  0.78068  0.87153  0.21178  1.0000
  H   H8469     1.0  0.77715  0.96713  0.14772  1.0000
  H   H8470     1.0  0.75879  0.79595  0.19549  1.0000
  C   C4943     1.0  0.80210  0.86612  0.99422  1.0000
  Fe  Fe714     1.0  0.74433  0.85142  0.00595  1.0000
  Fe  Fe715     1.0  0.76049  0.65463  0.22461  1.0000
  H   H8471     1.0  0.81416  0.74948  0.16799  1.0000
  H   H8472     1.0  0.74332  0.58910  0.17907  1.0000
  S   S1421     1.0  0.75579  0.61181  0.21084  1.0000
  C   C4944     1.0  0.74782  0.71475  0.16200  1.0000
  H   H8473     1.0  0.98042  0.74659  0.05065  1.0000
  H   H8474     1.0  0.75466  0.73411  0.13714  1.0000
  C   C4945     1.0  0.88963  0.68918  0.15449  1.0000
  N   N357      1.0  0.75285  0.61566  0.16823  1.0000
  H   H8475     1.0  0.79682  0.89192  0.14622  1.0000
  H   H8476     1.0  0.77346  0.89920  0.15631  1.0000
  H   H8477     1.0  0.76516  0.59512  0.16329  1.0000
  H   H8478     1.0  0.81337  0.88036  0.99656  1.0000
  H   H8479     1.0  0.90630  0.71836  0.11836  1.0000
  C   C4946     1.0  0.74154  0.88415  0.18286  1.0000
  C   C4947     1.0  0.80847  0.95677  0.12372  1.0000
  C   C4948     1.0  0.96255  0.74584  0.01565  1.0000
  C   C4949     1.0  0.75967  0.79951  0.20476  1.0000
  C   C4950     1.0  0.81240  0.81467  0.99629  1.0000
  H   H8480     1.0  0.80586  0.79546  0.20938  1.0000
  H   H8481     1.0  0.79083  0.85288  0.04494  1.0000
  H   H8482     1.0  0.95200  0.75181  0.02058  1.0000
  S   S1422     1.0  0.74017  0.76202  0.12079  1.0000
  C   C4951     1.0  0.97420  0.74516  0.02342  1.0000
  H   H8483     1.0  0.76591  0.63135  0.16367  1.0000
  H   H8484     1.0  0.97285  0.76616  0.07282  1.0000
  H   H8485     1.0  0.78700  0.97887  0.13446  1.0000
  S   S1423     1.0  0.76339  0.88461  0.22583  1.0000
  C   C4952     1.0  0.74754  0.84513  0.18188  1.0000
  C   C4953     1.0  0.78808  0.96774  0.14116  1.0000
  C   C4954     1.0  0.77458  0.89201  0.14908  1.0000
  H   H8486     1.0  0.97510  0.81686  0.08446  1.0000
  H   H8487     1.0  0.93471  0.95216  0.12560  1.0000
  H   H8488     1.0  0.79074  0.87930  0.10861  1.0000
  Fe  Fe716     1.0  0.74610  0.86070  0.03263  1.0000
  H   H8489     1.0  0.75757  0.70878  0.22062  1.0000
  C   C4955     1.0  0.98446  0.73745  0.04514  1.0000
  S   S1424     1.0  0.84038  0.96935  0.13099  1.0000
  H   H8490     1.0  0.89195  0.70340  0.13347  1.0000
  H   H8491     1.0  0.86350  0.71505  0.16584  1.0000
  H   H8492     1.0  0.91322  0.73345  0.11722  1.0000
  H   H8493     1.0  0.97388  0.75641  0.02355  1.0000
  H   H8494     1.0  0.80191  0.67463  0.21001  1.0000
  H   H8495     1.0  0.82893  0.75482  0.17100  1.0000
  H   H8496     1.0  0.95549  0.72316  0.06578  1.0000
  C   C4956     1.0  0.89991  0.95737  0.16360  1.0000
  C   C4957     1.0  0.75372  0.84388  0.20415  1.0000
  C   C4958     1.0  0.81268  0.81127  0.21548  1.0000
  H   H8497     1.0  0.78809  0.59479  0.16658  1.0000
  C   C4959     1.0  0.98130  0.78137  0.03178  1.0000
  H   H8498     1.0  0.74269  0.71702  0.14118  1.0000
  S   S1425     1.0  0.76122  0.97022  0.08784  1.0000
  H   H8499     1.0  0.76216  0.70309  0.18379  1.0000
  C   C4960     1.0  0.79556  0.71071  0.98346  1.0000
  C   C4961     1.0  0.86859  0.69271  0.21528  1.0000
  H   H8500     1.0  0.98083  0.76500  0.10176  1.0000
  H   H8501     1.0  0.91523  0.97494  0.16375  1.0000
  H   H8502     1.0  0.76068  0.74506  0.07644  1.0000
  H   H8503     1.0  0.94553  0.74022  0.06898  1.0000
  H   H8504     1.0  0.74897  0.65080  0.17162  1.0000
  C   C4962     1.0  0.76102  0.71431  0.18460  1.0000
  C   C4963     1.0  0.74952  0.61918  0.15357  1.0000
  H   H8505     1.0  0.93031  0.97579  0.12938  1.0000
  H   H8506     1.0  0.76756  0.80652  0.20049  1.0000
  H   H8507     1.0  0.74755  0.74986  0.16144  1.0000
  S   S1426     1.0  0.74631  0.66151  0.06936  1.0000
  H   H8508     1.0  0.78709  0.71563  0.99174  1.0000
  C   C4964     1.0  0.74549  0.80822  0.21197  1.0000
  C   C4965     1.0  0.97817  0.79976  0.10873  1.0000
  H   H8509     1.0  0.79968  0.64913  0.21959  1.0000
  H   H8510     1.0  0.73946  0.88191  0.17335  1.0000
  H   H8511     1.0  0.89067  0.98134  0.12431  1.0000
  H   H8512     1.0  0.90848  0.98161  0.11278  1.0000
  H   H8513     1.0  0.76231  0.63547  0.14156  1.0000
  C   C4966     1.0  0.74425  0.77309  0.04169  1.0000
  H   H8514     1.0  0.74152  0.61014  0.19035  1.0000
  C   C4967     1.0  0.98505  0.80843  0.08290  1.0000
  C   C4968     1.0  0.74134  0.65162  0.08701  1.0000
  H   H8515     1.0  0.80461  0.87049  0.98243  1.0000
  H   H8516     1.0  0.84668  0.80905  0.21767  1.0000
  H   H8517     1.0  0.80846  0.96710  0.14653  1.0000
  H   H8518     1.0  0.80474  0.70505  0.98860  1.0000
  C   C4969     1.0  0.74442  0.64209  0.17090  1.0000
  C   C4970     1.0  0.79753  0.67940  0.21961  1.0000
  H   H8519     1.0  0.98372  0.80864  0.12360  1.0000
  C   C4971     1.0  0.73914  0.74633  0.11691  1.0000
  H   H8520     1.0  0.74408  0.81787  0.11968  1.0000
  C   C4972     1.0  0.73995  0.63754  0.08897  1.0000
  H   H8521     1.0  0.81006  0.97910  0.12144  1.0000
  H   H8522     1.0  0.80451  0.97629  0.10675  1.0000
  H   H8523     1.0  0.85856  0.67491  0.22636  1.0000
  C   C4973     1.0  0.98694  0.80855  0.11198  1.0000
  H   H8524     1.0  0.73805  0.83168  0.07433  1.0000
  H   H8525     1.0  0.80846  0.98193  0.07635  1.0000
  H   H8526     1.0  0.73787  0.79102  0.19868  1.0000
  C   C4974     1.0  0.76640  0.76334  0.26149  1.0000
  C   C4975     1.0  0.79235  0.66850  0.23329  1.0000
  C   C4976     1.0  0.78771  0.85796  0.25755  1.0000
  C   C4977     1.0  0.75415  0.67755  0.24527  1.0000
  C   C4978     1.0  0.75992  0.69419  0.25542  1.0000
  C   C4979     1.0  0.85400  0.76578  0.24368  1.0000
  C   C4980     1.0  0.74495  0.85396  0.25587  1.0000
  N   N358      1.0  0.76365  0.66475  0.37432  1.0000
  C   C4981     1.0  0.75093  0.86208  0.24256  1.0000
  C   C4982     1.0  0.75460  0.67901  0.36865  1.0000
  S   S1427     1.0  0.79440  0.73723  0.28514  1.0000
  H   H8527     1.0  0.77142  0.67421  0.40248  1.0000
  H   H8528     1.0  0.75218  0.65483  0.36541  1.0000
  C   C4983     1.0  0.75656  0.68099  0.25698  1.0000
  H   H8529     1.0  0.79965  0.65352  0.26781  1.0000
  H   H8530     1.0  0.77326  0.81342  0.24508  1.0000
  H   H8531     1.0  0.84312  0.74391  0.26406  1.0000
  H   H8532     1.0  0.75309  0.67936  0.35786  1.0000
  C   C4984     1.0  0.76542  0.66381  0.38919  1.0000
  H   H8533     1.0  0.74537  0.69705  0.32809  1.0000
  H   H8534     1.0  0.76339  0.78524  0.28354  1.0000
  Fe  Fe717     1.0  0.78203  0.71256  0.25518  1.0000
  S   S1428     1.0  0.79387  0.68981  0.25865  1.0000
  C   C4985     1.0  0.75371  0.62922  0.27471  1.0000
  Fe  Fe718     1.0  0.79539  0.71905  0.27536  1.0000
  S   S1429     1.0  0.80873  0.69671  0.28055  1.0000
  H   H8535     1.0  0.74226  0.84407  0.25626  1.0000
  Fe  Fe719     1.0  0.81296  0.69815  0.25678  1.0000
  H   H8536     1.0  0.79120  0.80919  0.25831  1.0000
  Fe  Fe720     1.0  0.78866  0.68988  0.28193  1.0000
  S   S1430     1.0  0.78295  0.66944  0.29645  1.0000
  S   S1431     1.0  0.80158  0.72112  0.25139  1.0000
  S   S1432     1.0  0.77488  0.71211  0.27872  1.0000
  H   H8537     1.0  0.77965  0.80714  0.28058  1.0000
  C   C4986     1.0  0.78784  0.82053  0.25293  1.0000
  H   H8538     1.0  0.74572  0.65219  0.33628  1.0000
  H   H8539     1.0  0.77330  0.65390  0.39264  1.0000
  H   H8540     1.0  0.83697  0.76663  0.27042  1.0000
  C   C4987     1.0  0.73833  0.60995  0.30023  1.0000
  H   H8541     1.0  0.74761  0.77171  0.31795  1.0000
  C   C4988     1.0  0.76798  0.67165  0.31061  1.0000
  C   C4989     1.0  0.76217  0.65977  0.31871  1.0000
  H   H8542     1.0  0.77031  0.63492  0.38721  1.0000
  C   C4990     1.0  0.77799  0.81619  0.28571  1.0000
  C   C4991     1.0  0.80406  0.82757  0.26360  1.0000
  C   C4992     1.0  0.77814  0.83075  0.27498  1.0000
  H   H8543     1.0  0.83474  0.78068  0.23957  1.0000
  C   C4993     1.0  0.81193  0.81170  0.26665  1.0000
  H   H8544     1.0  0.76643  0.69420  0.30787  1.0000
  H   H8545     1.0  0.82308  0.63797  0.25381  1.0000
  H   H8546     1.0  0.78619  0.64380  0.24835  1.0000
  H   H8547     1.0  0.76881  0.83224  0.24383  1.0000
  H   H8548     1.0  0.80407  0.83217  0.27263  1.0000
  H   H8549     1.0  0.78652  0.86804  0.24914  1.0000
  H   H8550     1.0  0.75686  0.59591  0.30801  1.0000
  H   H8551     1.0  0.81154  0.66691  0.24759  1.0000
  H   H8552     1.0  0.82191  0.81091  0.26999  1.0000
  C   C4994     1.0  0.81594  0.76415  0.28118  1.0000
  C   C4995     1.0  0.76571  0.63759  0.37760  1.0000
  C   C4996     1.0  0.77278  0.82183  0.25071  1.0000
  H   H8553     1.0  0.79524  0.82175  0.24217  1.0000
  H   H8554     1.0  0.77577  0.84866  0.24928  1.0000
  H   H8555     1.0  0.76226  0.76295  0.25265  1.0000
  C   C4997     1.0  0.82716  0.64713  0.24618  1.0000
  H   H8556     1.0  0.76688  0.64936  0.31611  1.0000
  H   H8557     1.0  0.76258  0.68670  0.38930  1.0000
  H   H8558     1.0  0.78107  0.67749  0.38427  1.0000
  C   C4998     1.0  0.75383  0.68785  0.23237  1.0000
  H   H8559     1.0  0.76487  0.82000  0.26103  1.0000
  H   H8560     1.0  0.81522  0.80749  0.25667  1.0000
  H   H8561     1.0  0.82395  0.78100  0.26403  1.0000
  H   H8562     1.0  0.75771  0.61695  0.23731  1.0000
  H   H8563     1.0  0.78294  0.66568  0.23167  1.0000
  C   C4999     1.0  0.77042  0.67638  0.39115  1.0000
  C   C5000     1.0  0.77817  0.66316  0.36431  1.0000
  N   N359      1.0  0.78911  0.83079  0.26103  1.0000
  H   H8564     1.0  0.77967  0.83794  0.28099  1.0000
  H   H8565     1.0  0.80034  0.78281  0.26051  1.0000
  C   C5001     1.0  0.84551  0.69466  0.23190  1.0000
  H   H8566     1.0  0.75636  0.61405  0.30657  1.0000
  N   N360      1.0  0.80329  0.65505  0.23749  1.0000
  H   H8567     1.0  0.79822  0.85621  0.26020  1.0000
  H   H8568     1.0  0.80248  0.63500  0.25358  1.0000
  C   C5002     1.0  0.77705  0.76412  0.28445  1.0000
  H   H8569     1.0  0.82125  0.75452  0.28821  1.0000
  H   H8570     1.0  0.81580  0.76252  0.23988  1.0000
  H   H8571     1.0  0.81134  0.77297  0.28706  1.0000
  H   H8572     1.0  0.77040  0.65810  0.34764  1.0000
  H   H8573     1.0  0.78580  0.64377  0.27339  1.0000
  C   C5003     1.0  0.75496  0.87469  0.24203  1.0000
  H   H8574     1.0  0.76515  0.73356  0.31480  1.0000
  H   H8575     1.0  0.78117  0.76443  0.29333  1.0000
  C   C5004     1.0  0.79069  0.65173  0.26444  1.0000
  C   C5005     1.0  0.77626  0.75156  0.26711  1.0000
  C   C5006     1.0  0.76694  0.77585  0.27898  1.0000
  H   H8576     1.0  0.75546  0.88922  0.25431  1.0000
  S   S1433     1.0  0.74901  0.78979  0.26040  1.0000
  H   H8577     1.0  0.78318  0.67212  0.36352  1.0000
  H   H8578     1.0  0.76715  0.83559  0.27313  1.0000
  C   C5007     1.0  0.78654  0.84564  0.25159  1.0000
  H   H8579     1.0  0.78597  0.81382  0.29240  1.0000
  H   H8580     1.0  0.78232  0.66172  0.26348  1.0000
  C   C5008     1.0  0.77848  0.66326  0.34860  1.0000
  H   H8581     1.0  0.74311  0.60458  0.29099  1.0000
  H   H8582     1.0  0.85908  0.75418  0.24534  1.0000
  H   H8583     1.0  0.79572  0.78140  0.24493  1.0000
  C   C5009     1.0  0.75644  0.65296  0.37517  1.0000
  S   S1434     1.0  0.83208  0.68606  0.24344  1.0000
  H   H8584     1.0  0.83213  0.65129  0.25248  1.0000
  H   H8585     1.0  0.78584  0.65344  0.36857  1.0000
  C   C5010     1.0  0.76190  0.68508  0.31401  1.0000
  H   H8586     1.0  0.77688  0.67438  0.34198  1.0000
  H   H8587     1.0  0.85498  0.77030  0.25229  1.0000
  C   C5011     1.0  0.79573  0.64580  0.25062  1.0000
  H   H8588     1.0  0.80554  0.80485  0.27533  1.0000
  H   H8589     1.0  0.81100  0.78850  0.24275  1.0000
  S   S1435     1.0  0.76778  0.71912  0.23952  1.0000
  C   C5012     1.0  0.78170  0.75194  0.27850  1.0000
  N   N361      1.0  0.82810  0.76228  0.25493  1.0000
  S   S1436     1.0  0.75321  0.65990  0.24640  1.0000
  H   H8590     1.0  0.80724  0.75756  0.25798  1.0000
  C   C5013     1.0  0.83345  0.74634  0.25956  1.0000
  H   H8591     1.0  0.75952  0.61797  0.27773  1.0000
  C   C5014     1.0  0.82658  0.76908  0.26722  1.0000
  H   H8592     1.0  0.86033  0.77116  0.23352  1.0000
  C   C5015     1.0  0.83693  0.73778  0.24780  1.0000
  H   H8593     1.0  0.81130  0.83287  0.25408  1.0000
  H   H8594     1.0  0.74869  0.63053  0.26563  1.0000
  C   C5016     1.0  0.81544  0.65932  0.24032  1.0000
  C   C5017     1.0  0.83840  0.76881  0.24215  1.0000
  H   H8595     1.0  0.75532  0.66278  0.39732  1.0000
  C   C5018     1.0  0.76075  0.70404  0.24218  1.0000
  H   H8596     1.0  0.82537  0.74158  0.26853  1.0000
  C   C5019     1.0  0.75003  0.68665  0.32546  1.0000
  C   C5020     1.0  0.75248  0.87943  0.25468  1.0000
  H   H8597     1.0  0.75263  0.85847  0.23277  1.0000
  H   H8598     1.0  0.76719  0.81665  0.29289  1.0000
  C   C5021     1.0  0.74668  0.87127  0.26792  1.0000
  H   H8599     1.0  0.75893  0.62978  0.37956  1.0000
  H   H8600     1.0  0.77431  0.63582  0.36800  1.0000
  H   H8601     1.0  0.80677  0.76156  0.27911  1.0000
  H   H8602     1.0  0.82739  0.73886  0.24362  1.0000
  H   H8603     1.0  0.84051  0.72622  0.25255  1.0000
  H   H8604     1.0  0.84574  0.74090  0.23878  1.0000
  H   H8605     1.0  0.77958  0.74219  0.26257  1.0000
  H   H8606     1.0  0.79418  0.84599  0.24097  1.0000
  H   H8607     1.0  0.77896  0.85989  0.26699  1.0000
  H   H8608     1.0  0.74680  0.65291  0.38411  1.0000
  C   C5022     1.0  0.76164  0.77544  0.26748  1.0000
  C   C5023     1.0  0.80491  0.78038  0.24969  1.0000
  H   H8609     1.0  0.78894  0.65694  0.34383  1.0000
  H   H8610     1.0  0.76224  0.69657  0.26440  1.0000
  H   H8611     1.0  0.82114  0.66560  0.23031  1.0000
  C   C5024     1.0  0.75137  0.60902  0.23988  1.0000
  H   H8612     1.0  0.83869  0.76533  0.23232  1.0000
  C   C5025     1.0  0.81404  0.76497  0.25062  1.0000
  H   H8613     1.0  0.76008  0.68791  0.36680  1.0000
  H   H8614     1.0  0.74895  0.60582  0.26269  1.0000
  C   C5026     1.0  0.74630  0.60279  0.25427  1.0000
  H   H8615     1.0  0.76048  0.73715  0.29748  1.0000
  H   H8616     1.0  0.76148  0.75577  0.31608  1.0000
  H   H8617     1.0  0.76183  0.63594  0.27062  1.0000
  C   C5027     1.0  0.75022  0.66135  0.33012  1.0000
  C   C5028     1.0  0.73951  0.68289  0.37801  1.0000
  H   H8618     1.0  0.82315  0.62809  0.23433  1.0000
  C   C5029     1.0  0.74943  0.60627  0.30957  1.0000
  C   C5030     1.0  0.74867  0.60458  0.22890  1.0000
  C   C5031     1.0  0.74041  0.59423  0.23239  1.0000
  H   H8619     1.0  0.74455  0.76487  0.23209  1.0000
  C   C5032     1.0  0.75887  0.73087  0.30872  1.0000
  H   H8620     1.0  0.78801  0.67454  0.24195  1.0000
  C   C5033     1.0  0.75198  0.76060  0.32344  1.0000
  H   H8621     1.0  0.75650  0.67320  0.26709  1.0000
  H   H8622     1.0  0.83562  0.64334  0.23725  1.0000
  C   C5034     1.0  0.74417  0.67481  0.33350  1.0000
  H   H8623     1.0  0.73971  0.68334  0.38898  1.0000
  H   H8624     1.0  0.76339  0.71944  0.30821  1.0000
  H   H8625     1.0  0.74788  0.75932  0.29945  1.0000
  H   H8626     1.0  0.83491  0.71581  0.23520  1.0000
  H   H8627     1.0  0.74910  0.63531  0.29476  1.0000
  H   H8628     1.0  0.80599  0.62536  0.23410  1.0000
  C   C5035     1.0  0.74275  0.63450  0.28758  1.0000
  H   H8629     1.0  0.74518  0.87484  0.27769  1.0000
  H   H8630     1.0  0.74415  0.60513  0.32114  1.0000
  H   H8631     1.0  0.75561  0.76155  0.33268  1.0000
  C   C5036     1.0  0.74300  0.85846  0.26862  1.0000
  H   H8632     1.0  0.73785  0.62906  0.32096  1.0000
  C   C5037     1.0  0.73796  0.59256  0.25782  1.0000
  H   H8633     1.0  0.74183  0.78861  0.23485  1.0000
  H   H8634     1.0  0.74420  0.74203  0.33711  1.0000
  C   C5038     1.0  0.75719  0.70109  0.23079  1.0000
  C   C5039     1.0  0.84430  0.70945  0.22962  1.0000
  C   C5040     1.0  0.74297  0.73263  0.31616  1.0000
  C   C5041     1.0  0.81459  0.63130  0.22828  1.0000
  H   H8635     1.0  0.74251  0.72485  0.32671  1.0000
  C   C5042     1.0  0.74030  0.75168  0.32912  1.0000
  S   S1437     1.0  0.73999  0.80649  0.29504  1.0000
  H   H8636     1.0  0.73771  0.72864  0.30998  1.0000
  C   C5043     1.0  0.75933  0.69457  0.50888  1.0000
  H   H8637     1.0  0.76609  0.73512  0.51860  1.0000
  C   C5044     1.0  0.94098  0.75399  0.69793  1.0000
  C   C5045     1.0  0.92891  0.90053  0.69083  1.0000
  H   H8638     1.0  0.86684  0.80448  0.64554  1.0000
  Fe  Fe721     1.0  0.86727  0.68095  0.68988  1.0000
  S   S1438     1.0  0.84423  0.69007  0.69763  1.0000
  S   S1439     1.0  0.87316  0.66950  0.67153  1.0000
  Fe  Fe722     1.0  0.85178  0.70831  0.70009  1.0000
  S   S1440     1.0  0.83954  0.73080  0.69342  1.0000
  S   S1441     1.0  0.87487  0.70013  0.69046  1.0000
  Fe  Fe723     1.0  0.79567  0.63198  0.66739  1.0000
  S   S1442     1.0  0.81192  0.62801  0.64726  1.0000
  S   S1443     1.0  0.79662  0.61654  0.68852  1.0000
  Fe  Fe724     1.0  0.78033  0.66053  0.65261  1.0000
  S   S1444     1.0  0.79543  0.65893  0.63144  1.0000
  S   S1445     1.0  0.76150  0.67849  0.65715  1.0000
  Fe  Fe725     1.0  0.79299  0.63600  0.63659  1.0000
  S   S1446     1.0  0.78455  0.62983  0.62039  1.0000
  Fe  Fe726     1.0  0.81253  0.65125  0.64431  1.0000
  S   S1447     1.0  0.83211  0.66107  0.63710  1.0000
  S   S1448     1.0  0.77687  0.63829  0.65714  1.0000
  S   S1449     1.0  0.79743  0.65448  0.66505  1.0000
  Fe  Fe727     1.0  0.75236  0.54628  0.58979  1.0000
  H   H8639     1.0  0.79382  0.78315  0.61190  1.0000
  S   S1450     1.0  0.75882  0.52784  0.57791  1.0000
  Fe  Fe728     1.0  0.76208  0.56631  0.60304  1.0000
  H   H8640     1.0  0.77096  0.74671  0.50172  1.0000
  S   S1451     1.0  0.78018  0.57046  0.61030  1.0000
  C   C5046     1.0  0.78984  0.82840  0.58162  1.0000
  H   H8641     1.0  0.91138  0.77249  0.69701  1.0000
  Fe  Fe729     1.0  0.82102  0.97905  0.67405  1.0000
  S   S1452     1.0  0.75657  0.54449  0.61140  1.0000
  S   S1453     1.0  0.76046  0.56691  0.58057  1.0000
  Fe  Fe730     1.0  0.92069  0.84410  0.67004  1.0000
  S   S1454     1.0  0.90114  0.85504  0.68398  1.0000
  S   S1455     1.0  0.94230  0.83799  0.67639  1.0000
  Fe  Fe731     1.0  0.90222  0.83673  0.65326  1.0000
  S   S1456     1.0  0.88168  0.84722  0.66606  1.0000
  S   S1457     1.0  0.90345  0.82215  0.63866  1.0000
  Fe  Fe732     1.0  0.89328  0.86456  0.66347  1.0000
  S   S1458     1.0  0.88377  0.88803  0.65577  1.0000
  Fe  Fe733     1.0  0.89163  0.83665  0.68515  1.0000
  S   S1459     1.0  0.88127  0.82229  0.70475  1.0000
  S   S1460     1.0  0.91351  0.85475  0.64923  1.0000
  S   S1461     1.0  0.91140  0.82516  0.67258  1.0000
  Fe  Fe734     1.0  0.82145  0.79239  0.62344  1.0000
  S   S1462     1.0  0.82690  0.80676  0.60196  1.0000
  S   S1463     1.0  0.79877  0.79892  0.63500  1.0000
  Fe  Fe735     1.0  0.85093  0.77338  0.61906  1.0000
  S   S1464     1.0  0.85826  0.78616  0.59695  1.0000
  S   S1465     1.0  0.86676  0.75551  0.62907  1.0000
  Fe  Fe736     1.0  0.84776  0.80497  0.60749  1.0000
  S   S1466     1.0  0.85536  0.82489  0.60644  1.0000
  Fe  Fe737     1.0  0.83644  0.78629  0.59417  1.0000
  S   S1467     1.0  0.82786  0.78465  0.57588  1.0000
  S   S1468     1.0  0.84146  0.79205  0.62964  1.0000
  S   S1469     1.0  0.83011  0.77197  0.61556  1.0000
  Fe  Fe738     1.0  0.76929  0.74354  0.55216  1.0000
  S   S1470     1.0  0.78959  0.72811  0.54497  1.0000
  S   S1471     1.0  0.75899  0.76339  0.53818  1.0000
  Fe  Fe739     1.0  0.76286  0.72500  0.58216  1.0000
  S   S1472     1.0  0.78251  0.70809  0.57743  1.0000
  S   S1473     1.0  0.74596  0.72475  0.60255  1.0000
  Fe  Fe740     1.0  0.79344  0.72666  0.56685  1.0000
  S   S1474     1.0  0.81320  0.72669  0.57403  1.0000
  Fe  Fe741     1.0  0.77654  0.71129  0.55627  1.0000
  S   S1475     1.0  0.77310  0.69244  0.54990  1.0000
  S   S1476     1.0  0.77398  0.74322  0.57303  1.0000
  S   S1477     1.0  0.75613  0.72696  0.56199  1.0000
  C   C5047     1.0  0.90567  0.89652  0.69106  1.0000
  H   H8642     1.0  0.84947  0.85062  0.57992  1.0000
  S   S1478     1.0  0.75152  0.62554  0.50979  1.0000
  H   H8643     1.0  0.75733  0.48383  0.61647  1.0000
  C   C5048     1.0  0.89307  0.71756  0.71974  1.0000
  H   H8644     1.0  0.75292  0.75182  0.59700  1.0000
  H   H8645     1.0  0.88168  0.70167  0.65540  1.0000
  H   H8646     1.0  0.75398  0.59171  0.55609  1.0000
  Fe  Fe742     1.0  0.81209  0.95555  0.66573  1.0000
  S   S1479     1.0  0.81062  0.94188  0.68794  1.0000
  S   S1480     1.0  0.80903  0.94614  0.64863  1.0000
  H   H8647     1.0  0.75183  0.76823  0.58386  1.0000
  S   S1481     1.0  0.82017  0.96676  0.69684  1.0000
  C   C5049     1.0  0.81009  0.92842  0.72597  1.0000
  Fe  Fe743     1.0  0.83106  0.94732  0.68741  1.0000
  S   S1482     1.0  0.84645  0.92861  0.69793  1.0000
  Fe  Fe744     1.0  0.79984  0.96240  0.69533  1.0000
  H   H8648     1.0  0.86016  0.86945  0.57501  1.0000
  S   S1483     1.0  0.83355  0.95983  0.66450  1.0000
  S   S1484     1.0  0.79978  0.97584  0.67312  1.0000
  Fe  Fe745     1.0  0.75154  0.87524  0.66577  1.0000
  C   C5050     1.0  0.87670  0.69751  0.63670  1.0000
  Fe  Fe746     1.0  0.76836  0.87703  0.63543  1.0000
  S   S1485     1.0  0.75364  0.89729  0.62653  1.0000
  S   S1486     1.0  0.78849  0.86642  0.62209  1.0000
  Fe  Fe747     1.0  0.75395  0.90436  0.64622  1.0000
  S   S1487     1.0  0.75309  0.92540  0.65162  1.0000
  S   S1488     1.0  0.74559  0.81284  0.57111  1.0000
  H   H8649     1.0  0.85334  0.68804  0.63961  1.0000
  S   S1489     1.0  0.77016  0.88511  0.65369  1.0000
  S   S1490     1.0  0.75121  0.86507  0.64840  1.0000
  H   H8650     1.0  0.77366  0.82044  0.56034  1.0000
  H   H8651     1.0  0.89679  0.69512  0.64262  1.0000
  H   H8652     1.0  0.75192  0.81648  0.60937  1.0000
  N   N362      1.0  0.82993  0.63920  0.70483  1.0000
  H   H8653     1.0  0.76413  0.90405  0.67806  1.0000
  C   C5051     1.0  0.85487  0.70868  0.65174  1.0000
  C   C5052     1.0  0.79346  0.94007  0.65008  1.0000
  C   C5053     1.0  0.78113  0.94279  0.66074  1.0000
  C   C5054     1.0  0.76884  0.93816  0.66118  1.0000
  C   C5055     1.0  0.76896  0.93026  0.65137  1.0000
  C   C5056     1.0  0.78144  0.92715  0.64102  1.0000
  C   C5057     1.0  0.79348  0.93234  0.64016  1.0000
  H   H8654     1.0  0.78091  0.94886  0.66834  1.0000
  H   H8655     1.0  0.75916  0.94084  0.66906  1.0000
  H   H8656     1.0  0.78158  0.92130  0.63325  1.0000
  H   H8657     1.0  0.80286  0.93042  0.63171  1.0000
  H   H8658     1.0  0.77774  0.65962  0.60989  1.0000
  C   C5058     1.0  0.75653  0.77827  0.54552  1.0000
  C   C5059     1.0  0.76417  0.48301  0.60571  1.0000
  H   H8659     1.0  0.83648  0.62385  0.72343  1.0000
  C   C5060     1.0  0.75056  0.80042  0.56010  1.0000
  C   C5061     1.0  0.76286  0.78953  0.56098  1.0000
  C   C5062     1.0  0.76585  0.77847  0.55366  1.0000
  H   H8660     1.0  0.76668  0.64638  0.57938  1.0000
  H   H8661     1.0  0.85176  0.62703  0.69986  1.0000
  H   H8662     1.0  0.76982  0.78936  0.56764  1.0000
  H   H8663     1.0  0.77540  0.77013  0.55430  1.0000
  C   C5063     1.0  0.76664  0.69517  0.53425  1.0000
  H   H8664     1.0  0.83886  0.86813  0.62037  1.0000
  H   H8665     1.0  0.83105  0.88925  0.58523  1.0000
  H   H8666     1.0  0.81423  0.62943  0.70169  1.0000
  C   C5064     1.0  0.75142  0.68903  0.52236  1.0000
  C   C5065     1.0  0.75513  0.68924  0.53499  1.0000
  H   H8667     1.0  0.77771  0.66587  0.48836  1.0000
  C   C5066     1.0  0.75054  0.66616  0.71048  1.0000
  C   C5067     1.0  0.82230  0.65475  0.70161  1.0000
  H   H8668     1.0  0.74936  0.68437  0.54535  1.0000
  C   C5068     1.0  0.79549  0.81760  0.63267  1.0000
  C   C5069     1.0  0.78160  0.82596  0.63312  1.0000
  C   C5070     1.0  0.77930  0.84101  0.62995  1.0000
  C   C5071     1.0  0.79085  0.84766  0.62662  1.0000
  C   C5072     1.0  0.80463  0.83924  0.62645  1.0000
  C   C5073     1.0  0.80697  0.82427  0.62940  1.0000
  H   H8669     1.0  0.77272  0.82083  0.63555  1.0000
  H   H8670     1.0  0.76868  0.84744  0.62964  1.0000
  H   H8671     1.0  0.81349  0.84426  0.62433  1.0000
  H   H8672     1.0  0.81769  0.81791  0.62927  1.0000
  C   C5074     1.0  0.82334  0.76851  0.57611  1.0000
  C   C5075     1.0  0.83051  0.75512  0.58273  1.0000
  C   C5076     1.0  0.82749  0.74243  0.58175  1.0000
  C   C5077     1.0  0.81684  0.74297  0.57471  1.0000
  C   C5078     1.0  0.80937  0.75637  0.56848  1.0000
  C   C5079     1.0  0.81280  0.76906  0.56895  1.0000
  H   H8673     1.0  0.83881  0.75455  0.58806  1.0000
  H   H8674     1.0  0.83350  0.73214  0.58638  1.0000
  H   H8675     1.0  0.80130  0.75697  0.56285  1.0000
  H   H8676     1.0  0.80738  0.77931  0.56356  1.0000
  C   C5080     1.0  0.85771  0.91743  0.68645  1.0000
  C   C5081     1.0  0.86214  0.92306  0.67179  1.0000
  C   C5082     1.0  0.87059  0.91394  0.66262  1.0000
  C   C5083     1.0  0.87454  0.89913  0.66799  1.0000
  C   C5084     1.0  0.87048  0.89350  0.68273  1.0000
  C   C5085     1.0  0.86215  0.90267  0.69196  1.0000
  H   H8677     1.0  0.85895  0.93444  0.66748  1.0000
  H   H8678     1.0  0.87381  0.91837  0.65124  1.0000
  H   H8679     1.0  0.87349  0.88208  0.68695  1.0000
  H   H8680     1.0  0.85883  0.89827  0.70332  1.0000
  C   C5086     1.0  0.88953  0.82289  0.63042  1.0000
  C   C5087     1.0  0.87720  0.83389  0.63084  1.0000
  C   C5088     1.0  0.86665  0.83429  0.62368  1.0000
  C   C5089     1.0  0.86816  0.82352  0.61635  1.0000
  C   C5090     1.0  0.88031  0.81235  0.61626  1.0000
  C   C5091     1.0  0.89098  0.81212  0.62314  1.0000
  H   H8681     1.0  0.87596  0.84225  0.63639  1.0000
  H   H8682     1.0  0.85732  0.84298  0.62381  1.0000
  H   H8683     1.0  0.88170  0.80412  0.61048  1.0000
  H   H8684     1.0  0.90050  0.80362  0.62268  1.0000
  C   C5092     1.0  0.86007  0.79916  0.65539  1.0000
  C   C5093     1.0  0.94063  0.76944  0.68890  1.0000
  H   H8685     1.0  0.77428  0.91917  0.71125  1.0000
  C   C5094     1.0  0.84901  0.81111  0.66225  1.0000
  H   H8686     1.0  0.78295  0.94166  0.70098  1.0000
  H   H8687     1.0  0.90263  0.89680  0.70266  1.0000
  C   C5095     1.0  0.78608  0.66732  0.58792  1.0000
  C   C5096     1.0  0.75277  0.60653  0.53567  1.0000
  H   H8688     1.0  0.80097  0.63874  0.51276  1.0000
  H   H8689     1.0  0.75015  0.92216  0.70806  1.0000
  H   H8690     1.0  0.89948  0.91171  0.67164  1.0000
  C   C5097     1.0  0.75702  0.64031  0.71953  1.0000
  H   H8691     1.0  0.87032  0.68825  0.61582  1.0000
  C   C5098     1.0  0.91942  0.88520  0.66376  1.0000
  C   C5099     1.0  0.77409  0.70132  0.52079  1.0000
  C   C5100     1.0  0.75739  0.69145  0.64198  1.0000
  C   C5101     1.0  0.76732  0.69242  0.62890  1.0000
  C   C5102     1.0  0.76402  0.70290  0.61682  1.0000
  C   C5103     1.0  0.75060  0.71218  0.61772  1.0000
  H   H8692     1.0  0.74952  0.65798  0.53460  1.0000
  C   C5104     1.0  0.74408  0.70102  0.64300  1.0000
  H   H8693     1.0  0.77761  0.68524  0.62815  1.0000
  H   H8694     1.0  0.77183  0.70370  0.60684  1.0000
  H   H8695     1.0  0.94086  0.78822  0.72406  1.0000
  C   C5105     1.0  0.81476  0.91402  0.72116  1.0000
  C   C5106     1.0  0.78315  0.61302  0.61846  1.0000
  C   C5107     1.0  0.77195  0.61257  0.61265  1.0000
  C   C5108     1.0  0.77072  0.59961  0.61036  1.0000
  C   C5109     1.0  0.78086  0.58696  0.61358  1.0000
  C   C5110     1.0  0.79202  0.58739  0.61945  1.0000
  C   C5111     1.0  0.79314  0.60031  0.62195  1.0000
  H   H8696     1.0  0.76417  0.62228  0.60987  1.0000
  H   H8697     1.0  0.76210  0.59946  0.60582  1.0000
  H   H8698     1.0  0.79999  0.57769  0.62187  1.0000
  H   H8699     1.0  0.80197  0.60051  0.62614  1.0000
  C   C5112     1.0  0.84724  0.73867  0.67589  1.0000
  C   C5113     1.0  0.86202  0.73519  0.67071  1.0000
  C   C5114     1.0  0.86802  0.74050  0.65631  1.0000
  C   C5115     1.0  0.85925  0.74956  0.64717  1.0000
  C   C5116     1.0  0.84454  0.75366  0.65250  1.0000
  C   C5117     1.0  0.83853  0.74818  0.66687  1.0000
  H   H8700     1.0  0.86887  0.72857  0.67782  1.0000
  H   H8701     1.0  0.87944  0.73757  0.65228  1.0000
  H   H8702     1.0  0.83773  0.76078  0.64549  1.0000
  H   H8703     1.0  0.82710  0.75105  0.67091  1.0000
  C   C5118     1.0  0.86085  0.66603  0.66368  1.0000
  C   C5119     1.0  0.86637  0.65858  0.65256  1.0000
  C   C5120     1.0  0.85734  0.65652  0.64506  1.0000
  C   C5121     1.0  0.84254  0.66154  0.64875  1.0000
  C   C5122     1.0  0.83684  0.66878  0.66010  1.0000
  C   C5123     1.0  0.84599  0.67110  0.66749  1.0000
  H   H8704     1.0  0.87780  0.65470  0.64943  1.0000
  H   H8705     1.0  0.86192  0.65122  0.63614  1.0000
  H   H8706     1.0  0.82547  0.67305  0.66282  1.0000
  H   H8707     1.0  0.84160  0.67707  0.67587  1.0000
  C   C5124     1.0  0.80917  0.87633  0.57818  1.0000
  C   C5125     1.0  0.81572  0.87010  0.59157  1.0000
  C   C5126     1.0  0.74976  0.67199  0.61535  1.0000
  H   H8708     1.0  0.85244  0.69015  0.61456  1.0000
  H   H8709     1.0  0.95881  0.77969  0.69634  1.0000
  C   C5127     1.0  0.75463  0.60189  0.70742  1.0000
  C   C5128     1.0  0.75454  0.61604  0.69975  1.0000
  C   C5129     1.0  0.76747  0.62061  0.69391  1.0000
  C   C5130     1.0  0.78038  0.61116  0.69609  1.0000
  C   C5131     1.0  0.78039  0.59714  0.70406  1.0000
  H   H8710     1.0  0.75874  0.65439  0.54902  1.0000
  H   H8711     1.0  0.76740  0.63151  0.68792  1.0000
  C   C5132     1.0  0.80583  0.65818  0.70483  1.0000
  C   C5133     1.0  0.88605  0.70242  0.64370  1.0000
  H   H8712     1.0  0.79239  0.78275  0.59456  1.0000
  C   C5134     1.0  0.74635  0.83972  0.68957  1.0000
  H   H8713     1.0  0.79348  0.60283  0.66433  1.0000
  H   H8714     1.0  0.88763  0.71344  0.63841  1.0000
  H   H8715     1.0  0.73846  0.67244  0.61546  1.0000
  H   H8716     1.0  0.80419  0.80210  0.59331  1.0000
  H   H8717     1.0  0.75994  0.89697  0.71120  1.0000
  H   H8718     1.0  0.78282  0.83678  0.57502  1.0000
  C   C5135     1.0  0.78932  0.62345  0.51254  1.0000
  C   C5136     1.0  0.74863  0.51515  0.57924  1.0000
  C   C5137     1.0  0.75428  0.50476  0.57078  1.0000
  H   H8719     1.0  0.76319  0.66054  0.63112  1.0000
  H   H8720     1.0  0.76457  0.50482  0.56344  1.0000
  C   C5138     1.0  0.74682  0.49418  0.57185  1.0000
  H   H8721     1.0  0.83272  0.85049  0.60841  1.0000
  S   S1491     1.0  0.75294  0.66011  0.48013  1.0000
  C   C5139     1.0  0.78365  0.65610  0.52897  1.0000
  H   H8722     1.0  0.90616  0.82945  0.70825  1.0000
  H   H8723     1.0  0.95146  0.76941  0.68182  1.0000
  C   C5140     1.0  0.85297  0.64570  0.70602  1.0000
  C   C5141     1.0  0.76293  0.74026  0.50817  1.0000
  H   H8724     1.0  0.81926  0.69056  0.72002  1.0000
  H   H8725     1.0  0.74874  0.75883  0.51486  1.0000
  H   H8726     1.0  0.79264  0.65255  0.49328  1.0000
  H   H8727     1.0  0.92634  0.79525  0.68013  1.0000
  H   H8728     1.0  0.76407  0.82513  0.58195  1.0000
  H   H8729     1.0  0.89383  0.73992  0.71509  1.0000
  H   H8730     1.0  0.79035  0.58981  0.70575  1.0000
  N   N363      1.0  0.83056  0.89941  0.66255  1.0000
  C   C5142     1.0  0.83466  0.91322  0.66161  1.0000
  C   C5143     1.0  0.82215  0.89498  0.67764  1.0000
  C   C5144     1.0  0.82139  0.90238  0.65174  1.0000
  C   C5145     1.0  0.84412  0.88842  0.65905  1.0000
  C   C5146     1.0  0.84220  0.92049  0.64658  1.0000
  C   C5147     1.0  0.82999  0.89225  0.68987  1.0000
  C   C5148     1.0  0.80955  0.89384  0.65548  1.0000
  C   C5149     1.0  0.84238  0.87312  0.66069  1.0000
  H   H8731     1.0  0.82507  0.92128  0.66543  1.0000
  H   H8732     1.0  0.84200  0.91147  0.66878  1.0000
  H   H8733     1.0  0.81848  0.88501  0.67907  1.0000
  H   H8734     1.0  0.81223  0.90337  0.67980  1.0000
  H   H8735     1.0  0.81554  0.91378  0.65000  1.0000
  H   H8736     1.0  0.82812  0.90098  0.64099  1.0000
  H   H8737     1.0  0.84994  0.89169  0.64777  1.0000
  H   H8738     1.0  0.85167  0.88771  0.66574  1.0000
  H   H8739     1.0  0.84386  0.93086  0.64728  1.0000
  H   H8740     1.0  0.85292  0.91398  0.64285  1.0000
  H   H8741     1.0  0.83573  0.92309  0.63838  1.0000
  H   H8742     1.0  0.82298  0.88824  0.70025  1.0000
  H   H8743     1.0  0.84003  0.88395  0.68869  1.0000
  H   H8744     1.0  0.83218  0.90223  0.69086  1.0000
  H   H8745     1.0  0.80493  0.89599  0.64591  1.0000
  H   H8746     1.0  0.80062  0.89752  0.66414  1.0000
  H   H8747     1.0  0.81341  0.88210  0.65864  1.0000
  H   H8748     1.0  0.83749  0.86836  0.67188  1.0000
  H   H8749     1.0  0.85314  0.86617  0.65797  1.0000
  H   H8750     1.0  0.83626  0.87274  0.65311  1.0000
  H   H8751     1.0  0.78702  0.66930  0.49944  1.0000
  H   H8752     1.0  0.77551  0.67851  0.60499  1.0000
  H   H8753     1.0  0.82053  0.86853  0.62071  1.0000
  H   H8754     1.0  0.96203  0.83580  0.69341  1.0000
  H   H8755     1.0  0.91387  0.87662  0.71566  1.0000
  H   H8756     1.0  0.75885  0.55119  0.55142  1.0000
  H   H8757     1.0  0.80135  0.93520  0.72055  1.0000
  H   H8758     1.0  0.90576  0.79146  0.69732  1.0000
  C   C5150     1.0  0.83066  0.84235  0.58415  1.0000
  C   C5151     1.0  0.75104  0.61313  0.65791  1.0000
  C   C5152     1.0  0.83727  0.87984  0.58052  1.0000
  H   H8759     1.0  0.92485  0.76956  0.71695  1.0000
  C   C5153     1.0  0.89823  0.70365  0.72705  1.0000
  C   C5154     1.0  0.82562  0.63001  0.69765  1.0000
  H   H8760     1.0  0.82900  0.83764  0.59583  1.0000
  H   H8761     1.0  0.76386  0.65733  0.69175  1.0000
  H   H8762     1.0  0.76401  0.64781  0.60239  1.0000
  C   C5155     1.0  0.82802  0.63460  0.68112  1.0000
  Fe  Fe748     1.0  0.84854  0.67946  0.71948  1.0000
  H   H8763     1.0  0.82047  0.91578  0.70972  1.0000
  C   C5156     1.0  0.77231  0.95078  0.71945  1.0000
  H   H8764     1.0  0.84804  0.64354  0.68732  1.0000
  H   H8765     1.0  0.76642  0.57033  0.69386  1.0000
  C   C5157     1.0  0.74733  0.60053  0.55012  1.0000
  H   H8766     1.0  0.88747  0.91427  0.68816  1.0000
  H   H8767     1.0  0.82609  0.66006  0.69029  1.0000
  N   N364      1.0  0.83180  0.86647  0.58862  1.0000
  C   C5158     1.0  0.74128  0.92247  0.70322  1.0000
  H   H8768     1.0  0.83952  0.63278  0.67580  1.0000
  H   H8769     1.0  0.82326  0.62794  0.67722  1.0000
  H   H8770     1.0  0.82275  0.64593  0.67753  1.0000
  C   C5159     1.0  0.76754  0.59243  0.70949  1.0000
  H   H8771     1.0  0.90093  0.77819  0.71300  1.0000
  H   H8772     1.0  0.74634  0.75606  0.49896  1.0000
  C   C5160     1.0  0.96494  0.86963  0.66281  1.0000
  H   H8773     1.0  0.92712  0.86058  0.71364  1.0000
  H   H8774     1.0  0.76389  0.66305  0.51314  1.0000
  N   N365      1.0  0.86181  0.70664  0.63661  1.0000
  H   H8775     1.0  0.76763  0.91505  0.68799  1.0000
  H   H8776     1.0  0.80131  0.65980  0.71597  1.0000
  H   H8777     1.0  0.76357  0.60217  0.53054  1.0000
  N   N366      1.0  0.80178  0.71391  0.62216  1.0000
  C   C5161     1.0  0.80687  0.70514  0.63557  1.0000
  C   C5162     1.0  0.81060  0.72504  0.61479  1.0000
  C   C5163     1.0  0.80341  0.70460  0.61186  1.0000
  C   C5164     1.0  0.78620  0.72088  0.62638  1.0000
  C   C5165     1.0  0.80041  0.69185  0.64336  1.0000
  C   C5166     1.0  0.80923  0.73652  0.62314  1.0000
  C   C5167     1.0  0.81859  0.69573  0.60722  1.0000
  C   C5168     1.0  0.77950  0.73174  0.61424  1.0000
  H   H8778     1.0  0.81870  0.70139  0.63325  1.0000
  H   H8779     1.0  0.80440  0.71180  0.64365  1.0000
  H   H8780     1.0  0.80802  0.73073  0.60418  1.0000
  H   H8781     1.0  0.82216  0.71990  0.61238  1.0000
  H   H8782     1.0  0.79608  0.69708  0.61632  1.0000
  H   H8783     1.0  0.80027  0.71118  0.60173  1.0000
  H   H8784     1.0  0.77960  0.71268  0.63086  1.0000
  H   H8785     1.0  0.78433  0.72644  0.63525  1.0000
  H   H8786     1.0  0.80458  0.68664  0.65326  1.0000
  H   H8787     1.0  0.78861  0.69461  0.64680  1.0000
  H   H8788     1.0  0.80361  0.68369  0.63676  1.0000
  H   H8789     1.0  0.79820  0.74302  0.62538  1.0000
  H   H8790     1.0  0.81300  0.73177  0.63329  1.0000
  H   H8791     1.0  0.81610  0.74412  0.61642  1.0000
  H   H8792     1.0  0.82606  0.70268  0.60049  1.0000
  H   H8793     1.0  0.81813  0.68876  0.60040  1.0000
  H   H8794     1.0  0.82302  0.68851  0.61642  1.0000
  H   H8795     1.0  0.78432  0.74129  0.61005  1.0000
  H   H8796     1.0  0.76793  0.73556  0.61859  1.0000
  H   H8797     1.0  0.78024  0.72691  0.60519  1.0000
  C   C5169     1.0  0.86325  0.72079  0.62632  1.0000
  C   C5170     1.0  0.83841  0.71271  0.65581  1.0000
  C   C5171     1.0  0.84944  0.73135  0.62286  1.0000
  H   H8798     1.0  0.85882  0.71699  0.65412  1.0000
  H   H8799     1.0  0.86849  0.72673  0.63054  1.0000
  H   H8800     1.0  0.87078  0.71932  0.61593  1.0000
  H   H8801     1.0  0.83376  0.72226  0.64837  1.0000
  H   H8802     1.0  0.83512  0.71532  0.66662  1.0000
  H   H8803     1.0  0.83370  0.70353  0.65669  1.0000
  H   H8804     1.0  0.84469  0.73827  0.63080  1.0000
  H   H8805     1.0  0.84136  0.72616  0.62205  1.0000
  H   H8806     1.0  0.85208  0.73845  0.61209  1.0000
  N   N367      1.0  0.76538  0.58735  0.66546  1.0000
  C   C5172     1.0  0.77531  0.59278  0.67067  1.0000
  C   C5173     1.0  0.75347  0.58361  0.67808  1.0000
  C   C5174     1.0  0.75897  0.59860  0.65392  1.0000
  C   C5175     1.0  0.77375  0.57450  0.65926  1.0000
  C   C5176     1.0  0.78738  0.59878  0.65907  1.0000
  C   C5177     1.0  0.75754  0.56992  0.68942  1.0000
  H   H8807     1.0  0.79322  0.69966  0.72191  1.0000
  C   C5178     1.0  0.76516  0.56723  0.65370  1.0000
  H   H8808     1.0  0.76926  0.60130  0.67665  1.0000
  H   H8809     1.0  0.78063  0.58412  0.67855  1.0000
  H   H8810     1.0  0.97914  0.84132  0.64348  1.0000
  H   H8811     1.0  0.74892  0.59250  0.68391  1.0000
  H   H8812     1.0  0.76725  0.60068  0.64395  1.0000
  H   H8813     1.0  0.75118  0.59469  0.65064  1.0000
  H   H8814     1.0  0.78228  0.57758  0.64983  1.0000
  H   H8815     1.0  0.77983  0.56626  0.66685  1.0000
  H   H8816     1.0  0.76007  0.77997  0.59734  1.0000
  H   H8817     1.0  0.79511  0.59040  0.65377  1.0000
  C   C5179     1.0  0.89898  0.91150  0.68300  1.0000
  H   H8818     1.0  0.75745  0.49016  0.59819  1.0000
  H   H8819     1.0  0.97933  0.85038  0.69151  1.0000
  H   H8820     1.0  0.75136  0.66002  0.57652  1.0000
  C   C5180     1.0  0.74995  0.76368  0.59561  1.0000
  H   H8821     1.0  0.92488  0.90088  0.70240  1.0000
  H   H8822     1.0  0.75855  0.56378  0.53427  1.0000
  C   C5181     1.0  0.74469  0.78961  0.54396  1.0000
  C   C5182     1.0  0.89769  0.72925  0.72100  1.0000
  H   H8823     1.0  0.77034  0.55567  0.65455  1.0000
  C   C5183     1.0  0.76660  0.90415  0.68825  1.0000
  C   C5184     1.0  0.96279  0.84527  0.68485  1.0000
  H   H8824     1.0  0.75818  0.61840  0.66043  1.0000
  H   H8825     1.0  0.74253  0.53942  0.55213  1.0000
  C   C5185     1.0  0.75750  0.65774  0.59684  1.0000
  H   H8826     1.0  0.75585  0.88743  0.70067  1.0000
  H   H8827     1.0  0.81130  0.86057  0.59798  1.0000
  N   N368      1.0  0.92165  0.89155  0.68638  1.0000
  H   H8828     1.0  0.90380  0.92008  0.68350  1.0000
  H   H8829     1.0  0.83756  0.83376  0.57858  1.0000
  H   H8830     1.0  0.79046  0.80852  0.60692  1.0000
  S   S1492     1.0  0.75575  0.69373  0.49267  1.0000
  H   H8831     1.0  0.87628  0.68622  0.64239  1.0000
  H   H8832     1.0  0.74957  0.68222  0.61798  1.0000
  H   H8833     1.0  0.76034  0.67630  0.68894  1.0000
  H   H8834     1.0  0.81124  0.87819  0.59839  1.0000
  H   H8835     1.0  0.77681  0.79013  0.60718  1.0000
  H   H8836     1.0  0.80122  0.65012  0.70298  1.0000
  H   H8837     1.0  0.78727  0.65682  0.58535  1.0000
  H   H8838     1.0  0.76843  0.66449  0.57358  1.0000
  C   C5186     1.0  0.75484  0.68463  0.59040  1.0000
  C   C5187     1.0  0.85371  0.69857  0.63202  1.0000
  C   C5188     1.0  0.77675  0.48997  0.60392  1.0000
  H   H8839     1.0  0.76027  0.56010  0.68512  1.0000
  H   H8840     1.0  0.95341  0.80315  0.68194  1.0000
  H   H8841     1.0  0.92282  0.88797  0.65186  1.0000
  S   S1493     1.0  0.78074  0.96533  0.71367  1.0000
  H   H8842     1.0  0.93797  0.88953  0.66702  1.0000
  H   H8843     1.0  0.84822  0.85690  0.60123  1.0000
  H   H8844     1.0  0.77660  0.70534  0.49780  1.0000
  N   N369      1.0  0.78512  0.81432  0.58584  1.0000
  H   H8845     1.0  0.83813  0.80889  0.66514  1.0000
  H   H8846     1.0  0.76154  0.68495  0.57947  1.0000
  H   H8847     1.0  0.80084  0.82724  0.57469  1.0000
  H   H8848     1.0  0.85792  0.69864  0.65974  1.0000
  H   H8849     1.0  0.84237  0.70408  0.63257  1.0000
  H   H8850     1.0  0.85238  0.76531  0.68035  1.0000
  C   C5189     1.0  0.86125  0.78345  0.67996  1.0000
  H   H8851     1.0  0.77728  0.89695  0.68862  1.0000
  C   C5190     1.0  0.77602  0.94021  0.71148  1.0000
  H   H8852     1.0  0.80205  0.66829  0.69732  1.0000
  H   H8853     1.0  0.85380  0.79391  0.65154  1.0000
  C   C5191     1.0  0.78942  0.64980  0.54287  1.0000
  C   C5192     1.0  0.83798  0.85522  0.57968  1.0000
  C   C5193     1.0  0.76161  0.82104  0.60464  1.0000
  C   C5194     1.0  0.89214  0.81464  0.71739  1.0000
  H   H8854     1.0  0.85132  0.81318  0.67164  1.0000
  H   H8855     1.0  0.76254  0.63362  0.52963  1.0000
  C   C5195     1.0  0.76905  0.81661  0.59018  1.0000
  H   H8856     1.0  0.76541  0.80698  0.59019  1.0000
  H   H8857     1.0  0.83786  0.85996  0.56813  1.0000
  H   H8858     1.0  0.82512  0.66093  0.70781  1.0000
  H   H8859     1.0  0.79559  0.62768  0.52967  1.0000
  H   H8860     1.0  0.86006  0.70567  0.60842  1.0000
  H   H8861     1.0  0.93005  0.75230  0.70322  1.0000
  C   C5196     1.0  0.78543  0.81718  0.55895  1.0000
  H   H8862     1.0  0.79017  0.82679  0.55478  1.0000
  H   H8863     1.0  0.84845  0.82137  0.65406  1.0000
  H   H8864     1.0  0.78933  0.81084  0.55046  1.0000
  C   C5197     1.0  0.92473  0.87243  0.70970  1.0000
  C   C5198     1.0  0.76107  0.76817  0.60053  1.0000
  H   H8865     1.0  0.73786  0.69734  0.57943  1.0000
  H   H8866     1.0  0.75130  0.48631  0.56524  1.0000
  C   C5199     1.0  0.79041  0.83489  0.59383  1.0000
  H   H8867     1.0  0.74695  0.62049  0.64853  1.0000
  C   C5200     1.0  0.77288  0.65404  0.51046  1.0000
  H   H8868     1.0  0.82963  0.88195  0.60848  1.0000
  C   C5201     1.0  0.90965  0.78052  0.70348  1.0000
  H   H8869     1.0  0.79742  0.87717  0.58161  1.0000
  H   H8870     1.0  0.78436  0.64115  0.55035  1.0000
  C   C5202     1.0  0.79009  0.80772  0.57281  1.0000
  H   H8871     1.0  0.78626  0.79768  0.57500  1.0000
  H   H8872     1.0  0.79267  0.84578  0.58918  1.0000
  C   C5203     1.0  0.85965  0.69563  0.61679  1.0000
  H   H8873     1.0  0.88290  0.69692  0.62560  1.0000
  C   C5204     1.0  0.95391  0.84919  0.67497  1.0000
  H   H8874     1.0  0.76480  0.57227  0.64227  1.0000
  H   H8875     1.0  0.77244  0.50053  0.60702  1.0000
  H   H8876     1.0  0.74804  0.81756  0.65146  1.0000
  H   H8877     1.0  0.76759  0.58149  0.71545  1.0000
  H   H8878     1.0  0.83567  0.88293  0.56930  1.0000
  H   H8879     1.0  0.74723  0.72969  0.53460  1.0000
  H   H8880     1.0  0.74380  0.92880  0.69200  1.0000
  H   H8881     1.0  0.74260  0.68437  0.52304  1.0000
  H   H8882     1.0  0.88655  0.76626  0.63957  1.0000
  H   H8883     1.0  0.84856  0.65741  0.70445  1.0000
  C   C5205     1.0  0.79175  0.63416  0.51980  1.0000
  H   H8884     1.0  0.74455  0.62333  0.69808  1.0000
  H   H8885     1.0  0.94332  0.80998  0.66833  1.0000
  H   H8886     1.0  0.78705  0.65838  0.54891  1.0000
  S   S1494     1.0  0.87139  0.66939  0.71175  1.0000
  C   C5206     1.0  0.79241  0.80405  0.59734  1.0000
  H   H8887     1.0  0.80198  0.80455  0.57002  1.0000
  H   H8888     1.0  0.85642  0.88861  0.57194  1.0000
  Fe  Fe749     1.0  0.74310  0.67830  0.49163  1.0000
  N   N370      1.0  0.77896  0.64586  0.52348  1.0000
  H   H8889     1.0  0.81087  0.88734  0.57299  1.0000
  H   H8890     1.0  0.76804  0.64720  0.50685  1.0000
  C   C5207     1.0  0.78845  0.78923  0.60289  1.0000
  C   C5208     1.0  0.75527  0.56253  0.54608  1.0000
  C   C5209     1.0  0.95507  0.86140  0.66390  1.0000
  H   H8891     1.0  0.89455  0.77877  0.64250  1.0000
  H   H8892     1.0  0.74469  0.66092  0.63778  1.0000
  C   C5210     1.0  0.73882  0.82623  0.64867  1.0000
  C   C5211     1.0  0.77446  0.66917  0.60161  1.0000
  H   H8893     1.0  0.86451  0.64433  0.70074  1.0000
  C   C5212     1.0  0.94544  0.89649  0.68755  1.0000
  H   H8894     1.0  0.75664  0.83865  0.68214  1.0000
  H   H8895     1.0  0.78260  0.49229  0.59255  1.0000
  H   H8896     1.0  0.82024  0.84533  0.58099  1.0000
  H   H8897     1.0  0.74820  0.56897  0.69860  1.0000
  H   H8898     1.0  0.96585  0.87899  0.65414  1.0000
  H   H8899     1.0  0.78432  0.67621  0.57853  1.0000
  C   C5213     1.0  0.77084  0.92761  0.71717  1.0000
  C   C5214     1.0  0.73908  0.56816  0.55131  1.0000
  H   H8900     1.0  0.92301  0.87341  0.66717  1.0000
  C   C5215     1.0  0.75352  0.65980  0.62818  1.0000
  C   C5216     1.0  0.76284  0.66619  0.69699  1.0000
  H   H8901     1.0  0.98178  0.83358  0.66154  1.0000
  H   H8902     1.0  0.80117  0.64558  0.54030  1.0000
  C   C5217     1.0  0.92306  0.77971  0.70875  1.0000
  N   N371      1.0  0.86929  0.78796  0.66473  1.0000
  C   C5218     1.0  0.88411  0.77650  0.64311  1.0000
  H   H8903     1.0  0.86575  0.77048  0.65795  1.0000
  H   H8904     1.0  0.87843  0.78481  0.63533  1.0000
  H   H8905     1.0  0.74482  0.72197  0.51497  1.0000
  H   H8906     1.0  0.81335  0.86950  0.57017  1.0000
  C   C5219     1.0  0.87478  0.77468  0.65851  1.0000
  H   H8907     1.0  0.88838  0.79628  0.65378  1.0000
  C   C5220     1.0  0.84859  0.77658  0.68166  1.0000
  H   H8908     1.0  0.84188  0.77618  0.69271  1.0000
  H   H8909     1.0  0.81901  0.93404  0.72104  1.0000
  C   C5221     1.0  0.88212  0.79311  0.66488  1.0000
  C   C5222     1.0  0.77048  0.70096  0.50818  1.0000
  C   C5223     1.0  0.75561  0.89840  0.70154  1.0000
  H   H8910     1.0  0.78026  0.83620  0.60185  1.0000
  H   H8911     1.0  0.74816  0.67703  0.71278  1.0000
  H   H8912     1.0  0.79922  0.82853  0.59928  1.0000
  H   H8913     1.0  0.85696  0.79249  0.68550  1.0000
  H   H8914     1.0  0.74623  0.65649  0.60089  1.0000
  S   S1495     1.0  0.85339  0.69877  0.72304  1.0000
  H   H8915     1.0  0.87407  0.81613  0.66466  1.0000
  H   H8916     1.0  0.76808  0.81691  0.61290  1.0000
  H   H8917     1.0  0.84163  0.78270  0.67403  1.0000
  H   H8918     1.0  0.74427  0.58252  0.67454  1.0000
  H   H8919     1.0  0.78311  0.70572  0.52007  1.0000
  H   H8920     1.0  0.87307  0.80471  0.68274  1.0000
  C   C5224     1.0  0.87922  0.80623  0.67146  1.0000
  H   H8921     1.0  0.88102  0.76584  0.66554  1.0000
  H   H8922     1.0  0.75817  0.83291  0.60303  1.0000
  H   H8923     1.0  0.92015  0.78834  0.71481  1.0000
  H   H8924     1.0  0.88952  0.78427  0.67068  1.0000
  H   H8925     1.0  0.88962  0.80812  0.67164  1.0000
  S   S1496     1.0  0.74922  0.86637  0.68942  1.0000
  H   H8926     1.0  0.91889  0.86965  0.69165  1.0000
  H   H8927     1.0  0.76071  0.76419  0.61218  1.0000
  C   C5225     1.0  0.73915  0.68843  0.58898  1.0000
  C   C5226     1.0  0.92573  0.87588  0.69337  1.0000
  H   H8928     1.0  0.74831  0.63918  0.71519  1.0000
  H   H8929     1.0  0.94937  0.89957  0.69546  1.0000
  H   H8930     1.0  0.95016  0.76962  0.71199  1.0000
  H   H8931     1.0  0.86863  0.77556  0.68653  1.0000
  C   C5227     1.0  0.74173  0.80069  0.55124  1.0000
  H   H8932     1.0  0.93672  0.87093  0.68829  1.0000
  C   C5228     1.0  0.98445  0.83172  0.65053  1.0000
  C   C5229     1.0  0.76124  0.65749  0.58066  1.0000
  C   C5230     1.0  0.82763  0.63318  0.72086  1.0000
  C   C5231     1.0  0.81199  0.68393  0.72686  1.0000
  H   H8933     1.0  0.89991  0.88879  0.69012  1.0000
  S   S1497     1.0  0.73961  0.57842  0.60944  1.0000
  H   H8934     1.0  0.92616  0.91196  0.68523  1.0000
  N   N372      1.0  0.93638  0.78115  0.69720  1.0000
  H   H8935     1.0  0.92759  0.80415  0.69263  1.0000
  C   C5232     1.0  0.83640  0.86055  0.60275  1.0000
  H   H8936     1.0  0.94857  0.86434  0.65600  1.0000
  H   H8937     1.0  0.76680  0.63950  0.71080  1.0000
  C   C5233     1.0  0.97263  0.85350  0.68378  1.0000
  H   H8938     1.0  0.77207  0.63042  0.54300  1.0000
  H   H8939     1.0  0.78093  0.61769  0.51946  1.0000
  H   H8940     1.0  0.93342  0.77136  0.68146  1.0000
  H   H8941     1.0  0.75410  0.56753  0.66002  1.0000
  H   H8942     1.0  0.95003  0.90207  0.67655  1.0000
  C   C5234     1.0  0.85325  0.87881  0.57937  1.0000
  C   C5235     1.0  0.94836  0.78003  0.70420  1.0000
  C   C5236     1.0  0.83094  0.87041  0.61363  1.0000
  C   C5237     1.0  0.94683  0.80018  0.67632  1.0000
  H   H8943     1.0  0.88572  0.71927  0.71290  1.0000
  H   H8944     1.0  0.76379  0.73200  0.50227  1.0000
  H   H8945     1.0  0.95346  0.79194  0.67024  1.0000
  C   C5238     1.0  0.94623  0.79166  0.71267  1.0000
  C   C5239     1.0  0.93354  0.79540  0.68685  1.0000
  H   H8946     1.0  0.92408  0.90485  0.66477  1.0000
  H   H8947     1.0  0.77507  0.66576  0.53042  1.0000
  H   H8948     1.0  0.94993  0.88484  0.68862  1.0000
  C   C5240     1.0  0.92621  0.89332  0.67031  1.0000
  H   H8949     1.0  0.90762  0.88817  0.66643  1.0000
  C   C5241     1.0  0.97384  0.86568  0.67268  1.0000
  H   H8950     1.0  0.79934  0.61521  0.51060  1.0000
  H   H8951     1.0  0.93995  0.80223  0.70820  1.0000
  H   H8952     1.0  0.94750  0.75103  0.70612  1.0000
  C   C5242     1.0  0.74064  0.71131  0.63085  1.0000
  H   H8953     1.0  0.78655  0.62869  0.50194  1.0000
  C   C5243     1.0  0.76754  0.63912  0.53460  1.0000
  H   H8954     1.0  0.78327  0.60798  0.65089  1.0000
  H   H8955     1.0  0.77191  0.76348  0.59481  1.0000
  H   H8956     1.0  0.85538  0.87830  0.58992  1.0000
  H   H8957     1.0  0.97971  0.82269  0.65094  1.0000
  C   C5244     1.0  0.74800  0.75036  0.50994  1.0000
  H   H8958     1.0  0.95677  0.79359  0.71232  1.0000
  C   C5245     1.0  0.74429  0.61816  0.52787  1.0000
  H   H8959     1.0  0.75658  0.69380  0.59362  1.0000
  N   N373      1.0  0.75923  0.67073  0.60073  1.0000
  H   H8960     1.0  0.93275  0.87651  0.71236  1.0000
  H   H8961     1.0  0.79652  0.66721  0.58994  1.0000
  H   H8962     1.0  0.76123  0.56884  0.54895  1.0000
  Fe  Fe750     1.0  0.87620  0.68967  0.71346  1.0000
  C   C5246     1.0  0.90375  0.82031  0.71665  1.0000
  C   C5247     1.0  0.75513  0.64948  0.54228  1.0000
  H   H8963     1.0  0.79238  0.66060  0.52082  1.0000
  H   H8964     1.0  0.75490  0.64902  0.62617  1.0000
  C   C5248     1.0  0.84577  0.63842  0.69897  1.0000
  H   H8965     1.0  0.94571  0.74632  0.69072  1.0000
  H   H8966     1.0  0.77320  0.66578  0.69929  1.0000
  H   H8967     1.0  0.83156  0.61866  0.70031  1.0000
  C   C5249     1.0  0.78338  0.66068  0.49729  1.0000
  H   H8968     1.0  0.74713  0.64332  0.54956  1.0000
  H   H8969     1.0  0.73759  0.78965  0.53745  1.0000
  Fe  Fe751     1.0  0.73997  0.64737  0.49928  1.0000
  H   H8970     1.0  0.85234  0.64084  0.71762  1.0000
  S   S1498     1.0  0.89308  0.68854  0.72547  1.0000
  H   H8971     1.0  0.78419  0.48341  0.61094  1.0000
  H   H8972     1.0  0.74719  0.98157  0.72364  1.0000
  S   S1499     1.0  0.98643  0.87611  0.67055  1.0000
  H   H8973     1.0  0.74426  0.73801  0.48992  1.0000
  C   C5250     1.0  0.91209  0.81435  0.72706  1.0000
  H   H8974     1.0  0.74318  0.55383  0.52891  1.0000
  N   N374      1.0  0.74055  0.90742  0.70334  1.0000
  N   N375      1.0  0.75325  0.65462  0.72366  1.0000
  H   H8975     1.0  0.74172  0.61203  0.66703  1.0000
  H   H8976     1.0  0.74009  0.87753  0.71764  1.0000
  H   H8977     1.0  0.74116  0.58109  0.52288  1.0000
  H   H8978     1.0  0.74337  0.81900  0.68957  1.0000
  H   H8979     1.0  0.92090  0.81893  0.72659  1.0000
  H   H8980     1.0  0.77579  0.65281  0.72166  1.0000
  C   C5251     1.0  0.74043  0.85220  0.69494  1.0000
  H   H8981     1.0  0.74171  0.83652  0.64761  1.0000
  H   H8982     1.0  0.74094  0.91272  0.68063  1.0000
  H   H8983     1.0  0.74088  0.66552  0.70729  1.0000
  H   H8984     1.0  0.74167  0.78401  0.61756  1.0000
  C   C5252     1.0  0.73889  0.82862  0.69379  1.0000
  H   H8985     1.0  0.80401  0.63583  0.72633  1.0000
  H   H8986     1.0  0.80536  0.90974  0.72186  1.0000
  H   H8987     1.0  0.81393  0.61775  0.72534  1.0000
  H   H8988     1.0  0.73887  0.76236  0.62422  1.0000
  S   S1500     1.0  0.73883  0.59561  0.71366  1.0000
  H   H8989     1.0  0.82797  0.64125  0.72654  1.0000
  H   H8990     1.0  0.76464  0.66851  0.72708  1.0000
  H   H8991     1.0  0.73833  0.80054  0.60501  1.0000
  H   H8992     1.0  0.73893  0.74664  0.53822  1.0000
  H   H8993     1.0  0.73820  0.76106  0.57400  1.0000
  Fe  Fe752     1.0  0.73757  0.57786  0.58756  1.0000
  H   H8994     1.0  0.76160  0.61716  0.72711  1.0000
  H   H8995     1.0  0.73756  0.82555  0.63815  1.0000
  H   H8996     1.0  0.81368  0.95431  0.72791  1.0000
  H   H8997     1.0  0.82217  0.90588  0.72739  1.0000
  H   H8998     1.0  0.80354  0.79578  0.91327  1.0000
  C   C5253     1.0  0.91230  0.71334  0.73729  1.0000
  H   H8999     1.0  0.81084  0.77872  0.92302  1.0000
  Fe  Fe753     1.0  0.82497  0.72297  0.87209  1.0000
  S   S1501     1.0  0.82003  0.74585  0.86013  1.0000
  S   S1502     1.0  0.83651  0.71603  0.89051  1.0000
  Fe  Fe754     1.0  0.81118  0.71263  0.85364  1.0000
  S   S1503     1.0  0.80533  0.73479  0.84045  1.0000
  S   S1504     1.0  0.80407  0.69367  0.85135  1.0000
  Fe  Fe755     1.0  0.82731  0.73671  0.84032  1.0000
  S   S1505     1.0  0.83983  0.74840  0.81983  1.0000
  Fe  Fe756     1.0  0.79871  0.74173  0.86137  1.0000
  S   S1506     1.0  0.77696  0.75584  0.86697  1.0000
  S   S1507     1.0  0.83383  0.71393  0.85207  1.0000
  S   S1508     1.0  0.80305  0.71943  0.87478  1.0000
  Fe  Fe757     1.0  0.76383  0.68490  0.79364  1.0000
  H   H9000     1.0  0.75881  0.73494  0.83362  1.0000
  S   S1509     1.0  0.77608  0.69778  0.79969  1.0000
  Fe  Fe758     1.0  0.75192  0.66066  0.79030  1.0000
  C   C5254     1.0  0.76122  0.92596  0.73048  1.0000
  Fe  Fe759     1.0  0.83963  0.75946  0.94671  1.0000
  Fe  Fe760     1.0  0.76018  0.68343  0.76448  1.0000
  S   S1510     1.0  0.76934  0.68851  0.74076  1.0000
  H   H9001     1.0  0.78953  0.94726  0.74029  1.0000
  S   S1511     1.0  0.77262  0.66809  0.78028  1.0000
  H   H9002     1.0  0.75493  0.86592  0.83172  1.0000
  C   C5255     1.0  0.77307  0.79011  0.91884  1.0000
  Fe  Fe761     1.0  0.92242  0.74466  0.74804  1.0000
  S   S1512     1.0  0.90648  0.75793  0.76280  1.0000
  C   C5256     1.0  0.89692  0.71157  0.77628  1.0000
  Fe  Fe762     1.0  0.94747  0.74494  0.76094  1.0000
  S   S1513     1.0  0.93299  0.75798  0.77656  1.0000
  S   S1514     1.0  0.97161  0.73846  0.75914  1.0000
  Fe  Fe763     1.0  0.91790  0.74361  0.77986  1.0000
  S   S1515     1.0  0.90741  0.73220  0.80175  1.0000
  Fe  Fe764     1.0  0.92305  0.77087  0.75789  1.0000
  S   S1516     1.0  0.92002  0.79483  0.75058  1.0000
  S   S1517     1.0  0.93307  0.72942  0.76542  1.0000
  S   S1518     1.0  0.93838  0.75864  0.74205  1.0000
  H   H9003     1.0  0.80665  0.70727  0.74278  1.0000
  C   C5257     1.0  0.87329  0.72036  0.75946  1.0000
  H   H9004     1.0  0.75274  0.91756  0.80289  1.0000
  H   H9005     1.0  0.76851  0.77329  0.81790  1.0000
  S   S1519     1.0  0.77440  0.81488  0.88109  1.0000
  H   H9006     1.0  0.84150  0.71930  0.95159  1.0000
  H   H9007     1.0  0.83832  0.92098  0.75056  1.0000
  C   C5258     1.0  0.83238  0.92192  0.74227  1.0000
  C   C5259     1.0  0.75040  0.93376  0.81522  1.0000
  N   N376      1.0  0.74526  0.78044  0.84158  1.0000
  H   H9008     1.0  0.87143  0.69920  0.77440  1.0000
  H   H9009     1.0  0.91189  0.69089  0.74153  1.0000
  H   H9010     1.0  0.98467  0.71787  0.78484  1.0000
  C   C5260     1.0  0.78538  0.91854  0.76314  1.0000
  H   H9011     1.0  0.74182  0.67412  0.74182  1.0000
  H   H9012     1.0  0.96564  0.79124  0.75954  1.0000
  S   S1520     1.0  0.81752  0.76232  0.96056  1.0000
  H   H9013     1.0  0.76271  0.65832  0.75087  1.0000
  H   H9014     1.0  0.77806  0.92899  0.76455  1.0000
  S   S1521     1.0  0.84082  0.76077  0.92309  1.0000
  C   C5261     1.0  0.96439  0.70706  0.82970  1.0000
  N   N377      1.0  0.78022  0.80304  0.93420  1.0000
  C   C5262     1.0  0.97598  0.79219  0.75180  1.0000
  C   C5263     1.0  0.79240  0.79027  0.93631  1.0000
  H   H9015     1.0  0.75603  0.69359  0.87710  1.0000
  H   H9016     1.0  0.76606  0.83046  0.94256  1.0000
  H   H9017     1.0  0.82453  0.71217  0.97283  1.0000
  H   H9018     1.0  0.76192  0.98014  0.73804  1.0000
  C   C5264     1.0  0.77065  0.80134  0.96159  1.0000
  H   H9019     1.0  0.95129  0.69770  0.82239  1.0000
  C   C5265     1.0  0.79913  0.94213  0.74498  1.0000
  H   H9020     1.0  0.86645  0.72742  0.75197  1.0000
  S   S1522     1.0  0.84503  0.77779  0.95186  1.0000
  C   C5266     1.0  0.90918  0.80238  0.73792  1.0000
  H   H9021     1.0  0.76056  0.68386  0.84889  1.0000
  H   H9022     1.0  0.79375  0.81809  0.92254  1.0000
  Fe  Fe765     1.0  0.75158  0.82508  0.88952  1.0000
  H   H9023     1.0  0.82233  0.72847  0.93751  1.0000
  H   H9024     1.0  0.74014  0.64735  0.74465  1.0000
  H   H9025     1.0  0.74003  0.73392  0.83852  1.0000
  H   H9026     1.0  0.88097  0.74556  0.77188  1.0000
  S   S1523     1.0  0.74511  0.84455  0.89909  1.0000
  S   S1524     1.0  0.75267  0.70068  0.77691  1.0000
  H   H9027     1.0  0.78215  0.80889  0.91094  1.0000
  H   H9028     1.0  0.77140  0.69290  0.86278  1.0000
  C   C5267     1.0  0.75111  0.72854  0.83417  1.0000
  C   C5268     1.0  0.89779  0.79648  0.73843  1.0000
  H   H9029     1.0  0.95219  0.69457  0.78402  1.0000
  C   C5269     1.0  0.88007  0.74034  0.76369  1.0000
  C   C5270     1.0  0.80582  0.78999  0.92392  1.0000
  H   H9030     1.0  0.79274  0.91510  0.77061  1.0000
  H   H9031     1.0  0.75848  0.96364  0.78341  1.0000
  H   H9032     1.0  0.85075  0.71314  0.78836  1.0000
  H   H9033     1.0  0.77851  0.91059  0.76626  1.0000
  C   C5271     1.0  0.76029  0.62680  0.73134  1.0000
  C   C5272     1.0  0.96609  0.72619  0.80075  1.0000
  H   H9034     1.0  0.81457  0.92186  0.76069  1.0000
  C   C5273     1.0  0.74105  0.98195  0.78572  1.0000
  H   H9035     1.0  0.89813  0.70523  0.76827  1.0000
  C   C5274     1.0  0.76866  0.76559  0.82833  1.0000
  H   H9036     1.0  0.75135  0.94179  0.80482  1.0000
  C   C5275     1.0  0.90732  0.72720  0.72976  1.0000
  H   H9037     1.0  0.79625  0.78974  0.94596  1.0000
  H   H9038     1.0  0.75053  0.91047  0.84483  1.0000
  H   H9039     1.0  0.90142  0.70411  0.78538  1.0000
  Fe  Fe766     1.0  0.82339  0.77968  0.96654  1.0000
  H   H9040     1.0  0.85720  0.74309  0.78244  1.0000
  H   H9041     1.0  0.91981  0.71160  0.74395  1.0000
  H   H9042     1.0  0.90354  0.71976  0.77174  1.0000
  H   H9043     1.0  0.89116  0.73673  0.75776  1.0000
  C   C5276     1.0  0.78769  0.68111  0.73771  1.0000
  H   H9044     1.0  0.83877  0.72866  0.79392  1.0000
  H   H9045     1.0  0.87613  0.70916  0.78854  1.0000
  C   C5277     1.0  0.81715  0.67054  0.73512  1.0000
  C   C5278     1.0  0.80763  0.66217  0.74419  1.0000
  C   C5279     1.0  0.79291  0.66755  0.74564  1.0000
  C   C5280     1.0  0.81375  0.62775  0.72838  1.0000
  H   H9046     1.0  0.85078  0.73786  0.77010  1.0000
  H   H9047     1.0  0.81160  0.65181  0.75060  1.0000
  H   H9048     1.0  0.78563  0.66130  0.75314  1.0000
  H   H9049     1.0  0.75710  0.90988  0.82031  1.0000
  H   H9050     1.0  0.74401  0.94882  0.77955  1.0000
  C   C5281     1.0  0.75676  0.93695  0.73804  1.0000
  H   H9051     1.0  0.74367  0.68563  0.86166  1.0000
  H   H9052     1.0  0.88405  0.71856  0.75230  1.0000
  C   C5282     1.0  0.83622  0.72814  0.90075  1.0000
  C   C5283     1.0  0.84504  0.72382  0.91071  1.0000
  C   C5284     1.0  0.84606  0.73356  0.91813  1.0000
  C   C5285     1.0  0.83814  0.74769  0.91575  1.0000
  C   C5286     1.0  0.82918  0.75196  0.90592  1.0000
  C   C5287     1.0  0.82807  0.74219  0.89859  1.0000
  H   H9053     1.0  0.85147  0.71300  0.91236  1.0000
  H   H9054     1.0  0.85333  0.73028  0.92533  1.0000
  H   H9055     1.0  0.82324  0.76295  0.90378  1.0000
  H   H9056     1.0  0.82120  0.74564  0.89099  1.0000
  C   C5288     1.0  0.85861  0.74380  0.81526  1.0000
  C   C5289     1.0  0.86640  0.73143  0.82278  1.0000
  C   C5290     1.0  0.88141  0.72807  0.81873  1.0000
  C   C5291     1.0  0.88867  0.73702  0.80707  1.0000
  C   C5292     1.0  0.88087  0.74944  0.79965  1.0000
  C   C5293     1.0  0.86589  0.75278  0.80370  1.0000
  H   H9057     1.0  0.86085  0.72437  0.83161  1.0000
  H   H9058     1.0  0.88739  0.71842  0.82450  1.0000
  H   H9059     1.0  0.88636  0.75654  0.79083  1.0000
  H   H9060     1.0  0.85992  0.76243  0.79790  1.0000
  C   C5294     1.0  0.77675  0.77170  0.87172  1.0000
  C   C5295     1.0  0.76367  0.77976  0.87774  1.0000
  C   C5296     1.0  0.76292  0.79312  0.88033  1.0000
  C   C5297     1.0  0.77533  0.79828  0.87747  1.0000
  C   C5298     1.0  0.78850  0.79010  0.87173  1.0000
  C   C5299     1.0  0.78919  0.77689  0.86872  1.0000
  H   H9061     1.0  0.75401  0.77582  0.88020  1.0000
  H   H9062     1.0  0.77056  0.62587  0.73415  1.0000
  H   H9063     1.0  0.79812  0.79410  0.86940  1.0000
  H   H9064     1.0  0.79928  0.77093  0.86381  1.0000
  C   C5300     1.0  0.79676  0.69462  0.83671  1.0000
  C   C5301     1.0  0.79133  0.68307  0.83647  1.0000
  C   C5302     1.0  0.78489  0.68377  0.82525  1.0000
  C   C5303     1.0  0.78387  0.69606  0.81419  1.0000
  C   C5304     1.0  0.78954  0.70748  0.81430  1.0000
  C   C5305     1.0  0.79592  0.70679  0.82550  1.0000
  H   H9065     1.0  0.79203  0.67357  0.84507  1.0000
  H   H9066     1.0  0.78071  0.67485  0.82518  1.0000
  H   H9067     1.0  0.78886  0.71699  0.80572  1.0000
  H   H9068     1.0  0.80016  0.71569  0.82548  1.0000
  H   H9069     1.0  0.80623  0.75110  0.93300  1.0000
  S   S1525     1.0  0.74894  0.63784  0.79768  1.0000
  C   C5306     1.0  0.78540  0.81639  0.93260  1.0000
  C   C5307     1.0  0.86832  0.70606  0.76442  1.0000
  H   H9070     1.0  0.81760  0.94967  0.74574  1.0000
  C   C5308     1.0  0.97422  0.75728  0.77397  1.0000
  C   C5309     1.0  0.73817  0.84973  0.97177  1.0000
  H   H9071     1.0  0.76817  0.79254  0.90943  1.0000
  H   H9072     1.0  0.86162  0.75714  0.75733  1.0000
  H   H9073     1.0  0.96268  0.76029  0.77644  1.0000
  C   C5310     1.0  0.75748  0.91913  0.81107  1.0000
  H   H9074     1.0  0.76583  0.78486  0.92822  1.0000
  H   H9075     1.0  0.75972  0.95722  0.73897  1.0000
  H   H9076     1.0  0.74777  0.96115  0.81584  1.0000
  H   H9077     1.0  0.76810  0.83251  0.92342  1.0000
  H   H9078     1.0  0.77269  0.72519  0.87484  1.0000
  C   C5311     1.0  0.77384  0.83042  0.93214  1.0000
  H   H9079     1.0  0.75267  0.79943  0.88446  1.0000
  N   N378      1.0  0.80534  0.92730  0.74199  1.0000
  H   H9080     1.0  0.79420  0.74764  0.94989  1.0000
  C   C5312     1.0  0.74725  0.96797  0.78345  1.0000
  H   H9081     1.0  0.97658  0.77068  0.78657  1.0000
  C   C5313     1.0  0.77501  0.80423  0.92092  1.0000
  C   C5314     1.0  0.79934  0.72272  0.97023  1.0000
  H   H9082     1.0  0.93396  0.71565  0.81197  1.0000
  C   C5315     1.0  0.76796  0.80128  0.94703  1.0000
  C   C5316     1.0  0.75510  0.71300  0.84270  1.0000
  H   H9083     1.0  0.97613  0.70372  0.82885  1.0000
  H   H9084     1.0  0.79271  0.72111  0.74943  1.0000
  H   H9085     1.0  0.78346  0.78254  0.91640  1.0000
  C   C5317     1.0  0.76636  0.64996  0.74441  1.0000
  H   H9086     1.0  0.76895  0.91890  0.80605  1.0000
  H   H9087     1.0  0.79540  0.94163  0.75672  1.0000
  N   N379      1.0  0.95661  0.71555  0.80512  1.0000
  H   H9088     1.0  0.97336  0.79836  0.74141  1.0000
  H   H9089     1.0  0.77301  0.75469  0.82605  1.0000
  H   H9090     1.0  0.75014  0.98195  0.75476  1.0000
  C   C5318     1.0  0.80448  0.70950  0.95135  1.0000
  H   H9091     1.0  0.85473  0.72142  0.80047  1.0000
  H   H9092     1.0  0.85661  0.70801  0.76564  1.0000
  H   H9093     1.0  0.75829  0.80977  0.94526  1.0000
  H   H9094     1.0  0.83857  0.91335  0.73637  1.0000
  H   H9095     1.0  0.75576  0.75826  0.84857  1.0000
  H   H9096     1.0  0.77360  0.81134  0.96145  1.0000
  H   H9097     1.0  0.79619  0.73778  0.93622  1.0000
  C   C5319     1.0  0.85024  0.72345  0.79085  1.0000
  C   C5320     1.0  0.76654  0.71735  0.87508  1.0000
  H   H9098     1.0  0.75659  0.71923  0.88335  1.0000
  H   H9099     1.0  0.92536  0.73726  0.82135  1.0000
  H   H9100     1.0  0.82375  0.69753  0.93894  1.0000
  H   H9101     1.0  0.77453  0.71747  0.85260  1.0000
  H   H9102     1.0  0.74750  0.76133  0.83391  1.0000
  H   H9103     1.0  0.81946  0.73680  0.95186  1.0000
  H   H9104     1.0  0.74118  0.77303  0.86475  1.0000
  H   H9105     1.0  0.96953  0.69509  0.81335  1.0000
  C   C5321     1.0  0.74442  0.87182  0.83595  1.0000
  H   H9106     1.0  0.74915  0.93587  0.74819  1.0000
  H   H9107     1.0  0.76293  0.79149  0.83248  1.0000
  H   H9108     1.0  0.77312  0.70650  0.87841  1.0000
  N   N380      1.0  0.81061  0.71795  0.95774  1.0000
  H   H9109     1.0  0.81290  0.62504  0.74019  1.0000
  H   H9110     1.0  0.83909  0.70709  0.94246  1.0000
  S   S1526     1.0  0.75538  0.90990  0.73785  1.0000
  H   H9111     1.0  0.79384  0.71560  0.94919  1.0000
  H   H9112     1.0  0.77774  0.64523  0.74485  1.0000
  H   H9113     1.0  0.87368  0.69954  0.75615  1.0000
  H   H9114     1.0  0.77902  0.83957  0.93005  1.0000
  N   N381      1.0  0.75409  0.71120  0.85852  1.0000
  C   C5322     1.0  0.98220  0.72008  0.79573  1.0000
  H   H9115     1.0  0.75949  0.73150  0.85664  1.0000
  H   H9116     1.0  0.78892  0.77996  0.93886  1.0000
  S   S1527     1.0  0.83534  0.66446  0.73502  1.0000
  N   N382      1.0  0.87294  0.72781  0.77091  1.0000
  C   C5323     1.0  0.79344  0.91917  0.74734  1.0000
  H   H9117     1.0  0.87878  0.76098  0.74861  1.0000
  H   H9118     1.0  0.76062  0.80071  0.96991  1.0000
  H   H9119     1.0  0.75159  0.62613  0.74110  1.0000
  C   C5324     1.0  0.93675  0.73161  0.82068  1.0000
  S   S1528     1.0  0.80678  0.80012  0.96451  1.0000
  H   H9120     1.0  0.76448  0.81191  0.92092  1.0000
  C   C5325     1.0  0.85773  0.73370  0.77806  1.0000
  H   H9121     1.0  0.88088  0.72431  0.79000  1.0000
  H   H9122     1.0  0.87311  0.74834  0.74305  1.0000
  C   C5326     1.0  0.75372  0.76605  0.83844  1.0000
  C   C5327     1.0  0.98214  0.76317  0.77971  1.0000
  H   H9123     1.0  0.75171  0.72830  0.82289  1.0000
  C   C5328     1.0  0.75530  0.68419  0.86025  1.0000
  H   H9124     1.0  0.94898  0.69057  0.80320  1.0000
  H   H9125     1.0  0.81818  0.90758  0.75180  1.0000
  C   C5329     1.0  0.81355  0.70506  0.93733  1.0000
  H   H9126     1.0  0.81375  0.79467  0.92603  1.0000
  C   C5330     1.0  0.88113  0.71824  0.78204  1.0000
  H   H9127     1.0  0.79087  0.81525  0.94135  1.0000
  H   H9128     1.0  0.81551  0.71439  0.92840  1.0000
  H   H9129     1.0  0.76175  0.78251  0.85047  1.0000
  H   H9130     1.0  0.95707  0.71831  0.78251  1.0000
  H   H9131     1.0  0.76472  0.79104  0.94854  1.0000
  H   H9132     1.0  0.77888  0.79193  0.96520  1.0000
  H   H9133     1.0  0.89541  0.78732  0.74683  1.0000
  N   N383      1.0  0.86045  0.75474  0.86205  1.0000
  C   C5331     1.0  0.86374  0.75029  0.87685  1.0000
  C   C5332     1.0  0.85799  0.74167  0.85898  1.0000
  C   C5333     1.0  0.84679  0.76613  0.86256  1.0000
  C   C5334     1.0  0.87279  0.76044  0.85142  1.0000
  C   C5335     1.0  0.86446  0.76241  0.88338  1.0000
  C   C5336     1.0  0.87056  0.72848  0.85937  1.0000
  C   C5337     1.0  0.84148  0.77250  0.84846  1.0000
  C   C5338     1.0  0.87466  0.76018  0.83545  1.0000
  H   H9134     1.0  0.85575  0.74451  0.88468  1.0000
  H   H9135     1.0  0.87420  0.74252  0.87689  1.0000
  H   H9136     1.0  0.85508  0.74392  0.84847  1.0000
  H   H9137     1.0  0.84862  0.73811  0.86694  1.0000
  H   H9138     1.0  0.83795  0.76192  0.87091  1.0000
  H   H9139     1.0  0.84788  0.77557  0.86575  1.0000
  H   H9140     1.0  0.87209  0.77168  0.85193  1.0000
  H   H9141     1.0  0.88307  0.75413  0.85439  1.0000
  H   H9142     1.0  0.85362  0.76874  0.88716  1.0000
  H   H9143     1.0  0.86902  0.75755  0.89311  1.0000
  H   H9144     1.0  0.87133  0.76959  0.87586  1.0000
  H   H9145     1.0  0.87171  0.72329  0.87056  1.0000
  H   H9146     1.0  0.86827  0.72032  0.85513  1.0000
  H   H9147     1.0  0.88078  0.73115  0.85269  1.0000
  H   H9148     1.0  0.83077  0.77968  0.85076  1.0000
  H   H9149     1.0  0.84015  0.76431  0.84362  1.0000
  H   H9150     1.0  0.84858  0.77924  0.84051  1.0000
  H   H9151     1.0  0.87827  0.76998  0.82851  1.0000
  H   H9152     1.0  0.86497  0.75999  0.83231  1.0000
  H   H9153     1.0  0.88334  0.75105  0.83246  1.0000
  H   H9154     1.0  0.97680  0.80943  0.76044  1.0000
  N   N384      1.0  0.81415  0.69281  0.76958  1.0000
  C   C5339     1.0  0.80417  0.70715  0.76572  1.0000
  C   C5340     1.0  0.81710  0.69182  0.78397  1.0000
  C   C5341     1.0  0.80637  0.68130  0.77100  1.0000
  C   C5342     1.0  0.82750  0.69191  0.75776  1.0000
  C   C5343     1.0  0.79816  0.70965  0.75226  1.0000
  C   C5344     1.0  0.82302  0.70421  0.78495  1.0000
  C   C5345     1.0  0.81409  0.66564  0.77577  1.0000
  C   C5346     1.0  0.84123  0.68139  0.76172  1.0000
  H   H9155     1.0  0.79483  0.70884  0.77480  1.0000
  H   H9156     1.0  0.80956  0.71614  0.76375  1.0000
  H   H9157     1.0  0.82460  0.68174  0.78752  1.0000
  H   H9158     1.0  0.80718  0.69136  0.79248  1.0000
  H   H9159     1.0  0.79588  0.68301  0.77872  1.0000
  H   H9160     1.0  0.80385  0.68189  0.76064  1.0000
  H   H9161     1.0  0.82554  0.68914  0.74847  1.0000
  H   H9162     1.0  0.83032  0.70263  0.75351  1.0000
  Fe  Fe767     1.0  0.85256  0.76196  0.97095  1.0000
  C   C5347     1.0  0.88916  0.80274  0.72831  1.0000
  H   H9163     1.0  0.78991  0.70333  0.75433  1.0000
  H   H9164     1.0  0.82705  0.70119  0.79499  1.0000
  H   H9165     1.0  0.83190  0.70661  0.77575  1.0000
  H   H9166     1.0  0.81444  0.71405  0.78565  1.0000
  H   H9167     1.0  0.81706  0.66345  0.78623  1.0000
  H   H9168     1.0  0.82346  0.66238  0.76733  1.0000
  H   H9169     1.0  0.80668  0.65856  0.77720  1.0000
  H   H9170     1.0  0.84760  0.67684  0.75226  1.0000
  H   H9171     1.0  0.83955  0.67211  0.77069  1.0000
  H   H9172     1.0  0.84819  0.68719  0.76383  1.0000
  S   S1529     1.0  0.84932  0.74330  0.96429  1.0000
  C   C5348     1.0  0.87276  0.75225  0.75260  1.0000
  H   H9173     1.0  0.79750  0.90781  0.74626  1.0000
  H   H9174     1.0  0.76062  0.64124  0.74991  1.0000
  H   H9175     1.0  0.74463  0.86044  0.85787  1.0000
  C   C5349     1.0  0.76381  0.71977  0.85992  1.0000
  H   H9176     1.0  0.73944  0.84738  0.80113  1.0000
  H   H9177     1.0  0.80762  0.69924  0.93374  1.0000
  C   C5350     1.0  0.79724  0.68912  0.72799  1.0000
  C   C5351     1.0  0.76535  0.65683  0.72855  1.0000
  H   H9178     1.0  0.75916  0.67344  0.86677  1.0000
  H   H9179     1.0  0.95961  0.70067  0.84017  1.0000
  C   C5352     1.0  0.98122  0.74730  0.76536  1.0000
  C   C5353     1.0  0.74787  0.80341  0.84729  1.0000
  S   S1530     1.0  0.74027  0.67494  0.77356  1.0000
  C   C5354     1.0  0.81719  0.91938  0.74986  1.0000
  C   C5355     1.0  0.75508  0.78903  0.84268  1.0000
  H   H9180     1.0  0.96965  0.70317  0.78926  1.0000
  C   C5356     1.0  0.96029  0.70332  0.81744  1.0000
  H   H9181     1.0  0.82265  0.69735  0.96746  1.0000
  C   C5357     1.0  0.94863  0.69947  0.79357  1.0000
  H   H9182     1.0  0.93744  0.70548  0.79360  1.0000
  H   H9183     1.0  0.93821  0.73106  0.79885  1.0000
  H   H9184     1.0  0.78530  0.92381  0.74064  1.0000
  C   C5358     1.0  0.76254  0.94921  0.73267  1.0000
  H   H9185     1.0  0.94282  0.74004  0.81856  1.0000
  H   H9186     1.0  0.77630  0.76743  0.83357  1.0000
  H   H9187     1.0  0.98629  0.71026  0.80331  1.0000
  H   H9188     1.0  0.96510  0.73163  0.80940  1.0000
  Fe  Fe768     1.0  0.73940  0.91130  0.75862  1.0000
  H   H9189     1.0  0.96081  0.71840  0.83055  1.0000
  H   H9190     1.0  0.74846  0.70685  0.84064  1.0000
  H   H9191     1.0  0.75738  0.93574  0.82118  1.0000
  C   C5359     1.0  0.94119  0.72328  0.80862  1.0000
  H   H9192     1.0  0.78507  0.82389  0.97216  1.0000
  C   C5360     1.0  0.80183  0.74242  0.94137  1.0000
  H   H9193     1.0  0.75630  0.80900  0.84675  1.0000
  S   S1531     1.0  0.91305  0.74226  0.73060  1.0000
  H   H9194     1.0  0.98175  0.78108  0.75092  1.0000
  H   H9195     1.0  0.93727  0.72427  0.83131  1.0000
  C   C5361     1.0  0.75947  0.69562  0.86516  1.0000
  H   H9196     1.0  0.96266  0.73507  0.79188  1.0000
  C   C5362     1.0  0.95857  0.70949  0.79214  1.0000
  C   C5363     1.0  0.98427  0.79945  0.75769  1.0000
  H   H9197     1.0  0.76617  0.70841  0.83749  1.0000
  C   C5364     1.0  0.81430  0.73123  0.94708  1.0000
  C   C5365     1.0  0.90781  0.70162  0.73587  1.0000
  H   H9198     1.0  0.80273  0.96348  0.74143  1.0000
  C   C5366     1.0  0.74458  0.79281  0.81489  1.0000
  C   C5367     1.0  0.80495  0.81038  0.97687  1.0000
  H   H9199     1.0  0.74745  0.78379  0.80934  1.0000
  H   H9200     1.0  0.83285  0.93251  0.73494  1.0000
  H   H9201     1.0  0.75419  0.79677  0.81388  1.0000
  H   H9202     1.0  0.74097  0.93468  0.84328  1.0000
  H   H9203     1.0  0.78908  0.72846  0.96695  1.0000
  C   C5368     1.0  0.83843  0.70896  0.95310  1.0000
  S   S1532     1.0  0.74486  0.88623  0.80819  1.0000
  C   C5369     1.0  0.80908  0.95279  0.73958  1.0000
  H   H9204     1.0  0.80253  0.69938  0.95911  1.0000
  H   H9205     1.0  0.88020  0.79832  0.72891  1.0000
  S   S1533     1.0  0.74444  0.67571  0.80551  1.0000
  S   S1534     1.0  0.74259  0.91908  0.77640  1.0000
  H   H9206     1.0  0.98601  0.79218  0.76815  1.0000
  C   C5370     1.0  0.82363  0.70875  0.96339  1.0000
  H   H9207     1.0  0.84662  0.70041  0.95802  1.0000
  H   H9208     1.0  0.74185  0.80181  0.85864  1.0000
  H   H9209     1.0  0.74086  0.81067  0.84013  1.0000
  S   S1535     1.0  0.73844  0.81211  0.90783  1.0000
  H   H9210     1.0  0.97702  0.82060  0.72830  1.0000
  C   C5371     1.0  0.73941  0.65575  0.73478  1.0000
  C   C5372     1.0  0.73858  0.86867  0.85077  1.0000
  C   C5373     1.0  0.73908  0.95953  0.78127  1.0000
  H   H9211     1.0  0.80267  0.73056  0.97405  1.0000
  H   H9212     1.0  0.73871  0.64703  0.77059  1.0000
  H   H9213     1.0  0.73930  0.95809  0.83483  1.0000
  C   C5374     1.0  0.73915  0.71689  0.86631  1.0000
  H   H9214     1.0  0.73761  0.79618  0.78389  1.0000
  H   H9215     1.0  0.73867  0.71510  0.87797  1.0000
  C   C5375     1.0  0.73901  0.91358  0.84454  1.0000
  C   C5376     1.0  0.73850  0.85661  0.95724  1.0000
  H   H9216     1.0  0.73956  0.86767  0.95363  1.0000
  S   S1536     1.0  0.87332  0.75934  0.97786  1.0000
