data_image0
_chemical_formula_structural       FeS2FeS2FeHFeS3FeSFeS2FeS2FeCFeS3HSH3C2H3C6H5C6H4C2H3C6H4CHCH2CHCH9C2NC8H21S3CHCH2C2H6CH11CH2C2HSC2N3HCH4CHCH3CHC3SH2CHC4HFeH3CHCH3CH2CH3CFeS3C2SC6H3C6H3Fe2SH2SHC2HC3H6C4SH2CNC8H22CH6CH2CNH8CH2CHC2HFeHC4H6CH2CNHCHC2H4SHCNHCFeS2FeS2FeSFeHS2FeHS2FeS2FeS2FeSFeS2FeCSHC3H3C6H4C6H4CHCH2C6H4NC8H23CH3SH4C2H2NC2H3SHCH2CHNH3C2HC2H3C2HC2H3C3H5CH2CH2CHNH2CHCH2FeS2FeS2FeSFeHS2HSCFeCSCSHCH6FeH4CH4C6H4CH2C2H3CH2FeH2CHCHCH5CHCH4C7HSCH3CHC3H2NH2SC2HCH4SCNH6CHSCH2CH2C2H8S2Fe2CH2CHFeS2FeS2Fe2S2CHSC3H2C2H2C4H2C6H4FeS2FeS4H3C3H2C4H2C2H2FeC4H5C2HCHC3H2CH3SH2NH4C2HCHNCH2CH2CHCH3CH3CH2CHC2HSHNC4H2C2HCH8CHCFeH2CH6NH2C2HCH4CH2CH9CH4CH9SH5FeS2FeS2FeHFeS3HCSHSNHFeSH5CSH3CHSC4H2C6H7C3HSNC4H2C2H20CSHCHC3H8SHCH2CFeHC2H3CSHC2NH2C3H4CHCH3CHCFeH2C3H4CH4C2H2NCH5FeS2FeS2FeSFeS3CFeS2FeSCH3CH2C2H9C6H4C5H2C5H2C2SH2CHCH5NH4CH4SHCHNC8H21CH4C3NH2CHCH5CSHFeCH3CH2CHC2HSCHC2H3FeH6CH2NH2FeSFeS2FeS3CH2C6H2C3H2C6H4S2FeS2FeSFeS3C5H4C3H2NHC4H6CH3CHCH3CH3NCH4NH3CH4CH4CHC2H3CH3CHCH5C2H2C2H3CH6CHC2H3SH2CHFeHCHCH2CH4CH8CHCH3CH3SFeCNC2H4CH2CH4NCH2CHCH2CFeS2FeS2FeCFeS3H2CHSFeS2HCHCH11SH2C6H4C2HC2H3CH3CHCHCH3CHCHCHCH2CH8C2HCHCH2CHSHCHCSH2NHCH9CHSCH6SH2CFeNC8H2CH2CH3CHC2HFeH2SCH2CFeS2FeS2FeCFeS3FeS2FeSCFeSFeS3FeCSH2FeHSC6H4CHC4H2C6H4C6H5NC8H21NHCH4C2H5CHCH2NCHCH6S2HNH3C2H2CH2CFeC4H2CHSHCHSH3CH3CH2C2HCH2CNC2H5CH2CH3CH3CH3CH7CH7CSCHFeS2FeS2C6H3C7H3CFeS2H2FeS2C6H4C6H5SCH4C2HCH2SCHCHCNC2HCH5CH8C2H3CH4CH8NCHCHCH3CH2CH2C2H5C2H4CH5CHNC2H6NCHC2HCH3NCHC2H2FeS2FeS2FeSFeS3FeS2FeS2FeSFeS3CHFeSHFeSHC6H7CHCH2C6H4C6H9NHNHCH4CH3CH8C2HCH2CHCHCHC2HCH2NH2CHNC8H19NHCH3CH4CH3CHCH5CH2C5
_chemical_formula_sum              "Fe96 S192 H1152 C672 N48"
_cell_length_a       49.6411
_cell_length_b       49.5759
_cell_length_c       47.9199
_cell_angle_alpha    90.3762
_cell_angle_beta     89.0205
_cell_angle_gamma    119.926

_space_group_name_H-M_alt    "P 1"
_space_group_IT_number       1

loop_
  _space_group_symop_operation_xyz
  'x, y, z'

loop_
  _atom_site_type_symbol
  _atom_site_label
  _atom_site_symmetry_multiplicity
  _atom_site_fract_x
  _atom_site_fract_y
  _atom_site_fract_z
  _atom_site_occupancy
  Fe  Fe1       1.0  0.11340  0.29323  0.24878  1.0000
  S   S1        1.0  0.12728  0.34337  0.24261  1.0000
  S   S2        1.0  0.06296  0.25247  0.25344  1.0000
  Fe  Fe2       1.0  0.18129  0.30658  0.24225  1.0000
  S   S3        1.0  0.19904  0.35796  0.23531  1.0000
  S   S4        1.0  0.22039  0.29417  0.23736  1.0000
  Fe  Fe3       1.0  0.16730  0.35450  0.27132  1.0000
  H   H1        1.0  0.23197  0.07816  0.25217  1.0000
  Fe  Fe4       1.0  0.15829  0.34392  0.20740  1.0000
  S   S5        1.0  0.15397  0.36150  0.16417  1.0000
  S   S6        1.0  0.15167  0.30394  0.27984  1.0000
  S   S7        1.0  0.14228  0.29283  0.21187  1.0000
  Fe  Fe5       1.0  0.46672  0.25174  0.02086  1.0000
  S   S8        1.0  0.44491  0.25771  0.06184  1.0000
  Fe  Fe6       1.0  0.28840  0.17201  0.24259  1.0000
  S   S9        1.0  0.33869  0.20541  0.23159  1.0000
  S   S10       1.0  0.24667  0.17992  0.24998  1.0000
  Fe  Fe7       1.0  0.29992  0.11592  0.24793  1.0000
  S   S11       1.0  0.35113  0.14622  0.23799  1.0000
  S   S12       1.0  0.27998  0.06521  0.26306  1.0000
  Fe  Fe8       1.0  0.34984  0.18191  0.26665  1.0000
  C   C1        1.0  0.18591  0.08690  0.22500  1.0000
  Fe  Fe9       1.0  0.33654  0.16731  0.20377  1.0000
  S   S13       1.0  0.35213  0.16724  0.15804  1.0000
  S   S14       1.0  0.29985  0.15062  0.27872  1.0000
  S   S15       1.0  0.28517  0.13509  0.21265  1.0000
  H   H2        1.0  0.18641  0.05642  0.19158  1.0000
  S   S16       1.0  0.23742  0.46488  0.07178  1.0000
  H   H3        1.0  0.00196  0.19812  0.25296  1.0000
  H   H4        1.0  0.05929  0.33097  0.16568  1.0000
  H   H5        1.0  0.14033  0.06529  0.26397  1.0000
  C   C2        1.0  0.25242  0.02677  0.25173  1.0000
  C   C3        1.0  0.23562  0.02100  0.22709  1.0000
  H   H6        1.0  0.14912  0.02736  0.23982  1.0000
  H   H7        1.0  0.22999  0.10968  0.30467  1.0000
  H   H8        1.0  0.23990  0.04025  0.21372  1.0000
  C   C4        1.0  0.41800  0.23231  0.08793  1.0000
  C   C5        1.0  0.39760  0.20064  0.08312  1.0000
  C   C6        1.0  0.37757  0.18136  0.10471  1.0000
  C   C7        1.0  0.37754  0.19327  0.13152  1.0000
  C   C8        1.0  0.39781  0.22499  0.13630  1.0000
  C   C9        1.0  0.41774  0.24431  0.11465  1.0000
  H   H9        1.0  0.39702  0.19105  0.06266  1.0000
  H   H10       1.0  0.36191  0.15696  0.10060  1.0000
  H   H11       1.0  0.39814  0.23464  0.15668  1.0000
  H   H12       1.0  0.43328  0.26875  0.11870  1.0000
  H   H13       1.0  0.43847  0.14223  0.04536  1.0000
  C   C10       1.0  0.17774  0.39057  0.13889  1.0000
  C   C11       1.0  0.20890  0.41262  0.14353  1.0000
  C   C12       1.0  0.22663  0.43500  0.12279  1.0000
  C   C13       1.0  0.21364  0.43577  0.09703  1.0000
  C   C14       1.0  0.18246  0.41365  0.09242  1.0000
  C   C15       1.0  0.16471  0.39133  0.11320  1.0000
  H   H14       1.0  0.21941  0.41249  0.16301  1.0000
  H   H15       1.0  0.25070  0.45193  0.12665  1.0000
  H   H16       1.0  0.17204  0.41383  0.07283  1.0000
  H   H17       1.0  0.14067  0.37453  0.10920  1.0000
  C   C16       1.0  0.02509  0.24819  0.25054  1.0000
  C   C17       1.0  0.02046  0.27365  0.24748  1.0000
  H   H18       1.0  0.30409  0.22734  0.28392  1.0000
  H   H19       1.0  0.04023  0.29697  0.24801  1.0000
  H   H20       1.0  0.18712  0.03385  0.23267  1.0000
  C   C18       1.0  0.22712  0.26208  0.24180  1.0000
  C   C19       1.0  0.25714  0.26664  0.23632  1.0000
  C   C20       1.0  0.26355  0.24193  0.23850  1.0000
  C   C21       1.0  0.24007  0.21217  0.24654  1.0000
  C   C22       1.0  0.21016  0.20769  0.25239  1.0000
  C   C23       1.0  0.20366  0.23234  0.24994  1.0000
  H   H21       1.0  0.27561  0.28947  0.23011  1.0000
  H   H22       1.0  0.28661  0.24588  0.23375  1.0000
  H   H23       1.0  0.19173  0.18490  0.25872  1.0000
  H   H24       1.0  0.18047  0.22827  0.25431  1.0000
  C   C24       1.0  0.19585  0.47561  0.20998  1.0000
  H   H25       1.0  0.33921  0.26851  0.25478  1.0000
  C   C25       1.0  0.13480  0.41573  0.21619  1.0000
  H   H26       1.0  0.11051  0.40198  0.22421  1.0000
  H   H27       1.0  0.22419  0.08172  0.20614  1.0000
  C   C26       1.0  0.22347  0.08691  0.29488  1.0000
  H   H28       1.0  0.19061  0.41935  0.20483  1.0000
  C   C27       1.0  0.08136  0.30444  0.11738  1.0000
  H   H29       1.0  0.19629  0.41368  0.24036  1.0000
  H   H30       1.0  0.21442  0.45584  0.27190  1.0000
  H   H31       1.0  0.42804  0.17151  0.11354  1.0000
  H   H32       1.0  0.25962  0.00521  0.28758  1.0000
  H   H33       1.0  0.24306  0.42880  0.21305  1.0000
  H   H34       1.0  0.03454  0.26527  0.11644  1.0000
  H   H35       1.0  0.20694  0.09697  0.18326  1.0000
  H   H36       1.0  0.15777  0.02028  0.29147  1.0000
  H   H37       1.0  0.06742  0.28416  0.20094  1.0000
  C   C28       1.0  0.27800  0.25176  0.31729  1.0000
  C   C29       1.0  0.21893  0.08806  0.26305  1.0000
  N   N1        1.0  0.23201  0.32550  0.15119  1.0000
  C   C30       1.0  0.20787  0.33497  0.14620  1.0000
  C   C31       1.0  0.25163  0.34507  0.17506  1.0000
  C   C32       1.0  0.21498  0.29171  0.15989  1.0000
  C   C33       1.0  0.25050  0.33022  0.12450  1.0000
  C   C34       1.0  0.18280  0.31565  0.12453  1.0000
  C   C35       1.0  0.26850  0.38060  0.17036  1.0000
  C   C36       1.0  0.23503  0.27686  0.16626  1.0000
  C   C37       1.0  0.28345  0.33443  0.12720  1.0000
  H   H38       1.0  0.19547  0.33421  0.16607  1.0000
  H   H39       1.0  0.21900  0.35949  0.13876  1.0000
  H   H40       1.0  0.26951  0.33916  0.18100  1.0000
  H   H41       1.0  0.23703  0.34020  0.19432  1.0000
  H   H42       1.0  0.20006  0.28838  0.17869  1.0000
  H   H43       1.0  0.19902  0.27680  0.14332  1.0000
  H   H44       1.0  0.23732  0.31050  0.10990  1.0000
  H   H45       1.0  0.25383  0.35141  0.11339  1.0000
  H   H46       1.0  0.16536  0.29258  0.13308  1.0000
  H   H47       1.0  0.16989  0.32792  0.11947  1.0000
  H   H48       1.0  0.19288  0.31285  0.10466  1.0000
  H   H49       1.0  0.25212  0.38960  0.17257  1.0000
  H   H50       1.0  0.28630  0.39223  0.18669  1.0000
  H   H51       1.0  0.28051  0.38760  0.14978  1.0000
  H   H52       1.0  0.25250  0.28954  0.18245  1.0000
  H   H53       1.0  0.24627  0.27420  0.14705  1.0000
  H   H54       1.0  0.21970  0.25304  0.17469  1.0000
  H   H55       1.0  0.28790  0.32274  0.10929  1.0000
  H   H56       1.0  0.28744  0.32459  0.14623  1.0000
  H   H57       1.0  0.30148  0.35939  0.12529  1.0000
  H   H58       1.0  0.03814  0.29884  0.13240  1.0000
  S   S17       1.0  0.19159  0.46318  0.99972  1.0000
  S   S18       1.0  0.18309  0.39724  0.30004  1.0000
  S   S19       1.0  0.26337  0.47673  0.99161  1.0000
  C   C38       1.0  0.34334  0.27297  0.27749  1.0000
  H   H59       1.0  0.42888  0.14969  0.14224  1.0000
  C   C39       1.0  0.15625  0.43318  0.24082  1.0000
  H   H60       1.0  0.09244  0.29067  0.11100  1.0000
  H   H61       1.0  0.00352  0.22896  0.16047  1.0000
  C   C40       1.0  0.99017  0.26894  0.24385  1.0000
  C   C41       1.0  0.17339  0.11170  0.27724  1.0000
  H   H62       1.0  0.20379  0.06811  0.30654  1.0000
  H   H63       1.0  0.36893  0.28512  0.28010  1.0000
  H   H64       1.0  0.33429  0.28848  0.28396  1.0000
  H   H65       1.0  0.23144  0.11323  0.25743  1.0000
  H   H66       1.0  0.05035  0.31986  0.20190  1.0000
  H   H67       1.0  0.19776  0.11277  0.22654  1.0000
  C   C42       1.0  0.23742  0.44732  0.21824  1.0000
  H   H68       1.0  0.17360  0.46310  0.29162  1.0000
  H   H69       1.0  0.03650  0.21423  0.18898  1.0000
  H   H70       1.0  0.24362  0.08345  0.29826  1.0000
  H   H71       1.0  0.45855  0.21227  0.08916  1.0000
  H   H72       1.0  0.07855  0.31496  0.09803  1.0000
  H   H73       1.0  0.25152  0.45982  0.23660  1.0000
  H   H74       1.0  0.09723  0.32397  0.13093  1.0000
  H   H75       1.0  0.14042  0.39890  0.20624  1.0000
  H   H76       1.0  0.08571  0.26046  0.14712  1.0000
  H   H77       1.0  0.09527  0.30307  0.17474  1.0000
  H   H78       1.0  0.16169  0.07930  0.21848  1.0000
  C   C43       1.0  0.06022  0.22877  0.18004  1.0000
  H   H79       1.0  0.42878  0.13868  0.08153  1.0000
  H   H80       1.0  0.18750  0.46315  0.18973  1.0000
  C   C44       1.0  0.99541  0.26661  0.16875  1.0000
  C   C45       1.0  0.32724  0.24162  0.29325  1.0000
  H   H81       1.0  0.15853  0.11277  0.29431  1.0000
  S   S20       1.0  0.46266  0.20752  0.00363  1.0000
  C   C46       1.0  0.07037  0.29468  0.17991  1.0000
  C   C47       1.0  0.01641  0.25202  0.17099  1.0000
  N   N2        1.0  0.18594  0.07263  0.25282  1.0000
  N   N3        1.0  0.04919  0.27046  0.15935  1.0000
  N   N4        1.0  0.19036  0.45341  0.23358  1.0000
  H   H82       1.0  0.43472  0.17247  0.06149  1.0000
  C   C48       1.0  0.20189  0.07992  0.20031  1.0000
  H   H83       1.0  0.15301  0.41558  0.25689  1.0000
  H   H84       1.0  0.34003  0.22923  0.28745  1.0000
  H   H85       1.0  0.19788  0.12628  0.28358  1.0000
  H   H86       1.0  0.08963  0.34380  0.18948  1.0000
  C   C49       1.0  0.16443  0.07745  0.27219  1.0000
  H   H87       1.0  0.13510  0.43195  0.20021  1.0000
  C   C50       1.0  0.44289  0.15571  0.06503  1.0000
  H   H88       1.0  0.24471  0.46311  0.19992  1.0000
  H   H89       1.0  0.19551  0.02530  0.28074  1.0000
  H   H90       1.0  0.07609  0.24376  0.19650  1.0000
  C   C51       1.0  0.06106  0.24801  0.15448  1.0000
  H   H91       1.0  0.04766  0.23109  0.13772  1.0000
  C   C52       1.0  0.17303  0.03818  0.24839  1.0000
  C   C53       1.0  0.06665  0.32354  0.18431  1.0000
  C   C54       1.0  0.20210  0.43192  0.22424  1.0000
  S   S21       1.0  0.38768  0.21267  0.29809  1.0000
  H   H92       1.0  0.01662  0.24665  0.19343  1.0000
  H   H93       1.0  0.16208  0.06675  0.29292  1.0000
  C   C55       1.0  0.04914  0.28416  0.13133  1.0000
  H   H94       1.0  0.44470  0.19023  0.14617  1.0000
  C   C56       1.0  0.99882  0.21805  0.25050  1.0000
  C   C57       1.0  0.24678  0.00117  0.26852  1.0000
  C   C58       1.0  0.17180  0.01889  0.27391  1.0000
  C   C59       1.0  0.44250  0.17220  0.13102  1.0000
  H   H95       1.0  0.06855  0.21259  0.17352  1.0000
  Fe  Fe10      1.0  0.23381  0.47989  0.02681  1.0000
  H   H96       1.0  0.14627  0.44656  0.25069  1.0000
  H   H97       1.0  0.27367  0.18511  0.30757  1.0000
  H   H98       1.0  0.00595  0.29026  0.17760  1.0000
  C   C60       1.0  0.20849  0.47079  0.25907  1.0000
  H   H99       1.0  0.16934  0.12218  0.25851  1.0000
  C   C61       1.0  0.19273  0.48275  0.27981  1.0000
  H   H100      1.0  0.16063  0.99398  0.26773  1.0000
  H   H101      1.0  0.15996  0.48706  0.22482  1.0000
  H   H102      1.0  0.26685  0.22932  0.30614  1.0000
  C   C62       1.0  0.47483  0.17674  0.12275  1.0000
  H   H103      1.0  0.28312  0.27079  0.30229  1.0000
  H   H104      1.0  0.47290  0.15338  0.12261  1.0000
  C   C63       1.0  0.47785  0.17170  0.07116  1.0000
  H   H105      1.0  0.98848  0.26674  0.14687  1.0000
  H   H106      1.0  0.98704  0.28886  0.24129  1.0000
  H   H107      1.0  0.48272  0.15230  0.07384  1.0000
  C   C64       1.0  0.48350  0.22027  0.09045  1.0000
  Fe  Fe11      1.0  0.45341  0.23017  0.45941  1.0000
  S   S22       1.0  0.45594  0.27180  0.48100  1.0000
  S   S23       1.0  0.41681  0.20046  0.42638  1.0000
  S   S24       1.0  0.45064  0.20601  0.50028  1.0000
  C   C65       1.0  0.36337  0.26443  0.36640  1.0000
  C   C66       1.0  0.18086  0.39820  0.63414  1.0000
  S   S25       1.0  0.20875  0.42679  0.43142  1.0000
  C   C67       1.0  0.39496  0.20884  0.33395  1.0000
  C   C68       1.0  0.37539  0.18254  0.35001  1.0000
  C   C69       1.0  0.38223  0.18075  0.37827  1.0000
  C   C70       1.0  0.40863  0.20516  0.39102  1.0000
  C   C71       1.0  0.42809  0.23154  0.37500  1.0000
  C   C72       1.0  0.42123  0.23334  0.34675  1.0000
  H   H108      1.0  0.36702  0.16014  0.39031  1.0000
  H   H109      1.0  0.44852  0.25051  0.38432  1.0000
  H   H110      1.0  0.04419  0.30925  0.62817  1.0000
  C   C73       1.0  0.19015  0.40476  0.33671  1.0000
  C   C74       1.0  0.20030  0.43508  0.34684  1.0000
  C   C75       1.0  0.20609  0.44229  0.37555  1.0000
  C   C76       1.0  0.20185  0.41925  0.39475  1.0000
  C   C77       1.0  0.19177  0.38895  0.38461  1.0000
  C   C78       1.0  0.18596  0.38172  0.35589  1.0000
  H   H111      1.0  0.43520  0.20235  0.64518  1.0000
  H   H112      1.0  0.21381  0.46570  0.38284  1.0000
  H   H113      1.0  0.18836  0.37085  0.39910  1.0000
  Fe  Fe12      1.0  0.23645  0.48842  0.52159  1.0000
  Fe  Fe13      1.0  0.45551  0.24861  0.52191  1.0000
  S   S26       1.0  0.42103  0.24512  0.55666  1.0000
  H   H114      1.0  0.47250  0.15646  0.48139  1.0000
  H   H115      1.0  0.47503  0.19666  0.36016  1.0000
  S   S27       1.0  0.23990  0.47175  0.56588  1.0000
  H   H116      1.0  0.27798  0.08583  0.63008  1.0000
  C   C79       1.0  0.41203  0.23111  0.59188  1.0000
  C   C80       1.0  0.42931  0.22055  0.60633  1.0000
  H   H117      1.0  0.47489  0.20463  0.41226  1.0000
  C   C81       1.0  0.39612  0.21000  0.64827  1.0000
  C   C82       1.0  0.37866  0.22027  0.63379  1.0000
  C   C83       1.0  0.38668  0.23086  0.60589  1.0000
  H   H118      1.0  0.44888  0.22060  0.59600  1.0000
  H   H119      1.0  0.38981  0.11009  0.38281  1.0000
  H   H120      1.0  0.27243  0.16493  0.33851  1.0000
  H   H121      1.0  0.37315  0.23902  0.59505  1.0000
  H   H122      1.0  0.43872  0.12800  0.44389  1.0000
  H   H123      1.0  0.20374  0.45322  0.33241  1.0000
  C   C84       1.0  0.23047  0.43988  0.61572  1.0000
  C   C85       1.0  0.21625  0.44316  0.59173  1.0000
  C   C86       1.0  0.18410  0.42364  0.58910  1.0000
  C   C87       1.0  0.16667  0.40134  0.61003  1.0000
  S   S28       1.0  0.19442  0.47159  0.49427  1.0000
  H   H124      1.0  0.25525  0.45479  0.61820  1.0000
  H   H125      1.0  0.17252  0.42610  0.57122  1.0000
  C   C88       1.0  0.21300  0.41770  0.63675  1.0000
  N   N5        1.0  0.22487  0.38436  0.51781  1.0000
  C   C89       1.0  0.19226  0.37560  0.52717  1.0000
  C   C90       1.0  0.22955  0.35740  0.52488  1.0000
  C   C91       1.0  0.22725  0.38967  0.48660  1.0000
  C   C92       1.0  0.24712  0.41374  0.53288  1.0000
  C   C93       1.0  0.18059  0.39772  0.51790  1.0000
  C   C94       1.0  0.22790  0.34975  0.55626  1.0000
  C   C95       1.0  0.25281  0.38679  0.47043  1.0000
  C   C96       1.0  0.28217  0.42539  0.52952  1.0000
  H   H126      1.0  0.17513  0.35196  0.51947  1.0000
  H   H127      1.0  0.19002  0.37450  0.55037  1.0000
  H   H128      1.0  0.25224  0.36099  0.51706  1.0000
  H   H129      1.0  0.21196  0.33593  0.51410  1.0000
  H   H130      1.0  0.20507  0.37287  0.47635  1.0000
  H   H131      1.0  0.23074  0.41316  0.48177  1.0000
  H   H132      1.0  0.24428  0.43335  0.52567  1.0000
  H   H133      1.0  0.24147  0.41235  0.55561  1.0000
  H   H134      1.0  0.15680  0.38918  0.52658  1.0000
  H   H135      1.0  0.19527  0.42153  0.52609  1.0000
  H   H136      1.0  0.17900  0.39861  0.49488  1.0000
  H   H137      1.0  0.23330  0.33071  0.55895  1.0000
  H   H138      1.0  0.24525  0.36990  0.56843  1.0000
  H   H139      1.0  0.20433  0.34126  0.56536  1.0000
  H   H140      1.0  0.27619  0.40141  0.47909  1.0000
  H   H141      1.0  0.25371  0.39470  0.44859  1.0000
  H   H142      1.0  0.24731  0.36219  0.46927  1.0000
  H   H143      1.0  0.29209  0.44100  0.51111  1.0000
  H   H144      1.0  0.28804  0.40668  0.52830  1.0000
  H   H145      1.0  0.29419  0.43895  0.54840  1.0000
  H   H146      1.0  0.31380  0.07205  0.61169  1.0000
  H   H147      1.0  0.44279  0.14166  0.36844  1.0000
  C   C97       1.0  0.48392  0.14148  0.40038  1.0000
  H   H148      1.0  0.26212  0.19454  0.34075  1.0000
  H   H149      1.0  0.32670  0.20106  0.33030  1.0000
  H   H150      1.0  0.34699  0.26959  0.37804  1.0000
  H   H151      1.0  0.32238  0.28494  0.33325  1.0000
  H   H152      1.0  0.14186  0.38673  0.60771  1.0000
  H   H153      1.0  0.36759  0.08364  0.60161  1.0000
  C   C98       1.0  0.45610  0.15248  0.43895  1.0000
  H   H154      1.0  0.43117  0.16456  0.38789  1.0000
  H   H155      1.0  0.36161  0.24255  0.37428  1.0000
  C   C99       1.0  0.32253  0.13898  0.61343  1.0000
  N   N6        1.0  0.46562  0.15718  0.40846  1.0000
  H   H156      1.0  0.39687  0.12248  0.41821  1.0000
  H   H157      1.0  0.41013  0.09692  0.40417  1.0000
  H   H158      1.0  0.38734  0.28324  0.37113  1.0000
  H   H159      1.0  0.45466  0.09867  0.42551  1.0000
  H   H160      1.0  0.43658  0.25386  0.33465  1.0000
  H   H161      1.0  0.31289  0.21240  0.36006  1.0000
  H   H162      1.0  0.45293  0.09288  0.38809  1.0000
  H   H163      1.0  0.33038  0.06184  0.63919  1.0000
  C   C100      1.0  0.08697  0.30926  0.62224  1.0000
  H   H164      1.0  0.36907  0.28767  0.32752  1.0000
  H   H165      1.0  0.03914  0.27187  0.62065  1.0000
  C   C101      1.0  0.43752  0.14613  0.39010  1.0000
  H   H166      1.0  0.31955  0.12204  0.59689  1.0000
  C   C102      1.0  0.05296  0.29315  0.63339  1.0000
  C   C103      1.0  0.40713  0.11709  0.39968  1.0000
  H   H167      1.0  0.29993  0.13793  0.61754  1.0000
  Fe  Fe14      1.0  0.22488  0.47068  0.45889  1.0000
  H   H168      1.0  0.33879  0.16266  0.60521  1.0000
  C   C104      1.0  0.27819  0.18811  0.33021  1.0000
  C   C105      1.0  0.35867  0.26307  0.33455  1.0000
  C   C106      1.0  0.31229  0.21159  0.33690  1.0000
  C   C107      1.0  0.30731  0.25913  0.33413  1.0000
  H   H169      1.0  0.08724  0.30116  0.60063  1.0000
  H   H170      1.0  0.10318  0.30484  0.63423  1.0000
  H   H171      1.0  0.17819  0.35830  0.34865  1.0000
  H   H172      1.0  0.30008  0.25342  0.35644  1.0000
  H   H173      1.0  0.44412  0.16573  0.44453  1.0000
  H   H174      1.0  0.35512  0.16345  0.34062  1.0000
  C   C108      1.0  0.46813  0.10616  0.40571  1.0000
  H   H175      1.0  0.98931  0.25496  0.63754  1.0000
  H   H176      1.0  0.35912  0.22033  0.64408  1.0000
  C   C109      1.0  0.42149  0.21025  0.63432  1.0000
  N   N7        1.0  0.32561  0.24378  0.32459  1.0000
  H   H177      1.0  0.07902  0.25246  0.64014  1.0000
  C   C110      1.0  0.36315  0.10032  0.61361  1.0000
  H   H178      1.0  0.26003  0.25117  0.33183  1.0000
  C   C111      1.0  0.33547  0.13364  0.64064  1.0000
  C   C112      1.0  0.33116  0.08219  0.62865  1.0000
  H   H179      1.0  0.38274  0.11275  0.62799  1.0000
  H   H180      1.0  0.09661  0.33479  0.62050  1.0000
  H   H181      1.0  0.36373  0.11729  0.59829  1.0000
  H   H182      1.0  0.36111  0.14586  0.63821  1.0000
  S   S29       1.0  0.26635  0.48542  0.48668  1.0000
  H   H183      1.0  0.37379  0.25464  0.32518  1.0000
  C   C113      1.0  0.48256  0.16179  0.45988  1.0000
  N   N8        1.0  0.32255  0.10012  0.64909  1.0000
  H   H184      1.0  0.27616  0.03590  0.64754  1.0000
  C   C114      1.0  0.28755  0.08521  0.65073  1.0000
  Fe  Fe15      1.0  0.11724  0.30289  0.74482  1.0000
  S   S30       1.0  0.13102  0.35315  0.73878  1.0000
  S   S31       1.0  0.06748  0.26073  0.74730  1.0000
  Fe  Fe16      1.0  0.18557  0.31697  0.74076  1.0000
  S   S32       1.0  0.20280  0.36812  0.73320  1.0000
  S   S33       1.0  0.22501  0.30548  0.74618  1.0000
  Fe  Fe17      1.0  0.17018  0.36400  0.76860  1.0000
  S   S34       1.0  0.19009  0.40411  0.80083  1.0000
  Fe  Fe18      1.0  0.16279  0.35367  0.70396  1.0000
  H   H185      1.0  0.32614  0.11167  0.69302  1.0000
  S   S35       1.0  0.15423  0.31355  0.77698  1.0000
  S   S36       1.0  0.14767  0.30273  0.70918  1.0000
  Fe  Fe19      1.0  0.46510  0.22815  0.96065  1.0000
  H   H186      1.0  0.24424  0.04152  0.65670  1.0000
  S   S37       1.0  0.43633  0.19663  0.92424  1.0000
  S   S38       1.0  0.46647  0.27131  0.97805  1.0000
  Fe  Fe20      1.0  0.28699  0.17801  0.74036  1.0000
  S   S39       1.0  0.33795  0.21286  0.74466  1.0000
  S   S40       1.0  0.24708  0.18825  0.73277  1.0000
  Fe  Fe21      1.0  0.29769  0.12154  0.74497  1.0000
  S   S41       1.0  0.34926  0.15377  0.75049  1.0000
  S   S42       1.0  0.28538  0.07023  0.73872  1.0000
  Fe  Fe22      1.0  0.33709  0.18185  0.77972  1.0000
  S   S43       1.0  0.36294  0.20833  0.81945  1.0000
  Fe  Fe23      1.0  0.34680  0.18231  0.71516  1.0000
  S   S44       1.0  0.28540  0.14804  0.77667  1.0000
  S   S45       1.0  0.29592  0.14913  0.70843  1.0000
  Fe  Fe24      1.0  0.22187  0.46264  0.96402  1.0000
  C   C115      1.0  0.46275  0.26404  0.70142  1.0000
  S   S46       1.0  0.20047  0.42044  0.93413  1.0000
  H   H187      1.0  0.12520  0.41823  0.93313  1.0000
  C   C116      1.0  0.25813  0.00621  0.73448  1.0000
  C   C117      1.0  0.25380  0.03113  0.74293  1.0000
  C   C118      1.0  0.22483  0.02412  0.75423  1.0000
  H   H188      1.0  0.45193  0.21722  0.73624  1.0000
  H   H189      1.0  0.28040  0.01119  0.72577  1.0000
  H   H190      1.0  0.22103  0.04286  0.76093  1.0000
  C   C119      1.0  0.38369  0.20459  0.84808  1.0000
  C   C120      1.0  0.39780  0.22919  0.86739  1.0000
  C   C121      1.0  0.41419  0.22741  0.89055  1.0000
  C   C122      1.0  0.41669  0.20083  0.89490  1.0000
  C   C123      1.0  0.40282  0.17634  0.87542  1.0000
  C   C124      1.0  0.38656  0.17819  0.85217  1.0000
  H   H191      1.0  0.39575  0.24972  0.86462  1.0000
  H   H192      1.0  0.42454  0.24643  0.90526  1.0000
  H   H193      1.0  0.40446  0.15561  0.87849  1.0000
  H   H194      1.0  0.37587  0.15899  0.83769  1.0000
  C   C125      1.0  0.19380  0.40749  0.83796  1.0000
  C   C126      1.0  0.21421  0.43678  0.84964  1.0000
  C   C127      1.0  0.21731  0.44103  0.87888  1.0000
  C   C128      1.0  0.19960  0.41608  0.89700  1.0000
  C   C129      1.0  0.17943  0.38671  0.88532  1.0000
  C   C130      1.0  0.17662  0.38238  0.85607  1.0000
  H   H195      1.0  0.22776  0.45640  0.83592  1.0000
  H   H196      1.0  0.23322  0.46366  0.88739  1.0000
  H   H197      1.0  0.16560  0.36718  0.89904  1.0000
  H   H198      1.0  0.16074  0.35972  0.84756  1.0000
  C   C131      1.0  0.02904  0.25528  0.74857  1.0000
  H   H199      1.0  0.03932  0.24762  0.69202  1.0000
  C   C132      1.0  0.02318  0.27991  0.75245  1.0000
  H   H200      1.0  0.00770  0.20581  0.74182  1.0000
  H   H201      1.0  0.04241  0.30322  0.75553  1.0000
  C   C133      1.0  0.23039  0.27239  0.74235  1.0000
  C   C134      1.0  0.25973  0.27580  0.74805  1.0000
  C   C135      1.0  0.26527  0.25049  0.74548  1.0000
  C   C136      1.0  0.24153  0.22121  0.73699  1.0000
  C   C137      1.0  0.21220  0.21782  0.73127  1.0000
  C   C138      1.0  0.20661  0.24309  0.73398  1.0000
  H   H202      1.0  0.27846  0.29828  0.75431  1.0000
  H   H203      1.0  0.28797  0.25367  0.74990  1.0000
  H   H204      1.0  0.19360  0.19539  0.72468  1.0000
  H   H205      1.0  0.18392  0.23988  0.72950  1.0000
  N   N9        1.0  0.25789  0.36582  0.82248  1.0000
  C   C139      1.0  0.27394  0.37930  0.79478  1.0000
  C   C140      1.0  0.27148  0.34699  0.83391  1.0000
  C   C141      1.0  0.26536  0.39281  0.84176  1.0000
  C   C142      1.0  0.22327  0.34655  0.81787  1.0000
  C   C143      1.0  0.26688  0.40332  0.78149  1.0000
  C   C144      1.0  0.27073  0.32198  0.81402  1.0000
  C   C145      1.0  0.25373  0.38487  0.87219  1.0000
  C   C146      1.0  0.20415  0.31922  0.83821  1.0000
  H   H206      1.0  0.29968  0.39069  0.79671  1.0000
  H   H207      1.0  0.26747  0.36060  0.77893  1.0000
  H   H208      1.0  0.25965  0.33494  0.85360  1.0000
  H   H209      1.0  0.29623  0.36256  0.83963  1.0000
  H   H210      1.0  0.29100  0.40885  0.84235  1.0000
  H   H211      1.0  0.25527  0.40695  0.83398  1.0000
  H   H212      1.0  0.21246  0.36153  0.81822  1.0000
  H   H213      1.0  0.21833  0.33600  0.79666  1.0000
  H   H214      1.0  0.24173  0.39539  0.78203  1.0000
  H   H215      1.0  0.27974  0.42630  0.79190  1.0000
  H   H216      1.0  0.27457  0.40683  0.75924  1.0000
  H   H217      1.0  0.28926  0.33266  0.79771  1.0000
  H   H218      1.0  0.27514  0.30545  0.82594  1.0000
  H   H219      1.0  0.24803  0.30832  0.80366  1.0000
  H   H220      1.0  0.22814  0.37388  0.87363  1.0000
  H   H221      1.0  0.26292  0.40691  0.88419  1.0000
  H   H222      1.0  0.26187  0.37052  0.88277  1.0000
  H   H223      1.0  0.20851  0.29964  0.83440  1.0000
  H   H224      1.0  0.17902  0.31003  0.83453  1.0000
  H   H225      1.0  0.20814  0.32587  0.86041  1.0000
  H   H226      1.0  0.38283  0.13637  0.67318  1.0000
  H   H227      1.0  0.01435  0.27991  0.69639  1.0000
  H   H228      1.0  0.10503  0.46162  0.89057  1.0000
  C   C147      1.0  0.43148  0.20152  0.77673  1.0000
  H   H229      1.0  0.20123  0.48932  0.88436  1.0000
  H   H230      1.0  0.15825  0.43348  0.88437  1.0000
  H   H231      1.0  0.39733  0.23333  0.77110  1.0000
  S   S47       1.0  0.15723  0.36946  0.65989  1.0000
  H   H232      1.0  0.07595  0.35015  0.65903  1.0000
  H   H233      1.0  0.02672  0.23546  0.65742  1.0000
  H   H234      1.0  0.11921  0.42477  0.88648  1.0000
  H   H235      1.0  0.32267  0.07490  0.68603  1.0000
  C   C148      1.0  0.07282  0.30997  0.68204  1.0000
  C   C149      1.0  0.14154  0.44391  0.84725  1.0000
  H   H236      1.0  0.45581  0.23976  0.69567  1.0000
  H   H237      1.0  0.13222  0.44315  0.96239  1.0000
  N   N10       1.0  0.04786  0.28528  0.66413  1.0000
  C   C150      1.0  0.98766  0.25583  0.66058  1.0000
  C   C151      1.0  0.07451  0.25157  0.66294  1.0000
  H   H238      1.0  0.01694  0.30438  0.66845  1.0000
  H   H239      1.0  0.45400  0.21038  0.78735  1.0000
  H   H240      1.0  0.12855  0.45532  0.84009  1.0000
  S   S48       1.0  0.38732  0.19629  0.68355  1.0000
  H   H241      1.0  0.39927  0.27794  0.75062  1.0000
  C   C152      1.0  0.41324  0.28145  0.76956  1.0000
  H   H242      1.0  0.45997  0.27486  0.68224  1.0000
  H   H243      1.0  0.42323  0.17679  0.77141  1.0000
  C   C153      1.0  0.44169  0.26554  0.72473  1.0000
  H   H244      1.0  0.06880  0.30264  0.70434  1.0000
  N   N11       1.0  0.44358  0.25338  0.75301  1.0000
  H   H245      1.0  0.37625  0.09678  0.67253  1.0000
  H   H246      1.0  0.39870  0.28107  0.78765  1.0000
  H   H247      1.0  0.41405  0.20142  0.79157  1.0000
  C   C154      1.0  0.07566  0.34240  0.68070  1.0000
  C   C155      1.0  0.42041  0.25471  0.77309  1.0000
  H   H248      1.0  0.41732  0.25250  0.71716  1.0000
  C   C156      1.0  0.33349  0.09915  0.67808  1.0000
  C   C157      1.0  0.43469  0.21963  0.74955  1.0000
  H   H249      1.0  0.41214  0.20668  0.73861  1.0000
  H   H250      1.0  0.37351  0.11405  0.70433  1.0000
  H   H251      1.0  0.44737  0.29017  0.72576  1.0000
  C   C158      1.0  0.36863  0.11254  0.68165  1.0000
  C   C159      1.0  0.00354  0.22511  0.74475  1.0000
  H   H252      1.0  0.10693  0.44207  0.93564  1.0000
  C   C160      1.0  0.01736  0.28268  0.67335  1.0000
  C   C161      1.0  0.14282  0.44295  0.87937  1.0000
  H   H253      1.0  0.09789  0.35985  0.69021  1.0000
  H   H254      1.0  0.05675  0.34292  0.69296  1.0000
  H   H255      1.0  0.07023  0.22852  0.67029  1.0000
  C   C162      1.0  0.04558  0.25428  0.66973  1.0000
  C   C163      1.0  0.15716  0.46787  0.92474  1.0000
  C   C164      1.0  0.12843  0.44123  0.93950  1.0000
  H   H256      1.0  0.47637  0.26188  0.78581  1.0000
  H   H257      1.0  0.09616  0.31336  0.67714  1.0000
  H   H258      1.0  0.22444  0.41576  0.65502  1.0000
  H   H259      1.0  0.12953  0.41968  0.83915  1.0000
  H   H260      1.0  0.33102  0.14671  0.65738  1.0000
  C   C165      1.0  0.99234  0.27439  0.75217  1.0000
  H   H261      1.0  0.42722  0.25491  0.79518  1.0000
  H   H262      1.0  0.43411  0.30478  0.76867  1.0000
  C   C166      1.0  0.47596  0.27050  0.76452  1.0000
  H   H263      1.0  0.28058  0.09842  0.66526  1.0000
  H   H264      1.0  0.27200  0.04790  0.68237  1.0000
  C   C167      1.0  0.12862  0.48269  0.89065  1.0000
  H   H265      1.0  0.17640  0.46259  0.92661  1.0000
  N   N12       1.0  0.15295  0.47328  0.89457  1.0000
  H   H266      1.0  0.47838  0.31229  0.78306  1.0000
  H   H267      1.0  0.09536  0.26910  0.67392  1.0000
  C   C168      1.0  0.26946  0.05070  0.65984  1.0000
  H   H268      1.0  0.16520  0.45535  0.83763  1.0000
  C   C169      1.0  0.20077  0.99279  0.75712  1.0000
  H   H269      1.0  0.98819  0.29369  0.75504  1.0000
  H   H270      1.0  0.16464  0.48888  0.93762  1.0000
  Fe  Fe25      1.0  0.10812  0.81097  0.25367  1.0000
  S   S49       1.0  0.13884  0.78923  0.25277  1.0000
  S   S50       1.0  0.05646  0.77508  0.26296  1.0000
  Fe  Fe26      1.0  0.16499  0.87671  0.24122  1.0000
  S   S51       1.0  0.19822  0.85813  0.23937  1.0000
  S   S52       1.0  0.17845  0.92627  0.22642  1.0000
  Fe  Fe27      1.0  0.16184  0.81828  0.21415  1.0000
  S   S53       1.0  0.16346  0.79571  0.17206  1.0000
  Fe  Fe28      1.0  0.17247  0.83045  0.27827  1.0000
  H   H271      1.0  0.47727  0.71074  0.09621  1.0000
  S   S54       1.0  0.12958  0.83799  0.21415  1.0000
  S   S55       1.0  0.14089  0.85113  0.28112  1.0000
  H   H272      1.0  0.14498  0.85749  0.11767  1.0000
  S   S56       1.0  0.25057  0.53107  0.01848  1.0000
  C   C170      1.0  0.20569  0.87214  0.10645  1.0000
  Fe  Fe29      1.0  0.24080  0.77764  0.02457  1.0000
  C   C171      1.0  0.18277  0.49780  0.21392  1.0000
  S   S57       1.0  0.24869  0.80544  0.06556  1.0000
  C   C172      1.0  0.14410  0.86153  0.14037  1.0000
  S   S58       1.0  0.26129  0.74610  0.02194  1.0000
  H   H273      1.0  0.25450  0.89984  0.14842  1.0000
  C   C173      1.0  0.24328  0.89839  0.16897  1.0000
  H   H274      1.0  0.19634  0.86293  0.16172  1.0000
  H   H275      1.0  0.19859  0.86850  0.08425  1.0000
  H   H276      1.0  0.21526  0.94226  0.17757  1.0000
  H   H277      1.0  0.19845  0.91135  0.10130  1.0000
  H   H278      1.0  0.30591  0.69854  0.01331  1.0000
  H   H279      1.0  0.47925  0.77074  0.22784  1.0000
  Fe  Fe30      1.0  0.47589  0.71743  0.00598  1.0000
  H   H280      1.0  0.23593  0.92077  0.11297  1.0000
  H   H281      1.0  0.22329  0.66586  0.12777  1.0000
  H   H282      1.0  0.39117  0.61386  0.04242  1.0000
  H   H283      1.0  0.20706  0.63561  0.10243  1.0000
  C   C174      1.0  0.16030  0.69576  0.10148  1.0000
  H   H284      1.0  0.22792  0.87187  0.10670  1.0000
  H   H285      1.0  0.12002  0.85636  0.14527  1.0000
  H   H286      1.0  0.16070  0.90950  0.13413  1.0000
  H   H287      1.0  0.24432  0.94976  0.15202  1.0000
  C   C175      1.0  0.18777  0.79971  0.14251  1.0000
  C   C176      1.0  0.17386  0.78309  0.11795  1.0000
  C   C177      1.0  0.19195  0.78479  0.09417  1.0000
  C   C178      1.0  0.22440  0.80306  0.09460  1.0000
  C   C179      1.0  0.23830  0.81987  0.11910  1.0000
  C   C180      1.0  0.22020  0.81817  0.14288  1.0000
  H   H288      1.0  0.14881  0.76878  0.11729  1.0000
  H   H289      1.0  0.18079  0.77195  0.07549  1.0000
  H   H290      1.0  0.26336  0.83404  0.11979  1.0000
  H   H291      1.0  0.23139  0.83066  0.16164  1.0000
  C   C181      1.0  0.20758  0.96460  0.23659  1.0000
  H   H292      1.0  0.22078  0.95107  0.27421  1.0000
  H   H293      1.0  0.28736  0.62836  0.00863  1.0000
  C   C182      1.0  0.01447  0.79296  0.24401  1.0000
  C   C183      1.0  0.01939  0.76869  0.25213  1.0000
  H   H294      1.0  0.23127  0.49117  0.25288  1.0000
  H   H295      1.0  0.03395  0.81646  0.24285  1.0000
  H   H296      1.0  0.25407  0.72119  0.11533  1.0000
  C   C184      1.0  0.21064  0.90412  0.11621  1.0000
  H   H297      1.0  0.23272  0.67416  0.09068  1.0000
  H   H298      1.0  0.16685  0.69848  0.05548  1.0000
  Fe  Fe31      1.0  0.21627  0.71085  0.00309  1.0000
  H   H299      1.0  0.13757  0.66068  0.06834  1.0000
  H   H300      1.0  0.34201  0.57418  0.02051  1.0000
  C   C185      1.0  0.19854  0.73423  0.14871  1.0000
  H   H301      1.0  0.20801  0.73962  0.17014  1.0000
  C   C186      1.0  0.14835  0.68618  0.07145  1.0000
  H   H302      1.0  0.17846  0.50449  0.19308  1.0000
  C   C187      1.0  0.34600  0.67651  0.99177  1.0000
  H   H303      1.0  0.34497  0.79609  0.01145  1.0000
  H   H304      1.0  0.16068  0.89938  0.16971  1.0000
  H   H305      1.0  0.20672  0.56951  0.03044  1.0000
  H   H306      1.0  0.19988  0.88958  0.18761  1.0000
  H   H307      1.0  0.16265  0.71907  0.10465  1.0000
  C   C188      1.0  0.38817  0.79576  0.01567  1.0000
  H   H308      1.0  0.12997  0.69220  0.06758  1.0000
  C   C189      1.0  0.28697  0.68301  0.99921  1.0000
  H   H309      1.0  0.21198  0.74056  0.08614  1.0000
  H   H310      1.0  0.21567  0.71106  0.06868  1.0000
  H   H311      1.0  0.27433  0.69549  0.99384  1.0000
  H   H312      1.0  0.25609  0.92092  0.18010  1.0000
  C   C190      1.0  0.21123  0.96266  0.13955  1.0000
  C   C191      1.0  0.40830  0.78624  0.00414  1.0000
  C   C192      1.0  0.16684  0.89564  0.14808  1.0000
  C   C193      1.0  0.20220  0.58417  0.01695  1.0000
  C   C194      1.0  0.19919  0.63147  0.00994  1.0000
  C   C195      1.0  0.21415  0.66039  0.10633  1.0000
  C   C196      1.0  0.18575  0.66456  0.10235  1.0000
  H   H313      1.0  0.26575  0.73997  0.08254  1.0000
  S   S59       1.0  0.19912  0.66425  0.02485  1.0000
  C   C197      1.0  0.21605  0.72077  0.08977  1.0000
  H   H314      1.0  0.22120  0.49102  0.20603  1.0000
  H   H315      1.0  0.25731  0.75890  0.10957  1.0000
  H   H316      1.0  0.18841  0.95952  0.14656  1.0000
  C   C198      1.0  0.20567  0.61250  0.02699  1.0000
  H   H317      1.0  0.30991  0.61488  0.99095  1.0000
  C   C199      1.0  0.41031  0.64089  0.00480  1.0000
  C   C200      1.0  0.34345  0.67019  0.02351  1.0000
  C   C201      1.0  0.22473  0.97035  0.26097  1.0000
  H   H318      1.0  0.36443  0.67137  0.98443  1.0000
  H   H319      1.0  0.21186  0.96046  0.11655  1.0000
  N   N13       1.0  0.19037  0.69654  0.10808  1.0000
  H   H320      1.0  0.14756  0.84461  0.15251  1.0000
  H   H321      1.0  0.32399  0.67140  0.03379  1.0000
  S   S60       1.0  0.44471  0.79870  0.01980  1.0000
  C   C202      1.0  0.19584  0.70330  0.13887  1.0000
  C   C203      1.0  0.36009  0.78828  0.00257  1.0000
  H   H322      1.0  0.23779  0.76721  0.31509  1.0000
  C   C204      1.0  0.20854  0.88809  0.16637  1.0000
  H   H323      1.0  0.34114  0.64713  0.02788  1.0000
  H   H324      1.0  0.20014  0.98616  0.20085  1.0000
  H   H325      1.0  0.36529  0.68791  0.03345  1.0000
  H   H326      1.0  0.24548  0.88105  0.18182  1.0000
  S   S61       1.0  0.19474  0.74148  0.00784  1.0000
  C   C205      1.0  0.24972  0.73552  0.10058  1.0000
  N   N14       1.0  0.20110  0.90632  0.14588  1.0000
  H   H327      1.0  0.17543  0.73263  0.14987  1.0000
  H   H328      1.0  0.39450  0.80933  0.03467  1.0000
  H   H329      1.0  0.18767  0.85175  0.11798  1.0000
  H   H330      1.0  0.47526  0.73280  0.23387  1.0000
  H   H331      1.0  0.16627  0.64680  0.11547  1.0000
  H   H332      1.0  0.17887  0.65754  0.08044  1.0000
  C   C206      1.0  0.21882  0.94003  0.15487  1.0000
  H   H333      1.0  0.17659  0.68441  0.15136  1.0000
  S   S62       1.0  0.44601  0.66725  0.02050  1.0000
  C   C207      1.0  0.29619  0.62677  0.98762  1.0000
  H   H334      1.0  0.21281  0.61943  0.04826  1.0000
  H   H335      1.0  0.14124  0.67975  0.11597  1.0000
  C   C208      1.0  0.38732  0.61592  0.02058  1.0000
  H   H336      1.0  0.21431  0.75404  0.13517  1.0000
  H   H337      1.0  0.21693  0.70328  0.14588  1.0000
  C   C209      1.0  0.35948  0.59336  0.00821  1.0000
  C   C210      1.0  0.99356  0.73833  0.25361  1.0000
  H   H338      1.0  0.35607  0.70203  0.98886  1.0000
  H   H339      1.0  0.99701  0.71929  0.25963  1.0000
  H   H340      1.0  0.26996  0.66138  0.01012  1.0000
  H   H341      1.0  0.47116  0.63498  0.09243  1.0000
  H   H342      1.0  0.48235  0.64582  0.05648  1.0000
  H   H343      1.0  0.19951  0.51923  0.22513  1.0000
  H   H344      1.0  0.48313  0.74920  0.19957  1.0000
  H   H345      1.0  0.22888  0.98693  0.14500  1.0000
  S   S63       1.0  0.20164  0.83187  0.31613  1.0000
  S   S64       1.0  0.48371  0.75092  0.04089  1.0000
  Fe  Fe32      1.0  0.47541  0.77824  0.00840  1.0000
  Fe  Fe33      1.0  0.21067  0.51391  0.98905  1.0000
  C   C211      1.0  0.19107  0.57401  0.99006  1.0000
  H   H346      1.0  0.18392  0.49675  0.26974  1.0000
  H   H347      1.0  0.20998  0.49783  0.29553  1.0000
  C   C212      1.0  0.21318  0.99020  0.21977  1.0000
  H   H348      1.0  0.99900  0.73265  0.31730  1.0000
  Fe  Fe34      1.0  0.21401  0.52246  0.48345  1.0000
  S   S65       1.0  0.18792  0.54816  0.47419  1.0000
  S   S66       1.0  0.24084  0.51991  0.44631  1.0000
  Fe  Fe35      1.0  0.21962  0.71645  0.50997  1.0000
  S   S67       1.0  0.23539  0.72865  0.46555  1.0000
  S   S68       1.0  0.21114  0.67318  0.53345  1.0000
  Fe  Fe36      1.0  0.27506  0.77229  0.48284  1.0000
  Fe  Fe37      1.0  0.20978  0.75552  0.46538  1.0000
  S   S69       1.0  0.17962  0.75181  0.42796  1.0000
  S   S70       1.0  0.18960  0.73890  0.50898  1.0000
  C   C213      1.0  0.22600  0.70609  0.62724  1.0000
  H   H349      1.0  0.30477  0.64238  0.55553  1.0000
  S   S71       1.0  0.43236  0.78646  0.52614  1.0000
  C   C214      1.0  0.37519  0.78314  0.46436  1.0000
  C   C215      1.0  0.39987  0.78297  0.47834  1.0000
  C   C216      1.0  0.40070  0.78395  0.50751  1.0000
  H   H350      1.0  0.37509  0.78313  0.44180  1.0000
  H   H351      1.0  0.41867  0.78298  0.46657  1.0000
  C   C217      1.0  0.39730  0.61604  0.51106  1.0000
  C   C218      1.0  0.36811  0.59510  0.49975  1.0000
  H   H352      1.0  0.40488  0.60968  0.52968  1.0000
  H   H353      1.0  0.35336  0.57279  0.50964  1.0000
  C   C219      1.0  0.19622  0.58356  0.49052  1.0000
  C   C220      1.0  0.20660  0.59021  0.51801  1.0000
  C   C221      1.0  0.21104  0.61774  0.53091  1.0000
  C   C222      1.0  0.20618  0.63934  0.51616  1.0000
  H   H354      1.0  0.21018  0.57363  0.52961  1.0000
  H   H355      1.0  0.21813  0.62221  0.55244  1.0000
  C   C223      1.0  0.19393  0.80987  0.34768  1.0000
  C   C224      1.0  0.21631  0.82146  0.36888  1.0000
  C   C225      1.0  0.21230  0.80425  0.39355  1.0000
  C   C226      1.0  0.18582  0.77496  0.39741  1.0000
  C   C227      1.0  0.16317  0.76362  0.37649  1.0000
  C   C228      1.0  0.16715  0.78088  0.35183  1.0000
  H   H356      1.0  0.23704  0.84390  0.36602  1.0000
  H   H357      1.0  0.22982  0.81357  0.40946  1.0000
  H   H358      1.0  0.14246  0.74112  0.37918  1.0000
  H   H359      1.0  0.14969  0.77153  0.33582  1.0000
  Fe  Fe38      1.0  0.28005  0.53505  0.47645  1.0000
  S   S72       1.0  0.25371  0.53957  0.51305  1.0000
  S   S73       1.0  0.32404  0.57614  0.45808  1.0000
  Fe  Fe39      1.0  0.23189  0.78181  0.52431  1.0000
  S   S74       1.0  0.25030  0.79999  0.48062  1.0000
  S   S75       1.0  0.23273  0.81366  0.55991  1.0000
  S   S76       1.0  0.32090  0.78508  0.46114  1.0000
  S   S77       1.0  0.26096  0.75869  0.52740  1.0000
  H   H360      1.0  0.12477  0.85098  0.50283  1.0000
  H   H361      1.0  0.14533  0.79502  0.53624  1.0000
  H   H362      1.0  0.10593  0.74977  0.45249  1.0000
  C   C229      1.0  0.35094  0.78375  0.47941  1.0000
  C   C230      1.0  0.37624  0.78416  0.52253  1.0000
  C   C231      1.0  0.35135  0.78381  0.50858  1.0000
  H   H363      1.0  0.37674  0.78497  0.54509  1.0000
  H   H364      1.0  0.33290  0.78439  0.52041  1.0000
  C   C232      1.0  0.35880  0.60255  0.47498  1.0000
  C   C233      1.0  0.37832  0.63149  0.46225  1.0000
  C   C234      1.0  0.40683  0.65290  0.47416  1.0000
  C   C235      1.0  0.41679  0.64499  0.49828  1.0000
  H   H365      1.0  0.37137  0.63729  0.44295  1.0000
  H   H366      1.0  0.42155  0.67504  0.46407  1.0000
  C   C236      1.0  0.19673  0.63316  0.48841  1.0000
  C   C237      1.0  0.19125  0.60512  0.47583  1.0000
  H   H367      1.0  0.19265  0.64944  0.47691  1.0000
  H   H368      1.0  0.18301  0.60002  0.45463  1.0000
  Fe  Fe40      1.0  0.47978  0.72135  0.50298  1.0000
  C   C238      1.0  0.16081  0.78012  0.61757  1.0000
  C   C239      1.0  0.17880  0.78298  0.59338  1.0000
  C   C240      1.0  0.20906  0.80822  0.59036  1.0000
  C   C241      1.0  0.22084  0.83047  0.61190  1.0000
  H   H369      1.0  0.33173  0.79463  0.36427  1.0000
  H   H370      1.0  0.13739  0.76063  0.61951  1.0000
  H   H371      1.0  0.16900  0.76592  0.57690  1.0000
  H   H372      1.0  0.24409  0.85024  0.60983  1.0000
  H   H373      1.0  0.33441  0.69045  0.46342  1.0000
  C   C242      1.0  0.19090  0.82578  0.45645  1.0000
  C   C243      1.0  0.24677  0.77859  0.33555  1.0000
  H   H374      1.0  0.28137  0.66044  0.45872  1.0000
  C   C244      1.0  0.43776  0.81547  0.59406  1.0000
  H   H375      1.0  0.30726  0.85123  0.41054  1.0000
  C   C245      1.0  0.17149  0.69830  0.58187  1.0000
  C   C246      1.0  0.27973  0.64239  0.47344  1.0000
  C   C247      1.0  0.12328  0.77498  0.45086  1.0000
  H   H376      1.0  0.25652  0.63261  0.48370  1.0000
  H   H377      1.0  0.31968  0.61693  0.54824  1.0000
  C   C248      1.0  0.27877  0.61608  0.45523  1.0000
  H   H378      1.0  0.36089  0.70631  0.51532  1.0000
  H   H379      1.0  0.19964  0.80906  0.45768  1.0000
  H   H380      1.0  0.45614  0.78491  0.58429  1.0000
  S   S78       1.0  0.46397  0.74451  0.47245  1.0000
  H   H381      1.0  0.23573  0.86202  0.47326  1.0000
  H   H382      1.0  0.17868  0.82593  0.55177  1.0000
  N   N15       1.0  0.16699  0.81928  0.47926  1.0000
  H   H383      1.0  0.11026  0.78751  0.44814  1.0000
  H   H384      1.0  0.15013  0.84218  0.45209  1.0000
  H   H385      1.0  0.13728  0.77771  0.43175  1.0000
  H   H386      1.0  0.21377  0.87735  0.45599  1.0000
  C   C249      1.0  0.36485  0.69504  0.49701  1.0000
  C   C250      1.0  0.45411  0.63694  0.41883  1.0000
  H   H387      1.0  0.17045  0.86451  0.48134  1.0000
  C   C251      1.0  0.21984  0.85867  0.45589  1.0000
  H   H388      1.0  0.99460  0.73775  0.35333  1.0000
  N   N16       1.0  0.21214  0.72636  0.62100  1.0000
  C   C252      1.0  0.26524  0.77471  0.60790  1.0000
  H   H389      1.0  0.28955  0.81313  0.42528  1.0000
  H   H390      1.0  0.41385  0.79504  0.59436  1.0000
  C   C253      1.0  0.12214  0.83134  0.48959  1.0000
  H   H391      1.0  0.27423  0.69366  0.48670  1.0000
  H   H392      1.0  0.18044  0.82236  0.43547  1.0000
  C   C254      1.0  0.23627  0.75966  0.62736  1.0000
  H   H393      1.0  0.20185  0.85059  0.50832  1.0000
  C   C255      1.0  0.31904  0.63764  0.54034  1.0000
  H   H394      1.0  0.16618  0.67489  0.58868  1.0000
  H   H395      1.0  0.17015  0.69751  0.55876  1.0000
  H   H396      1.0  0.43636  0.58931  0.43481  1.0000
  C   C256      1.0  0.20480  0.67071  0.62366  1.0000
  H   H397      1.0  0.48453  0.61730  0.45367  1.0000
  H   H398      1.0  0.25416  0.80356  0.33270  1.0000
  H   H399      1.0  0.48519  0.77577  0.63775  1.0000
  C   C257      1.0  0.29755  0.67621  0.51404  1.0000
  H   H400      1.0  0.32908  0.83171  0.41162  1.0000
  H   H401      1.0  0.17453  0.73397  0.63387  1.0000
  C   C258      1.0  0.18334  0.82577  0.50683  1.0000
  H   H402      1.0  0.46574  0.63526  0.47078  1.0000
  C   C259      1.0  0.14313  0.78510  0.47743  1.0000
  C   C260      1.0  0.29521  0.70273  0.49980  1.0000
  H   H403      1.0  0.45274  0.64610  0.39807  1.0000
  S   S79       1.0  0.45454  0.66940  0.51131  1.0000
  H   H404      1.0  0.10432  0.82740  0.47388  1.0000
  N   N17       1.0  0.28392  0.78135  0.37407  1.0000
  C   C261      1.0  0.29318  0.81501  0.37905  1.0000
  C   C262      1.0  0.27432  0.77430  0.34397  1.0000
  C   C263      1.0  0.31239  0.77844  0.37844  1.0000
  C   C264      1.0  0.25831  0.76112  0.39453  1.0000
  H   H405      1.0  0.31543  0.61898  0.49903  1.0000
  H   H406      1.0  0.31464  0.68697  0.53093  1.0000
  C   C265      1.0  0.30841  0.74579  0.37475  1.0000
  C   C266      1.0  0.23627  0.72681  0.38612  1.0000
  H   H407      1.0  0.45951  0.59784  0.40286  1.0000
  C   C267      1.0  0.46103  0.80397  0.59945  1.0000
  H   H408      1.0  0.22715  0.76808  0.35077  1.0000
  H   H409      1.0  0.37570  0.68127  0.50366  1.0000
  H   H410      1.0  0.16453  0.69460  0.63520  1.0000
  H   H411      1.0  0.32115  0.78531  0.40000  1.0000
  H   H412      1.0  0.26835  0.76106  0.41511  1.0000
  H   H413      1.0  0.24296  0.77112  0.39856  1.0000
  H   H414      1.0  0.30039  0.73603  0.35370  1.0000
  H   H415      1.0  0.30083  0.62349  0.44357  1.0000
  C   C268      1.0  0.18395  0.71843  0.63912  1.0000
  H   H416      1.0  0.27268  0.59493  0.46767  1.0000
  C   C269      1.0  0.20294  0.82745  0.63622  1.0000
  Fe  Fe41      1.0  0.46869  0.77569  0.50842  1.0000
  H   H417      1.0  0.33139  0.74746  0.37747  1.0000
  H   H418      1.0  0.25928  0.77640  0.58607  1.0000
  C   C270      1.0  0.30422  0.63001  0.51125  1.0000
  H   H419      1.0  0.22978  0.71195  0.40507  1.0000
  H   H420      1.0  0.24599  0.71687  0.37105  1.0000
  H   H421      1.0  0.21393  0.72376  0.37839  1.0000
  H   H422      1.0  0.15311  0.83513  0.53484  1.0000
  H   H423      1.0  0.11251  0.81056  0.50312  1.0000
  H   H424      1.0  0.23328  0.86140  0.43629  1.0000
  N   N18       1.0  0.30501  0.65641  0.49496  1.0000
  H   H425      1.0  0.34318  0.65719  0.54018  1.0000
  H   H426      1.0  0.29277  0.71743  0.51611  1.0000
  C   C271      1.0  0.16331  0.81978  0.53347  1.0000
  C   C272      1.0  0.17269  0.80223  0.63926  1.0000
  H   H427      1.0  0.22576  0.77495  0.62681  1.0000
  C   C273      1.0  0.15355  0.84032  0.47481  1.0000
  H   H428      1.0  0.19529  0.81187  0.50870  1.0000
  H   H429      1.0  0.15466  0.77075  0.47871  1.0000
  H   H430      1.0  0.12666  0.77694  0.49535  1.0000
  H   H431      1.0  0.34099  0.65932  0.46711  1.0000
  C   C274      1.0  0.30540  0.82804  0.40838  1.0000
  H   H432      1.0  0.43658  0.63866  0.43240  1.0000
  H   H433      1.0  0.27968  0.61122  0.51501  1.0000
  C   C275      1.0  0.20413  0.72424  0.59043  1.0000
  H   H434      1.0  0.28086  0.79900  0.61488  1.0000
  H   H435      1.0  0.42068  0.59153  0.40237  1.0000
  H   H436      1.0  0.44092  0.82653  0.57339  1.0000
  H   H437      1.0  0.31629  0.71802  0.48724  1.0000
  H   H438      1.0  0.38218  0.71480  0.48403  1.0000
  H   H439      1.0  0.27501  0.66140  0.52520  1.0000
  H   H440      1.0  0.29284  0.72959  0.39119  1.0000
  H   H441      1.0  0.26011  0.60888  0.43963  1.0000
  H   H442      1.0  0.45409  0.79254  0.62025  1.0000
  C   C276      1.0  0.33562  0.67506  0.47957  1.0000
  H   H443      1.0  0.26817  0.75034  0.33802  1.0000
  H   H444      1.0  0.22134  0.72151  0.57729  1.0000
  H   H445      1.0  0.20566  0.74622  0.58312  1.0000
  H   H446      1.0  0.27880  0.76252  0.60857  1.0000
  C   C277      1.0  0.44244  0.60195  0.41457  1.0000
  H   H447      1.0  0.15316  0.70319  0.58966  1.0000
  H   H448      1.0  0.24629  0.71221  0.61315  1.0000
  H   H449      1.0  0.29424  0.78940  0.32981  1.0000
  H   H450      1.0  0.27313  0.81870  0.37597  1.0000
  H   H451      1.0  0.31130  0.83049  0.36357  1.0000
  H   H452      1.0  0.43849  0.83160  0.61056  1.0000
  H   H453      1.0  0.46055  0.69537  0.40961  1.0000
  H   H454      1.0  0.20470  0.66378  0.60151  1.0000
  H   H455      1.0  0.18070  0.66195  0.63118  1.0000
  S   S80       1.0  0.48154  0.75053  0.53959  1.0000
  H   H456      1.0  0.48512  0.84628  0.63602  1.0000
  H   H457      1.0  0.21360  0.65839  0.63670  1.0000
  H   H458      1.0  0.24527  0.76181  0.64885  1.0000
  H   H459      1.0  0.23629  0.71061  0.64839  1.0000
  H   H460      1.0  0.47605  0.68707  0.45450  1.0000
  Fe  Fe42      1.0  0.10011  0.81455  0.75525  1.0000
  S   S81       1.0  0.12450  0.78702  0.74741  1.0000
  S   S82       1.0  0.04964  0.79605  0.77119  1.0000
  Fe  Fe43      1.0  0.16138  0.87759  0.74727  1.0000
  S   S83       1.0  0.18961  0.85401  0.73839  1.0000
  S   S84       1.0  0.17383  0.92876  0.75364  1.0000
  Fe  Fe44      1.0  0.14953  0.82044  0.71158  1.0000
  H   H461      1.0  0.13226  0.95145  0.73787  1.0000
  Fe  Fe45      1.0  0.16292  0.82187  0.77466  1.0000
  S   S85       1.0  0.19119  0.80999  0.80506  1.0000
  S   S86       1.0  0.12273  0.84607  0.71823  1.0000
  S   S87       1.0  0.13722  0.84737  0.78486  1.0000
  H   H462      1.0  0.11965  0.51999  0.90274  1.0000
  C   C278      1.0  0.22936  0.95695  0.81388  1.0000
  S   S88       1.0  0.23769  0.51186  0.95198  1.0000
  H   H463      1.0  0.45827  0.81235  0.95989  1.0000
  S   S89       1.0  0.23205  0.72601  0.95890  1.0000
  N   N19       1.0  0.07299  0.89518  0.74665  1.0000
  H   H464      1.0  0.06281  0.93685  0.79385  1.0000
  Fe  Fe46      1.0  0.21495  0.76034  0.96457  1.0000
  S   S90       1.0  0.18477  0.76971  0.93398  1.0000
  H   H465      1.0  0.04465  0.91531  0.73575  1.0000
  H   H466      1.0  0.13171  0.49390  0.86986  1.0000
  H   H467      1.0  0.14867  0.52002  0.92372  1.0000
  H   H468      1.0  0.42291  0.66202  0.96409  1.0000
  H   H469      1.0  0.48196  0.86163  0.86426  1.0000
  C   C279      1.0  0.09433  0.89658  0.76938  1.0000
  S   S91       1.0  0.32099  0.56687  0.96266  1.0000
  H   H470      1.0  0.46162  0.76821  0.92071  1.0000
  H   H471      1.0  0.41495  0.76098  0.97059  1.0000
  H   H472      1.0  0.20433  0.74511  0.67773  1.0000
  C   C280      1.0  0.05099  0.86112  0.74085  1.0000
  H   H473      1.0  0.01026  0.82840  0.71774  1.0000
  S   S92       1.0  0.31948  0.76531  0.95829  1.0000
  C   C281      1.0  0.18507  0.59322  0.97285  1.0000
  C   C282      1.0  0.23403  0.97487  0.73724  1.0000
  C   C283      1.0  0.07851  0.88186  0.79759  1.0000
  C   C284      1.0  0.20510  0.96789  0.74865  1.0000
  H   H474      1.0  0.20140  0.53094  0.91752  1.0000
  H   H475      1.0  0.42484  0.78840  0.92209  1.0000
  C   C285      1.0  0.18862  0.79853  0.84096  1.0000
  C   C286      1.0  0.21283  0.79504  0.85211  1.0000
  C   C287      1.0  0.21221  0.78642  0.88035  1.0000
  C   C288      1.0  0.18726  0.78108  0.89805  1.0000
  C   C289      1.0  0.16316  0.78481  0.88693  1.0000
  C   C290      1.0  0.16378  0.79343  0.85868  1.0000
  H   H476      1.0  0.23223  0.79888  0.83877  1.0000
  H   H477      1.0  0.23095  0.78369  0.88839  1.0000
  H   H478      1.0  0.14368  0.78074  0.90027  1.0000
  H   H479      1.0  0.14488  0.79585  0.85061  1.0000
  H   H480      1.0  0.99371  0.72550  0.80397  1.0000
  H   H481      1.0  0.23793  0.95617  0.73068  1.0000
  H   H482      1.0  0.22242  0.54461  0.88555  1.0000
  C   C291      1.0  0.00794  0.76870  0.72734  1.0000
  C   C292      1.0  0.01227  0.77772  0.75537  1.0000
  C   C293      1.0  0.35246  0.77207  0.97731  1.0000
  H   H483      1.0  0.02783  0.77328  0.71435  1.0000
  S   S93       1.0  0.26036  0.79839  0.98174  1.0000
  N   N20       1.0  0.22313  0.90681  0.83652  1.0000
  C   C294      1.0  0.23845  0.90020  0.81194  1.0000
  C   C295      1.0  0.20749  0.92386  0.82532  1.0000
  C   C296      1.0  0.19921  0.87577  0.84885  1.0000
  C   C297      1.0  0.24789  0.92568  0.85743  1.0000
  H   H484      1.0  0.27899  0.89936  0.82914  1.0000
  H   H485      1.0  0.43448  0.80216  0.88741  1.0000
  C   C298      1.0  0.17243  0.87476  0.86648  1.0000
  C   C299      1.0  0.23841  0.93892  0.88254  1.0000
  H   H486      1.0  0.22083  0.88590  0.79603  1.0000
  H   H487      1.0  0.25538  0.92198  0.80102  1.0000
  H   H488      1.0  0.19257  0.92651  0.84125  1.0000
  H   H489      1.0  0.19126  0.91009  0.80834  1.0000
  H   H490      1.0  0.18743  0.85842  0.83202  1.0000
  H   H491      1.0  0.21041  0.86589  0.86210  1.0000
  H   H492      1.0  0.25710  0.91139  0.86666  1.0000
  H   H493      1.0  0.26878  0.94520  0.84714  1.0000
  H   H494      1.0  0.18542  0.54200  0.88881  1.0000
  H   H495      1.0  0.17872  0.98791  0.76624  1.0000
  H   H496      1.0  0.17636  0.58552  0.95206  1.0000
  H   H497      1.0  0.23011  0.92229  0.90034  1.0000
  H   H498      1.0  0.03944  0.85775  0.69616  1.0000
  H   H499      1.0  0.01487  0.86639  0.71877  1.0000
  H   H500      1.0  0.15566  0.87708  0.85308  1.0000
  H   H501      1.0  0.18048  0.89234  0.88321  1.0000
  H   H502      1.0  0.15927  0.85157  0.87674  1.0000
  H   H503      1.0  0.33530  0.63739  0.94662  1.0000
  H   H504      1.0  0.22072  0.94545  0.87776  1.0000
  H   H505      1.0  0.16629  0.71270  0.68173  1.0000
  C   C300      1.0  0.02782  0.85360  0.71693  1.0000
  S   S94       1.0  0.18203  0.53655  0.97809  1.0000
  H   H506      1.0  0.09647  0.95329  0.77095  1.0000
  C   C301      1.0  0.09196  0.90940  0.72037  1.0000
  H   H507      1.0  0.37469  0.62145  0.94189  1.0000
  C   C302      1.0  0.32606  0.65374  0.94593  1.0000
  C   C303      1.0  0.45452  0.77480  0.90135  1.0000
  C   C304      1.0  0.29984  0.67661  0.97212  1.0000
  H   H508      1.0  0.06420  0.84888  0.73596  1.0000
  H   H509      1.0  0.12910  0.95125  0.70111  1.0000
  H   H510      1.0  0.10525  0.89748  0.71450  1.0000
  H   H511      1.0  0.30559  0.64264  0.93204  1.0000
  H   H512      1.0  0.40886  0.82151  0.93495  1.0000
  H   H513      1.0  0.34066  0.69838  0.92454  1.0000
  H   H514      1.0  0.28010  0.66475  0.95755  1.0000
  H   H515      1.0  0.43434  0.75329  0.89327  1.0000
  S   S95       1.0  0.46447  0.74328  0.97444  1.0000
  H   H516      1.0  0.03351  0.89403  0.76756  1.0000
  C   C305      1.0  0.12679  0.50453  0.91294  1.0000
  H   H517      1.0  0.36688  0.75016  0.94620  1.0000
  H   H518      1.0  0.43668  0.84326  0.96175  1.0000
  C   C306      1.0  0.47894  0.82590  0.94623  1.0000
  Fe  Fe47      1.0  0.27699  0.52660  0.98190  1.0000
  H   H519      1.0  0.10323  0.95835  0.72195  1.0000
  C   C307      1.0  0.40521  0.64319  0.97655  1.0000
  C   C308      1.0  0.05418  0.91041  0.75472  1.0000
  H   H520      1.0  0.10723  0.88461  0.76245  1.0000
  H   H521      1.0  0.07675  0.90623  0.70247  1.0000
  H   H522      1.0  0.03642  0.84923  0.75961  1.0000
  C   C309      1.0  0.37784  0.62015  0.96402  1.0000
  S   S96       1.0  0.14857  0.79690  0.66934  1.0000
  H   H523      1.0  0.99842  0.69720  0.78375  1.0000
  C   C310      1.0  0.44464  0.79933  0.90695  1.0000
  C   C311      1.0  0.39988  0.76873  0.97956  1.0000
  N   N21       1.0  0.31673  0.65853  0.97490  1.0000
  H   H524      1.0  0.11287  0.92064  0.77380  1.0000
  H   H525      1.0  0.31533  0.69988  0.96272  1.0000
  C   C312      1.0  0.18903  0.72074  0.67091  1.0000
  C   C313      1.0  0.07083  0.94105  0.77170  1.0000
  C   C314      1.0  0.25678  0.88347  0.81875  1.0000
  H   H526      1.0  0.26273  0.87571  0.79894  1.0000
  H   H527      1.0  0.35708  0.67633  0.91050  1.0000
  H   H528      1.0  0.42302  0.86204  0.93915  1.0000
  H   H529      1.0  0.18419  0.63630  0.96935  1.0000
  C   C315      1.0  0.37247  0.76236  0.96589  1.0000
  H   H530      1.0  0.18226  0.50054  0.85968  1.0000
  C   C316      1.0  0.35040  0.68338  0.93032  1.0000
  H   H531      1.0  0.27427  0.59593  0.95154  1.0000
  H   H532      1.0  0.19811  0.70566  0.67816  1.0000
  H   H533      1.0  0.24331  0.86241  0.83176  1.0000
  C   C317      1.0  0.42991  0.84391  0.93994  1.0000
  H   H534      1.0  0.24145  0.95672  0.79430  1.0000
  C   C318      1.0  0.11528  0.94460  0.72091  1.0000
  Fe  Fe48      1.0  0.27636  0.76296  0.97829  1.0000
  H   H535      1.0  0.09670  0.88862  0.81361  1.0000
  H   H536      1.0  0.06609  0.85608  0.79659  1.0000
  C   C319      1.0  0.19866  0.53036  0.89463  1.0000
  C   C320      1.0  0.26758  0.60407  0.97066  1.0000
  C   C321      1.0  0.18396  0.49730  0.88237  1.0000
  H   H537      1.0  0.06227  0.88965  0.80499  1.0000
  H   H538      1.0  0.25898  0.96092  0.88939  1.0000
  H   H539      1.0  0.37209  0.69711  0.94218  1.0000
  H   H540      1.0  0.06400  0.95770  0.76360  1.0000
  C   C322      1.0  0.18965  0.62210  0.98255  1.0000
  H   H541      1.0  0.25269  0.61401  0.96538  1.0000
  H   H542      1.0  0.44726  0.85320  0.89795  1.0000
  H   H543      1.0  0.47345  0.78243  0.88549  1.0000
  H   H544      1.0  0.21248  0.84474  0.65255  1.0000
  C   C323      1.0  0.35485  0.59514  0.97974  1.0000
  C   C324      1.0  0.45665  0.85222  0.91859  1.0000
  H   H545      1.0  0.47785  0.82371  0.85797  1.0000
  H   H546      1.0  0.98904  0.77912  0.79333  1.0000
  N   N22       1.0  0.46957  0.83039  0.91764  1.0000
  C   C325      1.0  0.98600  0.77188  0.77172  1.0000
  H   H547      1.0  0.24649  0.97236  0.82942  1.0000
  H   H548      1.0  0.21519  0.96780  0.80857  1.0000
  H   H549      1.0  0.25320  0.58293  0.98343  1.0000
  H   H550      1.0  0.47528  0.87655  0.92266  1.0000
  H   H551      1.0  0.10827  0.49099  0.92871  1.0000
  Fe  Fe49      1.0  0.87446  0.19603  0.23825  1.0000
  S   S97       1.0  0.84271  0.21646  0.23980  1.0000
  S   S98       1.0  0.92639  0.23457  0.23815  1.0000
  Fe  Fe50      1.0  0.81806  0.12931  0.23806  1.0000
  S   S99       1.0  0.78357  0.14626  0.24043  1.0000
  S   S100      1.0  0.80564  0.07869  0.22813  1.0000
  Fe  Fe51      1.0  0.81334  0.18147  0.20755  1.0000
  S   S101      1.0  0.78595  0.19242  0.17536  1.0000
  Fe  Fe52      1.0  0.81494  0.18063  0.27266  1.0000
  S   S102      1.0  0.84670  0.16323  0.20343  1.0000
  S   S103      1.0  0.84788  0.16141  0.27278  1.0000
  S   S104      1.0  0.51917  0.27647  0.02132  1.0000
  C   C326      1.0  0.77437  0.08771  0.16843  1.0000
  Fe  Fe53      1.0  0.75626  0.29476  0.00119  1.0000
  S   S105      1.0  0.72404  0.24967  0.02331  1.0000
  S   S106      1.0  0.75693  0.33535  0.02444  1.0000
  Fe  Fe54      1.0  0.76092  0.23669  0.01472  1.0000
  S   S107      1.0  0.78339  0.21716  0.04421  1.0000
  C   C327      1.0  0.76107  0.11610  0.13401  1.0000
  H   H552      1.0  0.94870  0.18998  0.24691  1.0000
  H   H553      1.0  0.72042  0.99746  0.28658  1.0000
  H   H554      1.0  0.72722  0.13270  0.13431  1.0000
  C   C328      1.0  0.76531  0.37158  0.00991  1.0000
  H   H555      1.0  0.76518  0.06490  0.17928  1.0000
  H   H556      1.0  0.78602  0.10579  0.18481  1.0000
  C   C329      1.0  0.76131  0.41876  0.01371  1.0000
  C   C330      1.0  0.75329  0.38879  0.02321  1.0000
  H   H557      1.0  0.75214  0.43186  0.02433  1.0000
  H   H558      1.0  0.73789  0.37900  0.04114  1.0000
  H   H559      1.0  0.59922  0.40314  0.04196  1.0000
  H   H560      1.0  0.55901  0.35703  0.01653  1.0000
  H   H561      1.0  0.93954  0.30149  0.28212  1.0000
  H   H562      1.0  0.77392  0.11192  0.11701  1.0000
  H   H563      1.0  0.74894  0.13960  0.10271  1.0000
  H   H564      1.0  0.64602  0.21954  0.02180  1.0000
  H   H565      1.0  0.77878  0.13835  0.14360  1.0000
  C   C331      1.0  0.78661  0.20053  0.13897  1.0000
  C   C332      1.0  0.80885  0.20098  0.12032  1.0000
  C   C333      1.0  0.80744  0.20616  0.09153  1.0000
  C   C334      1.0  0.78406  0.21129  0.08091  1.0000
  C   C335      1.0  0.76196  0.21108  0.09958  1.0000
  C   C336      1.0  0.76325  0.20571  0.12835  1.0000
  H   H566      1.0  0.82693  0.19699  0.12801  1.0000
  H   H567      1.0  0.82460  0.20612  0.07732  1.0000
  H   H568      1.0  0.74359  0.21456  0.09181  1.0000
  H   H569      1.0  0.74578  0.20524  0.14248  1.0000
  C   C337      1.0  0.77610  0.03995  0.23738  1.0000
  C   C338      1.0  0.77286  0.01482  0.22093  1.0000
  C   C339      1.0  0.60268  0.22006  0.02166  1.0000
  C   C340      1.0  0.63176  0.42025  0.00729  1.0000
  C   C341      1.0  0.75660  0.03336  0.26084  1.0000
  H   H570      1.0  0.78764  0.01950  0.20265  1.0000
  H   H571      1.0  0.75872  0.05223  0.27383  1.0000
  C   C342      1.0  0.60358  0.39912  0.02056  1.0000
  C   C343      1.0  0.96393  0.23877  0.24349  1.0000
  C   C344      1.0  0.96849  0.21334  0.24705  1.0000
  C   C345      1.0  0.72376  0.05972  0.14423  1.0000
  C   C346      1.0  0.88746  0.24549  0.30592  1.0000
  H   H572      1.0  0.74799  0.06485  0.10328  1.0000
  H   H573      1.0  0.71258  0.10053  0.17084  1.0000
  C   C347      1.0  0.49694  0.24671  0.11219  1.0000
  C   C348      1.0  0.52416  0.20751  0.09700  1.0000
  S   S108      1.0  0.54702  0.21914  0.02244  1.0000
  H   H574      1.0  0.85535  0.26371  0.30319  1.0000
  H   H575      1.0  0.89460  0.29422  0.30740  1.0000
  C   C349      1.0  0.73487  0.00216  0.26806  1.0000
  H   H576      1.0  0.81786  0.46792  0.04094  1.0000
  C   C350      1.0  0.94468  0.27206  0.31331  1.0000
  H   H577      1.0  0.61633  0.29000  0.04374  1.0000
  H   H578      1.0  0.56114  0.19668  0.10275  1.0000
  H   H579      1.0  0.58181  0.29236  0.04499  1.0000
  H   H580      1.0  0.80518  0.48194  0.06960  1.0000
  H   H581      1.0  0.74381  0.03317  0.12500  1.0000
  N   N23       1.0  0.74826  0.09055  0.15567  1.0000
  H   H582      1.0  0.71621  0.04124  0.16043  1.0000
  H   H583      1.0  0.79282  0.07594  0.13053  1.0000
  H   H584      1.0  0.66562  0.35227  0.02192  1.0000
  H   H585      1.0  0.89283  0.23703  0.28626  1.0000
  C   C351      1.0  0.80101  0.09145  0.14885  1.0000
  H   H586      1.0  0.74133  0.07784  0.21531  1.0000
  H   H587      1.0  0.70192  0.05983  0.13956  1.0000
  H   H588      1.0  0.81644  0.08553  0.16070  1.0000
  H   H589      1.0  0.53356  0.22206  0.11602  1.0000
  S   S109      1.0  0.79430  0.28295  0.99471  1.0000
  H   H590      1.0  0.53478  0.17409  0.07621  1.0000
  C   C352      1.0  0.60526  0.30554  0.00455  1.0000
  H   H591      1.0  0.94732  0.25893  0.29561  1.0000
  N   N24       1.0  0.81941  0.32287  0.08352  1.0000
  C   C353      1.0  0.81631  0.35106  0.07739  1.0000
  C   C354      1.0  0.78968  0.29473  0.07436  1.0000
  C   C355      1.0  0.84675  0.32593  0.06650  1.0000
  C   C356      1.0  0.82492  0.32253  0.11435  1.0000
  C   C357      1.0  0.84521  0.38307  0.08303  1.0000
  C   C358      1.0  0.76004  0.28788  0.09099  1.0000
  C   C359      1.0  0.84792  0.29594  0.06044  1.0000
  C   C360      1.0  0.82427  0.29334  0.12621  1.0000
  H   H592      1.0  0.81047  0.35120  0.05506  1.0000
  H   H593      1.0  0.79689  0.35061  0.08969  1.0000
  H   H594      1.0  0.79101  0.27314  0.07513  1.0000
  H   H595      1.0  0.78544  0.29710  0.05202  1.0000
  H   H596      1.0  0.84762  0.33605  0.04553  1.0000
  H   H597      1.0  0.86907  0.34242  0.07662  1.0000
  H   H598      1.0  0.84807  0.34234  0.11987  1.0000
  H   H599      1.0  0.80845  0.32690  0.12702  1.0000
  H   H600      1.0  0.86568  0.38691  0.07029  1.0000
  H   H601      1.0  0.83994  0.40154  0.07697  1.0000
  H   H602      1.0  0.85109  0.38652  0.10546  1.0000
  H   H603      1.0  0.76216  0.28513  0.11364  1.0000
  H   H604      1.0  0.75324  0.30572  0.08725  1.0000
  H   H605      1.0  0.74042  0.26544  0.08370  1.0000
  H   H606      1.0  0.83068  0.28167  0.04448  1.0000
  H   H607      1.0  0.84432  0.28155  0.07912  1.0000
  H   H608      1.0  0.87109  0.30222  0.05141  1.0000
  H   H609      1.0  0.84785  0.29597  0.12569  1.0000
  H   H610      1.0  0.80801  0.27154  0.11561  1.0000
  H   H611      1.0  0.81581  0.28975  0.14824  1.0000
  H   H612      1.0  0.60211  0.22277  0.04404  1.0000
  C   C361      1.0  0.73331  0.09999  0.17856  1.0000
  H   H613      1.0  0.69602  0.39924  0.99599  1.0000
  H   H614      1.0  0.71820  0.10106  0.10994  1.0000
  H   H615      1.0  0.70241  0.32668  0.98996  1.0000
  H   H616      1.0  0.74966  0.12414  0.18569  1.0000
  C   C362      1.0  0.73278  0.04686  0.11855  1.0000
  C   C363      1.0  0.62764  0.21834  0.00909  1.0000
  C   C364      1.0  0.73705  0.12227  0.11970  1.0000
  N   N25       1.0  0.63644  0.32094  0.98954  1.0000
  H   H617      1.0  0.70313  0.05517  0.20027  1.0000
  H   H618      1.0  0.81564  0.11600  0.14192  1.0000
  C   C365      1.0  0.58076  0.37300  0.00620  1.0000
  H   H619      1.0  0.59052  0.28110  0.99761  1.0000
  C   C366      1.0  0.53614  0.18416  0.09728  1.0000
  H   H620      1.0  0.64074  0.36370  0.00620  1.0000
  H   H621      1.0  0.88242  0.27479  0.27485  1.0000
  H   H622      1.0  0.71273  0.08911  0.22030  1.0000
  H   H623      1.0  0.52357  0.16534  0.11284  1.0000
  H   H624      1.0  0.52255  0.26127  0.10980  1.0000
  C   C367      1.0  0.60607  0.30411  0.03670  1.0000
  S   S110      1.0  0.65891  0.45390  0.02534  1.0000
  H   H625      1.0  0.90788  0.20259  0.29668  1.0000
  Fe  Fe55      1.0  0.51511  0.23349  0.00167  1.0000
  C   C368      1.0  0.72217  0.07902  0.20486  1.0000
  H   H626      1.0  0.59194  0.31746  0.99947  1.0000
  H   H627      1.0  0.61821  0.32759  0.04625  1.0000
  H   H628      1.0  0.53599  0.22368  0.07916  1.0000
  C   C369      1.0  0.57841  0.21808  0.00548  1.0000
  H   H629      1.0  0.82922  0.00070  0.24355  1.0000
  H   H630      1.0  0.71144  0.03128  0.10678  1.0000
  C   C370      1.0  0.87999  0.27125  0.29783  1.0000
  H   H631      1.0  0.94354  0.21513  0.31517  1.0000
  C   C371      1.0  0.78217  0.43218  0.99125  1.0000
  C   C372      1.0  0.65567  0.35324  0.00154  1.0000
  H   H632      1.0  0.97810  0.31503  0.29302  1.0000
  S   S111      1.0  0.79636  0.20069  0.30662  1.0000
  C   C373      1.0  0.65155  0.30155  0.99454  1.0000
  H   H633      1.0  0.49072  0.23789  0.13386  1.0000
  C   C374      1.0  0.95361  0.30398  0.30069  1.0000
  C   C375      1.0  0.78528  0.38453  0.98683  1.0000
  H   H634      1.0  0.95264  0.32031  0.31597  1.0000
  H   H635      1.0  0.49040  0.18409  0.05172  1.0000
  H   H636      1.0  0.65761  0.30240  0.01688  1.0000
  Fe  Fe56      1.0  0.70682  0.48830  0.00806  1.0000
  H   H637      1.0  0.49311  0.23099  0.06963  1.0000
  H   H638      1.0  0.97353  0.25204  0.18084  1.0000
  H   H639      1.0  0.63496  0.27648  0.99098  1.0000
  H   H640      1.0  0.48729  0.26235  0.10859  1.0000
  H   H641      1.0  0.86516  0.22537  0.31356  1.0000
  H   H642      1.0  0.84469  0.48853  0.06802  1.0000
  C   C376      1.0  0.82553  0.48762  0.05579  1.0000
  H   H643      1.0  0.77643  0.46997  0.31687  1.0000
  H   H644      1.0  0.84556  0.99257  0.21337  1.0000
  N   N26       1.0  0.48932  0.19369  0.09568  1.0000
  H   H645      1.0  0.49020  0.18958  0.14051  1.0000
  H   H646      1.0  0.63256  0.36650  0.50718  1.0000
  Fe  Fe57      1.0  0.50309  0.23144  0.49886  1.0000
  S   S112      1.0  0.53279  0.21140  0.51371  1.0000
  Fe  Fe58      1.0  0.50804  0.29171  0.48072  1.0000
  S   S113      1.0  0.54589  0.33755  0.46245  1.0000
  S   S114      1.0  0.50556  0.25143  0.45652  1.0000
  Fe  Fe59      1.0  0.75995  0.23566  0.46652  1.0000
  S   S115      1.0  0.78736  0.21923  0.43853  1.0000
  S   S116      1.0  0.74103  0.26763  0.45719  1.0000
  S   S117      1.0  0.65188  0.45267  0.52815  1.0000
  C   C377      1.0  0.76137  0.38969  0.46347  1.0000
  H   H647      1.0  0.76050  0.34561  0.46218  1.0000
  H   H648      1.0  0.75883  0.39044  0.44117  1.0000
  C   C378      1.0  0.57509  0.36897  0.48147  1.0000
  C   C379      1.0  0.60033  0.39288  0.46673  1.0000
  C   C380      1.0  0.62429  0.41824  0.48086  1.0000
  C   C381      1.0  0.62284  0.42033  0.50989  1.0000
  C   C382      1.0  0.59755  0.39646  0.52471  1.0000
  C   C383      1.0  0.57391  0.37065  0.51059  1.0000
  H   H649      1.0  0.60132  0.39182  0.44420  1.0000
  H   H650      1.0  0.64341  0.43659  0.46920  1.0000
  C   C384      1.0  0.56730  0.21670  0.49723  1.0000
  C   C385      1.0  0.57249  0.22167  0.46844  1.0000
  C   C386      1.0  0.59884  0.22273  0.45579  1.0000
  H   H651      1.0  0.55580  0.22382  0.45585  1.0000
  H   H652      1.0  0.60226  0.22567  0.43342  1.0000
  C   C387      1.0  0.79561  0.20637  0.34340  1.0000
  C   C388      1.0  0.78585  0.22698  0.35337  1.0000
  C   C389      1.0  0.78359  0.23150  0.38229  1.0000
  C   C390      1.0  0.79086  0.21529  0.40175  1.0000
  C   C391      1.0  0.80128  0.19519  0.39178  1.0000
  C   C392      1.0  0.80358  0.19066  0.36284  1.0000
  H   H653      1.0  0.77988  0.23949  0.33859  1.0000
  H   H654      1.0  0.77620  0.24754  0.38956  1.0000
  H   H655      1.0  0.80721  0.18268  0.40660  1.0000
  H   H656      1.0  0.81109  0.17471  0.35562  1.0000
  S   S118      1.0  0.50797  0.27261  0.52307  1.0000
  S   S119      1.0  0.71475  0.19796  0.48515  1.0000
  Fe  Fe60      1.0  0.75485  0.28609  0.50082  1.0000
  S   S120      1.0  0.70962  0.25121  0.52088  1.0000
  S   S121      1.0  0.77275  0.33444  0.51919  1.0000
  Fe  Fe61      1.0  0.73214  0.22178  0.52667  1.0000
  S   S122      1.0  0.72409  0.19527  0.56811  1.0000
  Fe  Fe62      1.0  0.69680  0.23105  0.47804  1.0000
  S   S123      1.0  0.65267  0.21976  0.45496  1.0000
  S   S124      1.0  0.77820  0.25768  0.50876  1.0000
  S   S125      1.0  0.76673  0.44759  0.46378  1.0000
  C   C393      1.0  0.76719  0.36377  0.50394  1.0000
  C   C394      1.0  0.76227  0.36422  0.47533  1.0000
  C   C395      1.0  0.76460  0.41457  0.48014  1.0000
  C   C396      1.0  0.76802  0.41341  0.50894  1.0000
  C   C397      1.0  0.76971  0.38830  0.52071  1.0000
  H   H657      1.0  0.77070  0.43248  0.52196  1.0000
  H   H658      1.0  0.77362  0.38822  0.54283  1.0000
  H   H659      1.0  0.59620  0.39793  0.54717  1.0000
  H   H660      1.0  0.55451  0.35243  0.52215  1.0000
  C   C398      1.0  0.62075  0.21992  0.47187  1.0000
  C   C399      1.0  0.61618  0.21619  0.50077  1.0000
  C   C400      1.0  0.58935  0.21415  0.51330  1.0000
  H   H661      1.0  0.63275  0.21379  0.51337  1.0000
  H   H662      1.0  0.58545  0.21017  0.53555  1.0000
  N   N27       1.0  0.91285  0.25378  0.32680  1.0000
  H   H663      1.0  0.70292  0.44733  0.37386  1.0000
  C   C401      1.0  0.73777  0.18137  0.61989  1.0000
  C   C402      1.0  0.75009  0.19805  0.59479  1.0000
  C   C403      1.0  0.78238  0.21679  0.59198  1.0000
  C   C404      1.0  0.80191  0.21918  0.61412  1.0000
  H   H664      1.0  0.65077  0.34667  0.45103  1.0000
  H   H665      1.0  0.71284  0.16688  0.62239  1.0000
  H   H666      1.0  0.79231  0.22951  0.57277  1.0000
  H   H667      1.0  0.80907  0.35676  0.60919  1.0000
  H   H668      1.0  0.87946  0.27147  0.38426  1.0000
  H   H669      1.0  0.71900  0.13729  0.41821  1.0000
  C   C405      1.0  0.63435  0.14233  0.40481  1.0000
  H   H670      1.0  0.77481  0.07465  0.61541  1.0000
  H   H671      1.0  0.72611  0.18942  0.41497  1.0000
  H   H672      1.0  0.50851  0.20086  0.41521  1.0000
  C   C406      1.0  0.59527  0.29780  0.53446  1.0000
  H   H673      1.0  0.96296  0.27577  0.32853  1.0000
  C   C407      1.0  0.67552  0.31486  0.47448  1.0000
  H   H674      1.0  0.76249  0.25002  0.63230  1.0000
  H   H675      1.0  0.72171  0.28163  0.61371  1.0000
  H   H676      1.0  0.58416  0.29222  0.44678  1.0000
  C   C408      1.0  0.64743  0.30643  0.49431  1.0000
  H   H677      1.0  0.68864  0.17730  0.42798  1.0000
  H   H678      1.0  0.70953  0.26189  0.58153  1.0000
  H   H679      1.0  0.64756  0.14573  0.36110  1.0000
  N   N28       1.0  0.63079  0.32476  0.49126  1.0000
  C   C409      1.0  0.82731  0.31799  0.56542  1.0000
  H   H680      1.0  0.64226  0.16437  0.41622  1.0000
  H   H681      1.0  0.58538  0.28276  0.49229  1.0000
  H   H682      1.0  0.74920  0.44830  0.37539  1.0000
  H   H683      1.0  0.68129  0.14274  0.32855  1.0000
  N   N29       1.0  0.69062  0.16637  0.38400  1.0000
  H   H684      1.0  0.60967  0.28750  0.54043  1.0000
  H   H685      1.0  0.91545  0.29516  0.34600  1.0000
  H   H686      1.0  0.68829  0.19507  0.35112  1.0000
  C   C410      1.0  0.62790  0.33204  0.46131  1.0000
  H   H687      1.0  0.72342  0.21299  0.37000  1.0000
  H   H688      1.0  0.85962  0.25182  0.35345  1.0000
  H   H689      1.0  0.78769  0.46989  0.36387  1.0000
  H   H690      1.0  0.69656  0.37057  0.50246  1.0000
  C   C411      1.0  0.65647  0.14282  0.38136  1.0000
  H   H691      1.0  0.57076  0.28012  0.53948  1.0000
  H   H692      1.0  0.66881  0.29747  0.45743  1.0000
  H   H693      1.0  0.70409  0.14463  0.44953  1.0000
  H   H694      1.0  0.74154  0.32786  0.58881  1.0000
  C   C412      1.0  0.91053  0.27153  0.35157  1.0000
  H   H695      1.0  0.87380  0.23369  0.37734  1.0000
  C   C413      1.0  0.68601  0.21624  0.38918  1.0000
  C   C414      1.0  0.81801  0.12723  0.64507  1.0000
  H   H696      1.0  0.67729  0.11983  0.42381  1.0000
  H   H697      1.0  0.70272  0.13104  0.37276  1.0000
  H   H698      1.0  0.50966  0.19329  0.36354  1.0000
  C   C415      1.0  0.70914  0.15525  0.36696  1.0000
  H   H699      1.0  0.75258  0.33756  0.62525  1.0000
  H   H700      1.0  0.92876  0.27573  0.36704  1.0000
  H   H701      1.0  0.73436  0.16955  0.37145  1.0000
  C   C416      1.0  0.68000  0.37892  0.49847  1.0000
  H   H702      1.0  0.70917  0.48123  0.58532  1.0000
  C   C417      1.0  0.70592  0.15522  0.33498  1.0000
  H   H703      1.0  0.51004  0.22834  0.37289  1.0000
  H   H704      1.0  0.61625  0.34626  0.46034  1.0000
  H   H705      1.0  0.68176  0.38650  0.47651  1.0000
  H   H706      1.0  0.79483  0.34445  0.57501  1.0000
  H   H707      1.0  0.48634  0.09955  0.40793  1.0000
  C   C418      1.0  0.70164  0.17012  0.41366  1.0000
  C   C419      1.0  0.59811  0.30561  0.50304  1.0000
  H   H708      1.0  0.64842  0.35007  0.52999  1.0000
  H   H709      1.0  0.61740  0.28637  0.44411  1.0000
  C   C420      1.0  0.76072  0.34229  0.60324  1.0000
  C   C421      1.0  0.90970  0.22384  0.33804  1.0000
  H   H710      1.0  0.71879  0.24399  0.60838  1.0000
  H   H711      1.0  0.70811  0.07349  0.64860  1.0000
  H   H712      1.0  0.69481  0.22111  0.41076  1.0000
  C   C422      1.0  0.78913  0.33833  0.59742  1.0000
  H   H713      1.0  0.61299  0.31147  0.42023  1.0000
  H   H714      1.0  0.81337  0.28467  0.59837  1.0000
  H   H715      1.0  0.68599  0.47177  0.37473  1.0000
  H   H716      1.0  0.88546  0.20782  0.34549  1.0000
  H   H717      1.0  0.65562  0.30806  0.51607  1.0000
  H   H718      1.0  0.64140  0.48683  0.57485  1.0000
  C   C423      1.0  0.75732  0.18375  0.64203  1.0000
  H   H719      1.0  0.73730  0.46261  0.32333  1.0000
  C   C424      1.0  0.76466  0.46822  0.36150  1.0000
  C   C425      1.0  0.87894  0.25586  0.36727  1.0000
  H   H720      1.0  0.75923  0.29060  0.56533  1.0000
  H   H721      1.0  0.83451  0.32394  0.60971  1.0000
  H   H722      1.0  0.61168  0.13642  0.39557  1.0000
  S   S126      1.0  0.73943  0.48452  0.52842  1.0000
  H   H723      1.0  0.68697  0.33854  0.46553  1.0000
  H   H724      1.0  0.83830  0.34359  0.56280  1.0000
  C   C426      1.0  0.69787  0.19758  0.37241  1.0000
  H   H725      1.0  0.75937  0.30049  0.64260  1.0000
  Fe  Fe63      1.0  0.75551  0.48231  0.48467  1.0000
  H   H726      1.0  0.60082  0.31845  0.54751  1.0000
  C   C427      1.0  0.72595  0.26703  0.59885  1.0000
  H   H727      1.0  0.75839  0.09297  0.57507  1.0000
  C   C428      1.0  0.64665  0.35470  0.50763  1.0000
  H   H728      1.0  0.82682  0.23390  0.61170  1.0000
  H   H729      1.0  0.58430  0.31736  0.49934  1.0000
  C   C429      1.0  0.60953  0.30359  0.44231  1.0000
  H   H730      1.0  0.63090  0.28125  0.49081  1.0000
  H   H731      1.0  0.81922  0.11959  0.62357  1.0000
  H   H732      1.0  0.69368  0.31301  0.48621  1.0000
  H   H733      1.0  0.65309  0.11884  0.38094  1.0000
  C   C430      1.0  0.70017  0.14103  0.42673  1.0000
  H   H734      1.0  0.68780  0.40022  0.51134  1.0000
  H   H735      1.0  0.72942  0.11362  0.64041  1.0000
  H   H736      1.0  0.76372  0.26199  0.58306  1.0000
  H   H737      1.0  0.92462  0.22844  0.35662  1.0000
  H   H738      1.0  0.49928  0.18708  0.45945  1.0000
  H   H739      1.0  0.66035  0.20503  0.38896  1.0000
  H   H740      1.0  0.67200  0.47211  0.59904  1.0000
  H   H741      1.0  0.80866  0.30629  0.54999  1.0000
  C   C431      1.0  0.81545  0.30792  0.59567  1.0000
  H   H742      1.0  0.76736  0.36685  0.59889  1.0000
  C   C432      1.0  0.75688  0.08159  0.61907  1.0000
  H   H743      1.0  0.72505  0.02612  0.64936  1.0000
  H   H744      1.0  0.73431  0.06001  0.61547  1.0000
  H   H745      1.0  0.78339  0.12594  0.59552  1.0000
  C   C433      1.0  0.75942  0.28173  0.58656  1.0000
  H   H746      1.0  0.74181  0.11061  0.59649  1.0000
  H   H747      1.0  0.84547  0.31178  0.56033  1.0000
  H   H748      1.0  0.80672  0.48564  0.40612  1.0000
  S   S127      1.0  0.71361  0.47893  0.46427  1.0000
  Fe  Fe64      1.0  0.69891  0.48384  0.50740  1.0000
  C   C434      1.0  0.76037  0.10439  0.59556  1.0000
  N   N30       1.0  0.78527  0.30677  0.60358  1.0000
  C   C435      1.0  0.78056  0.30082  0.63462  1.0000
  C   C436      1.0  0.78959  0.20279  0.63934  1.0000
  H   H749      1.0  0.62906  0.12345  0.42004  1.0000
  H   H750      1.0  0.83649  0.15206  0.64642  1.0000
  H   H751      1.0  0.69497  0.23933  0.37908  1.0000
  H   H752      1.0  0.90878  0.18085  0.32593  1.0000
  C   C437      1.0  0.49549  0.20254  0.37321  1.0000
  H   H753      1.0  0.50724  0.15295  0.41017  1.0000
  H   H754      1.0  0.70783  0.47209  0.40372  1.0000
  C   C438      1.0  0.70680  0.47038  0.38069  1.0000
  H   H755      1.0  0.75494  0.48073  0.41356  1.0000
  H   H756      1.0  0.78467  0.14278  0.64018  1.0000
  H   H757      1.0  0.71756  0.14322  0.32523  1.0000
  H   H758      1.0  0.74568  0.43275  0.32929  1.0000
  N   N31       1.0  0.75821  0.09315  0.64849  1.0000
  C   C439      1.0  0.77879  0.27046  0.64468  1.0000
  H   H759      1.0  0.80203  0.27233  0.64426  1.0000
  H   H760      1.0  0.79983  0.32030  0.64618  1.0000
  C   C440      1.0  0.75572  0.45835  0.33095  1.0000
  H   H761      1.0  0.71804  0.17925  0.32639  1.0000
  C   C441      1.0  0.48631  0.19177  0.40382  1.0000
  H   H762      1.0  0.49498  0.14861  0.45673  1.0000
  H   H763      1.0  0.48960  0.14443  0.37767  1.0000
  C   C442      1.0  0.91795  0.20475  0.31754  1.0000
  Fe  Fe65      1.0  0.87757  0.19955  0.74334  1.0000
  S   S128      1.0  0.84461  0.21860  0.74534  1.0000
  S   S129      1.0  0.92862  0.23915  0.74708  1.0000
  Fe  Fe66      1.0  0.82213  0.13190  0.73496  1.0000
  S   S130      1.0  0.78660  0.14748  0.73618  1.0000
  S   S131      1.0  0.81243  0.08233  0.72490  1.0000
  Fe  Fe67      1.0  0.82028  0.18747  0.70854  1.0000
  C   C443      1.0  0.63028  0.32265  0.95905  1.0000
  Fe  Fe68      1.0  0.81394  0.17756  0.77281  1.0000
  S   S132      1.0  0.79075  0.17543  0.81552  1.0000
  S   S133      1.0  0.85469  0.17048  0.70557  1.0000
  S   S134      1.0  0.84788  0.15976  0.77278  1.0000
  H   H764      1.0  0.88041  0.17957  0.85834  1.0000
  H   H765      1.0  0.86913  0.24908  0.84717  1.0000
  C   C444      1.0  0.89933  0.27189  0.81240  1.0000
  H   H766      1.0  0.65198  0.33619  0.94667  1.0000
  S   S135      1.0  0.51736  0.25016  0.95798  1.0000
  Fe  Fe69      1.0  0.77140  0.26078  0.95387  1.0000
  S   S136      1.0  0.79763  0.26923  0.91183  1.0000
  S   S137      1.0  0.73665  0.27731  0.95888  1.0000
  H   H767      1.0  0.72443  0.08765  0.69991  1.0000
  C   C445      1.0  0.71982  0.25353  0.88405  1.0000
  H   H768      1.0  0.92257  0.20778  0.88161  1.0000
  C   C446      1.0  0.65948  0.48518  0.93749  1.0000
  H   H769      1.0  0.73588  0.02303  0.68385  1.0000
  H   H770      1.0  0.94290  0.24393  0.89850  1.0000
  H   H771      1.0  0.70736  0.15103  0.85788  1.0000
  H   H772      1.0  0.77042  0.26587  0.66672  1.0000
  H   H773      1.0  0.93386  0.24142  0.81025  1.0000
  H   H774      1.0  0.60846  0.45552  0.97411  1.0000
  H   H775      1.0  0.51497  0.31565  0.77481  1.0000
  H   H776      1.0  0.88431  0.28136  0.80582  1.0000
  H   H777      1.0  0.68295  0.31957  0.95699  1.0000
  H   H778      1.0  0.56061  0.21267  0.96395  1.0000
  H   H779      1.0  0.58871  0.42992  0.94530  1.0000
  S   S138      1.0  0.81564  0.20774  0.66676  1.0000
  H   H780      1.0  0.60375  0.20791  0.94188  1.0000
  H   H781      1.0  0.66602  0.47184  0.89501  1.0000
  C   C447      1.0  0.79332  0.20222  0.84185  1.0000
  C   C448      1.0  0.80672  0.23420  0.83690  1.0000
  C   C449      1.0  0.80795  0.25429  0.85855  1.0000
  C   C450      1.0  0.79573  0.24279  0.88540  1.0000
  C   C451      1.0  0.78268  0.21087  0.89040  1.0000
  C   C452      1.0  0.78114  0.19074  0.86870  1.0000
  H   H782      1.0  0.81594  0.24345  0.81635  1.0000
  H   H783      1.0  0.81825  0.27895  0.85441  1.0000
  H   H784      1.0  0.77402  0.20175  0.91109  1.0000
  H   H785      1.0  0.77089  0.16609  0.87287  1.0000
  C   C453      1.0  0.78033  0.04404  0.73167  1.0000
  C   C454      1.0  0.75179  0.03886  0.74263  1.0000
  H   H786      1.0  0.67898  0.13687  0.90229  1.0000
  C   C455      1.0  0.60621  0.47922  0.93473  1.0000
  C   C456      1.0  0.78330  0.01795  0.72467  1.0000
  H   H787      1.0  0.74893  0.05848  0.74811  1.0000
  H   H788      1.0  0.80515  0.02152  0.71613  1.0000
  H   H789      1.0  0.67460  0.38433  0.96492  1.0000
  C   C457      1.0  0.96689  0.24427  0.74795  1.0000
  H   H790      1.0  0.69730  0.15166  0.93424  1.0000
  H   H791      1.0  0.95354  0.19630  0.74114  1.0000
  H   H792      1.0  0.76472  0.08025  0.68995  1.0000
  C   C458      1.0  0.61394  0.38939  0.96501  1.0000
  H   H793      1.0  0.71632  0.27375  0.88758  1.0000
  C   C459      1.0  0.91932  0.24652  0.86159  1.0000
  H   H794      1.0  0.90875  0.26725  0.79294  1.0000
  C   C460      1.0  0.61176  0.29116  0.94397  1.0000
  H   H795      1.0  0.90874  0.25545  0.87718  1.0000
  H   H796      1.0  0.68297  0.28857  0.97449  1.0000
  H   H797      1.0  0.82386  0.11415  0.66023  1.0000
  C   C461      1.0  0.91177  0.21987  0.81592  1.0000
  H   H798      1.0  0.62358  0.27721  0.94470  1.0000
  C   C462      1.0  0.85550  0.19788  0.88025  1.0000
  H   H799      1.0  0.96767  0.25929  0.66579  1.0000
  C   C463      1.0  0.72670  0.00812  0.74627  1.0000
  H   H800      1.0  0.79486  0.37164  0.97651  1.0000
  C   C464      1.0  0.87125  0.19519  0.85315  1.0000
  H   H801      1.0  0.60922  0.14172  0.89531  1.0000
  H   H802      1.0  0.91847  0.29036  0.82459  1.0000
  C   C465      1.0  0.72950  0.09558  0.65403  1.0000
  H   H803      1.0  0.70411  0.20850  0.83820  1.0000
  H   H804      1.0  0.62974  0.44370  0.91183  1.0000
  H   H805      1.0  0.72084  0.15711  0.90363  1.0000
  H   H806      1.0  0.64587  0.17300  0.85711  1.0000
  H   H807      1.0  0.83649  0.17432  0.88636  1.0000
  H   H808      1.0  0.65522  0.47375  0.95804  1.0000
  H   H809      1.0  0.57090  0.44748  0.96444  1.0000
  H   H810      1.0  0.81020  0.42510  0.96047  1.0000
  C   C466      1.0  0.93669  0.23304  0.87752  1.0000
  C   C467      1.0  0.68168  0.31008  0.97803  1.0000
  H   H811      1.0  0.98189  0.23307  0.66987  1.0000
  C   C468      1.0  0.97273  0.21961  0.74435  1.0000
  H   H812      1.0  0.73350  0.21114  0.86050  1.0000
  C   C469      1.0  0.91952  0.19346  0.81826  1.0000
  H   H813      1.0  0.62846  0.18196  0.90402  1.0000
  H   H814      1.0  0.70264  0.10385  0.68573  1.0000
  C   C470      1.0  0.63721  0.41471  0.97973  1.0000
  H   H815      1.0  0.73426  0.25348  0.90133  1.0000
  S   S139      1.0  0.55693  0.33730  0.95858  1.0000
  H   H816      1.0  0.85954  0.22612  0.81635  1.0000
  C   C471      1.0  0.75994  0.07065  0.66840  1.0000
  H   H817      1.0  0.72316  0.17223  0.82645  1.0000
  C   C472      1.0  0.59371  0.45190  0.95590  1.0000
  S   S140      1.0  0.65720  0.20807  0.96416  1.0000
  H   H818      1.0  0.73285  0.25776  0.86402  1.0000
  H   H819      1.0  0.93778  0.26804  0.85130  1.0000
  N   N32       1.0  0.89587  0.22561  0.84054  1.0000
  H   H820      1.0  0.87202  0.20688  0.89777  1.0000
  C   C473      1.0  0.58563  0.36841  0.97817  1.0000
  H   H821      1.0  0.77990  0.06720  0.66291  1.0000
  H   H822      1.0  0.65925  0.43012  0.96972  1.0000
  H   H823      1.0  0.72674  0.20631  0.90847  1.0000
  H   H824      1.0  0.69149  0.19345  0.92590  1.0000
  H   H825      1.0  0.60975  0.29561  0.92163  1.0000
  H   H826      1.0  0.70474  0.00450  0.75460  1.0000
  H   H827      1.0  0.89696  0.21395  0.79721  1.0000
  H   H828      1.0  0.65362  0.14516  0.87148  1.0000
  H   H829      1.0  0.68214  0.15272  0.83187  1.0000
  C   C474      1.0  0.87938  0.24205  0.82977  1.0000
  H   H830      1.0  0.63969  0.15614  0.92011  1.0000
  S   S141      1.0  0.72616  0.48473  0.96646  1.0000
  C   C475      1.0  0.60377  0.21175  0.96412  1.0000
  H   H831      1.0  0.85264  0.18180  0.83771  1.0000
  H   H832      1.0  0.61795  0.38587  0.94337  1.0000
  H   H833      1.0  0.95843  0.23804  0.86619  1.0000
  H   H834      1.0  0.74343  0.12819  0.68942  1.0000
  H   H835      1.0  0.66598  0.44741  0.92192  1.0000
  H   H836      1.0  0.93365  0.19443  0.79963  1.0000
  S   S142      1.0  0.74012  0.21405  0.97326  1.0000
  H   H837      1.0  0.84471  0.21254  0.87779  1.0000
  H   H838      1.0  0.78820  0.13242  0.67447  1.0000
  C   C476      1.0  0.73097  0.03784  0.66991  1.0000
  Fe  Fe70      1.0  0.70646  0.23175  0.98042  1.0000
  N   N33       1.0  0.68830  0.19330  0.88069  1.0000
  C   C477      1.0  0.68780  0.22345  0.88359  1.0000
  C   C478      1.0  0.65525  0.16784  0.87606  1.0000
  C   C479      1.0  0.70845  0.19633  0.85555  1.0000
  C   C480      1.0  0.70170  0.18863  0.90703  1.0000
  C   C481      1.0  0.72518  0.10424  0.68411  1.0000
  C   C482      1.0  0.63222  0.16195  0.90044  1.0000
  C   C483      1.0  0.70466  0.16606  0.84264  1.0000
  C   C484      1.0  0.69954  0.15679  0.91150  1.0000
  H   H839      1.0  0.67457  0.22614  0.86630  1.0000
  H   H840      1.0  0.67560  0.22370  0.90323  1.0000
  C   C485      1.0  0.57930  0.21445  0.97658  1.0000
  H   H841      1.0  0.74737  0.17141  0.66136  1.0000
  H   H842      1.0  0.69969  0.37015  0.97715  1.0000
  C   C486      1.0  0.79399  0.41487  0.97781  1.0000
  H   H843      1.0  0.49250  0.31749  0.74706  1.0000
  H   H844      1.0  0.59832  0.46815  0.91390  1.0000
  H   H845      1.0  0.93331  0.19543  0.83675  1.0000
  C   C487      1.0  0.65463  0.46066  0.91513  1.0000
  H   H846      1.0  0.89815  0.17023  0.81783  1.0000
  C   C488      1.0  0.62801  0.21365  0.98031  1.0000
  C   C489      1.0  0.49084  0.30600  0.76728  1.0000
  H   H847      1.0  0.49201  0.26586  0.75156  1.0000
  Fe  Fe71      1.0  0.51873  0.29205  0.97779  1.0000
  H   H848      1.0  0.71051  0.03824  0.67904  1.0000
  H   H849      1.0  0.58766  0.27734  0.95223  1.0000
  S   S143      1.0  0.79594  0.47129  0.98094  1.0000
  C   C490      1.0  0.68295  0.37764  0.98353  1.0000
  H   H850      1.0  0.61737  0.33543  0.95647  1.0000
  H   H851      1.0  0.48767  0.27714  0.70684  1.0000
  C   C491      1.0  0.78647  0.12477  0.65239  1.0000
  Fe  Fe72      1.0  0.87036  0.71025  0.24152  1.0000
  S   S144      1.0  0.85523  0.65943  0.24581  1.0000
  S   S145      1.0  0.92023  0.75082  0.23363  1.0000
  Fe  Fe73      1.0  0.80350  0.69871  0.25106  1.0000
  S   S146      1.0  0.78483  0.64703  0.25674  1.0000
  S   S147      1.0  0.76612  0.71324  0.25687  1.0000
  Fe  Fe74      1.0  0.82648  0.65949  0.28304  1.0000
  C   C492      1.0  0.52164  0.77846  0.30779  1.0000
  Fe  Fe75      1.0  0.81451  0.65055  0.21905  1.0000
  S   S148      1.0  0.79030  0.61032  0.18750  1.0000
  S   S149      1.0  0.84350  0.71096  0.27985  1.0000
  S   S150      1.0  0.83126  0.70151  0.21224  1.0000
  Fe  Fe76      1.0  0.63700  0.82962  0.21763  1.0000
  S   S151      1.0  0.68836  0.86360  0.21213  1.0000
  S   S152      1.0  0.59570  0.81208  0.18762  1.0000
  Fe  Fe77      1.0  0.64285  0.82178  0.28099  1.0000
  S   S153      1.0  0.69456  0.85483  0.27964  1.0000
  C   C493      1.0  0.91108  0.58498  0.06938  1.0000
  Fe  Fe78      1.0  0.68484  0.88592  0.25218  1.0000
  S   S154      1.0  0.70494  0.93804  0.26300  1.0000
  Fe  Fe79      1.0  0.69551  0.83067  0.23990  1.0000
  S   S155      1.0  0.73679  0.82305  0.22943  1.0000
  S   S156      1.0  0.63283  0.85402  0.25621  1.0000
  S   S157      1.0  0.64440  0.79549  0.24273  1.0000
  Fe  Fe80      1.0  0.76638  0.54760  0.02513  1.0000
  C   C494      1.0  0.51404  0.70735  0.07404  1.0000
  S   S158      1.0  0.79336  0.58859  0.05531  1.0000
  H   H852      1.0  0.54643  0.68574  0.00471  1.0000
  H   H853      1.0  0.75418  0.89190  0.25236  1.0000
  Fe  Fe81      1.0  0.53365  0.77619  0.02684  1.0000
  H   H854      1.0  0.52467  0.65401  0.02798  1.0000
  S   S159      1.0  0.57614  0.79293  0.05516  1.0000
  C   C495      1.0  0.59117  0.80781  0.15060  1.0000
  C   C496      1.0  0.56149  0.79735  0.13936  1.0000
  C   C497      1.0  0.55654  0.79332  0.11028  1.0000
  C   C498      1.0  0.58125  0.79960  0.09193  1.0000
  C   C499      1.0  0.61086  0.80987  0.10318  1.0000
  C   C500      1.0  0.61584  0.81402  0.13225  1.0000
  H   H855      1.0  0.54219  0.79253  0.15322  1.0000
  H   H856      1.0  0.53364  0.78542  0.10205  1.0000
  H   H857      1.0  0.63015  0.81466  0.08928  1.0000
  H   H858      1.0  0.63878  0.82201  0.14043  1.0000
  C   C501      1.0  0.76388  0.93505  0.30117  1.0000
  H   H859      1.0  0.74838  0.96480  0.21476  1.0000
  C   C502      1.0  0.87414  0.57674  0.00790  1.0000
  C   C503      1.0  0.95824  0.75667  0.24001  1.0000
  C   C504      1.0  0.77812  0.90555  0.21277  1.0000
  C   C505      1.0  0.96334  0.73227  0.24718  1.0000
  H   H860      1.0  0.82308  0.92685  0.29421  1.0000
  H   H861      1.0  0.94400  0.70871  0.24770  1.0000
  C   C506      1.0  0.79124  0.59427  0.09202  1.0000
  C   C507      1.0  0.77101  0.57029  0.11002  1.0000
  C   C508      1.0  0.77133  0.57565  0.13908  1.0000
  C   C509      1.0  0.79180  0.60498  0.15065  1.0000
  C   C510      1.0  0.81179  0.62906  0.13260  1.0000
  C   C511      1.0  0.81151  0.62368  0.10355  1.0000
  H   H862      1.0  0.75525  0.54754  0.10162  1.0000
  H   H863      1.0  0.75556  0.55688  0.15273  1.0000
  H   H864      1.0  0.82759  0.65178  0.14103  1.0000
  H   H865      1.0  0.82734  0.64244  0.08991  1.0000
  C   C512      1.0  0.75878  0.74429  0.24892  1.0000
  C   C513      1.0  0.73045  0.74184  0.25793  1.0000
  C   C514      1.0  0.72329  0.76552  0.25220  1.0000
  C   C515      1.0  0.74438  0.79213  0.23722  1.0000
  C   C516      1.0  0.77263  0.79449  0.22801  1.0000
  C   C517      1.0  0.77982  0.77082  0.23379  1.0000
  H   H866      1.0  0.71393  0.72151  0.26965  1.0000
  H   H867      1.0  0.70150  0.76321  0.25950  1.0000
  H   H868      1.0  0.78917  0.81486  0.21637  1.0000
  H   H869      1.0  0.80170  0.77320  0.22667  1.0000
  H   H870      1.0  0.81118  0.96980  0.29171  1.0000
  N   N34       1.0  0.74182  0.66352  0.16662  1.0000
  C   C518      1.0  0.73637  0.63634  0.14833  1.0000
  C   C519      1.0  0.74458  0.65482  0.19610  1.0000
  C   C520      1.0  0.77233  0.69120  0.15755  1.0000
  C   C521      1.0  0.71523  0.66978  0.16316  1.0000
  C   C522      1.0  0.73702  0.64135  0.11652  1.0000
  C   C523      1.0  0.71642  0.62480  0.20755  1.0000
  C   C524      1.0  0.78281  0.72183  0.17353  1.0000
  C   C525      1.0  0.70893  0.68689  0.18740  1.0000
  H   H871      1.0  0.75390  0.62923  0.15252  1.0000
  H   H872      1.0  0.71344  0.61549  0.15321  1.0000
  H   H873      1.0  0.74896  0.67345  0.21112  1.0000
  H   H874      1.0  0.76525  0.65180  0.19781  1.0000
  H   H875      1.0  0.79139  0.68551  0.15874  1.0000
  H   H876      1.0  0.77165  0.69725  0.13538  1.0000
  H   H877      1.0  0.71855  0.68329  0.14368  1.0000
  H   H878      1.0  0.69308  0.64738  0.16056  1.0000
  H   H879      1.0  0.76117  0.65622  0.10852  1.0000
  H   H880      1.0  0.72806  0.61852  0.10589  1.0000
  H   H881      1.0  0.72224  0.65117  0.11039  1.0000
  H   H882      1.0  0.69402  0.62364  0.20331  1.0000
  H   H883      1.0  0.71627  0.60385  0.19898  1.0000
  H   H884      1.0  0.71840  0.62398  0.23057  1.0000
  H   H885      1.0  0.76769  0.73180  0.16911  1.0000
  H   H886      1.0  0.80660  0.73926  0.16624  1.0000
  H   H887      1.0  0.78429  0.71943  0.19630  1.0000
  H   H888      1.0  0.70087  0.70229  0.17861  1.0000
  H   H889      1.0  0.72908  0.70193  0.20044  1.0000
  H   H890      1.0  0.68954  0.67009  0.20104  1.0000
  H   H891      1.0  0.80411  0.97361  0.21774  1.0000
  N   N35       1.0  0.85354  0.54802  0.05498  1.0000
  H   H892      1.0  0.89333  0.54226  0.04670  1.0000
  C   C526      1.0  0.64324  0.51553  0.98641  1.0000
  H   H893      1.0  0.53732  0.65272  0.08162  1.0000
  H   H894      1.0  0.79541  0.87256  0.25235  1.0000
  H   H895      1.0  0.94187  0.68729  0.29559  1.0000
  H   H896      1.0  0.82177  0.87991  0.27961  1.0000
  C   C527      1.0  0.52352  0.77004  0.22629  1.0000
  C   C528      1.0  0.81503  0.89158  0.26371  1.0000
  H   H897      1.0  0.56743  0.82849  0.23844  1.0000
  H   H898      1.0  0.60233  0.72500  0.11911  1.0000
  H   H899      1.0  0.53828  0.85472  0.25028  1.0000
  H   H900      1.0  0.54490  0.73678  0.28820  1.0000
  H   H901      1.0  0.90301  0.66531  0.28433  1.0000
  C   C529      1.0  0.55272  0.69949  0.04825  1.0000
  H   H902      1.0  0.85928  0.55772  0.99336  1.0000
  C   C530      1.0  0.82619  0.98193  0.22894  1.0000
  H   H903      1.0  0.75720  0.92597  0.23818  1.0000
  H   H904      1.0  0.56392  0.72424  0.04113  1.0000
  N   N36       1.0  0.53684  0.69577  0.07625  1.0000
  C   C531      1.0  0.73182  0.97701  0.25178  1.0000
  H   H905      1.0  0.79264  0.89446  0.21344  1.0000
  C   C532      1.0  0.52561  0.82887  0.24948  1.0000
  H   H906      1.0  0.51570  0.82236  0.22832  1.0000
  H   H907      1.0  0.50692  0.82061  0.26561  1.0000
  H   H908      1.0  0.52990  0.80359  0.31060  1.0000
  H   H909      1.0  0.88114  0.53714  0.08228  1.0000
  H   H910      1.0  0.51999  0.66227  0.10992  1.0000
  H   H911      1.0  0.82954  0.52653  0.09393  1.0000
  S   S160      1.0  0.72319  0.53940  0.00316  1.0000
  S   S161      1.0  0.74843  0.49659  0.03288  1.0000
  H   H912      1.0  0.74317  0.91589  0.29130  1.0000
  N   N37       1.0  0.79825  0.93341  0.26061  1.0000
  H   H913      1.0  0.83377  0.57027  0.03076  1.0000
  H   H914      1.0  0.57658  0.74300  0.26607  1.0000
  H   H915      1.0  0.81088  0.54215  0.07363  1.0000
  C   C533      1.0  0.88430  0.55154  0.06344  1.0000
  C   C534      1.0  0.80484  0.91265  0.27875  1.0000
  H   H916      1.0  0.75597  0.88842  0.20294  1.0000
  H   H917      1.0  0.53861  0.72707  0.25162  1.0000
  C   C535      1.0  0.82742  0.95538  0.24452  1.0000
  H   H918      1.0  0.56099  0.82844  0.27464  1.0000
  H   H919      1.0  0.58073  0.68620  0.10600  1.0000
  C   C536      1.0  0.91170  0.70654  0.30739  1.0000
  Fe  Fe82      1.0  0.76881  0.49608  0.99077  1.0000
  C   C537      1.0  0.55475  0.74411  0.26684  1.0000
  C   C538      1.0  0.98412  0.78698  0.23815  1.0000
  C   C539      1.0  0.75070  0.98366  0.22785  1.0000
  C   C540      1.0  0.92346  0.77195  0.30793  1.0000
  H   H920      1.0  0.88618  0.69646  0.31019  1.0000
  H   H921      1.0  0.51231  0.72626  0.11535  1.0000
  C   C541      1.0  0.52206  0.66266  0.08670  1.0000
  H   H922      1.0  0.52605  0.73172  0.06614  1.0000
  S   S162      1.0  0.52669  0.74104  0.99321  1.0000
  H   H923      1.0  0.90392  0.60220  0.07476  1.0000
  C   C542      1.0  0.51101  0.76744  0.27771  1.0000
  H   H924      1.0  0.96873  0.75213  0.30409  1.0000
  S   S163      1.0  0.52631  0.80686  0.99689  1.0000
  H   H925      1.0  0.77540  0.51638  0.31255  1.0000
  H   H926      1.0  0.90763  0.75870  0.29080  1.0000
  H   H927      1.0  0.57186  0.74161  0.08989  1.0000
  C   C543      1.0  0.77091  0.91417  0.24194  1.0000
  H   H928      1.0  0.91775  0.71975  0.28751  1.0000
  H   H929      1.0  0.86882  0.59683  0.04600  1.0000
  H   H930      1.0  0.83545  0.90446  0.24967  1.0000
  C   C544      1.0  0.83564  0.51783  0.03914  1.0000
  H   H931      1.0  0.87931  0.59887  0.99760  1.0000
  H   H932      1.0  0.57171  0.69393  0.04960  1.0000
  C   C545      1.0  0.83414  0.54640  0.08021  1.0000
  C   C546      1.0  0.53234  0.67890  0.02435  1.0000
  H   H933      1.0  0.78921  0.92594  0.19860  1.0000
  C   C547      1.0  0.56275  0.77790  0.26067  1.0000
  H   H934      1.0  0.52980  0.75242  0.21935  1.0000
  H   H935      1.0  0.85294  0.59659  0.08891  1.0000
  C   C548      1.0  0.54885  0.81757  0.25488  1.0000
  N   N38       1.0  0.53562  0.78277  0.25515  1.0000
  C   C549      1.0  0.91749  0.67916  0.30206  1.0000
  C   C550      1.0  0.85703  0.57371  0.03591  1.0000
  H   H936      1.0  0.57925  0.78623  0.24253  1.0000
  H   H937      1.0  0.86884  0.57773  0.11039  1.0000
  H   H938      1.0  0.92785  0.59388  0.05152  1.0000
  H   H939      1.0  0.78329  0.96735  0.26754  1.0000
  H   H940      1.0  0.83390  0.94292  0.22889  1.0000
  C   C551      1.0  0.58864  0.71087  0.10107  1.0000
  H   H941      1.0  0.83062  0.57095  0.11644  1.0000
  H   H942      1.0  0.92456  0.58427  0.08736  1.0000
  C   C552      1.0  0.56139  0.71693  0.09657  1.0000
  H   H943      1.0  0.84944  0.51697  0.02093  1.0000
  H   H944      1.0  0.53498  0.78844  0.21000  1.0000
  H   H945      1.0  0.78382  0.89634  0.29117  1.0000
  C   C553      1.0  0.84796  0.57485  0.09968  1.0000
  H   H946      1.0  0.81426  0.51593  0.03008  1.0000
  H   H947      1.0  0.65345  0.53634  0.00014  1.0000
  H   H948      1.0  0.60499  0.71875  0.08292  1.0000
  C   C554      1.0  0.49690  0.70696  0.10134  1.0000
  H   H949      1.0  0.84762  0.96655  0.25879  1.0000
  H   H950      1.0  0.55107  0.71560  0.11766  1.0000
  H   H951      1.0  0.50113  0.74178  0.27725  1.0000
  C   C555      1.0  0.79040  0.95297  0.27976  1.0000
  H   H952      1.0  0.57668  0.79235  0.27849  1.0000
  H   H953      1.0  0.49605  0.69439  0.05839  1.0000
  H   H954      1.0  0.61787  0.50283  0.99090  1.0000
  H   H955      1.0  0.49097  0.77098  0.27422  1.0000
  H   H956      1.0  0.89644  0.57714  0.01058  1.0000
  H   H957      1.0  0.51205  0.68183  0.02046  1.0000
  H   H958      1.0  0.94785  0.78339  0.30016  1.0000
  C   C556      1.0  0.48818  0.75495  0.22203  1.0000
  H   H959      1.0  0.98065  0.80606  0.23234  1.0000
  H   H960      1.0  0.65372  0.50141  0.99266  1.0000
  H   H961      1.0  0.75663  0.95113  0.31039  1.0000
  H   H962      1.0  0.91827  0.79069  0.31348  1.0000
  H   H963      1.0  0.54002  0.77351  0.31435  1.0000
  H   H964      1.0  0.48742  0.61649  0.07224  1.0000
  H   H965      1.0  0.48706  0.68454  0.11263  1.0000
  C   C557      1.0  0.48906  0.63939  0.07611  1.0000
  S   S164      1.0  0.79049  0.54798  0.98436  1.0000
  C   C558      1.0  0.91864  0.70886  0.35811  1.0000
  H   H966      1.0  0.86725  0.60487  0.60194  1.0000
  Fe  Fe83      1.0  0.74085  0.53131  0.46175  1.0000
  S   S165      1.0  0.73698  0.55452  0.42172  1.0000
  S   S166      1.0  0.72184  0.53600  0.50354  1.0000
  Fe  Fe84      1.0  0.51543  0.77719  0.46420  1.0000
  S   S167      1.0  0.53292  0.79858  0.42043  1.0000
  S   S168      1.0  0.51869  0.81024  0.49844  1.0000
  C   C559      1.0  0.59548  0.79607  0.34852  1.0000
  C   C560      1.0  0.58631  0.77482  0.37093  1.0000
  C   C561      1.0  0.56805  0.77582  0.39348  1.0000
  C   C562      1.0  0.55801  0.79765  0.39364  1.0000
  C   C563      1.0  0.56715  0.81888  0.37123  1.0000
  C   C564      1.0  0.58606  0.81840  0.34902  1.0000
  H   H967      1.0  0.59359  0.75757  0.37091  1.0000
  H   H968      1.0  0.56163  0.75969  0.41068  1.0000
  H   H969      1.0  0.55966  0.83597  0.37113  1.0000
  C   C565      1.0  0.51509  0.65801  0.47632  1.0000
  C   C566      1.0  0.80524  0.61685  0.35181  1.0000
  C   C567      1.0  0.81660  0.61017  0.37604  1.0000
  C   C568      1.0  0.79628  0.59172  0.39786  1.0000
  C   C569      1.0  0.76417  0.57950  0.39570  1.0000
  C   C570      1.0  0.75285  0.58637  0.37157  1.0000
  C   C571      1.0  0.77317  0.60489  0.34981  1.0000
  H   H970      1.0  0.84133  0.61927  0.37792  1.0000
  H   H971      1.0  0.80545  0.58682  0.41625  1.0000
  H   H972      1.0  0.72810  0.57718  0.36962  1.0000
  C   C572      1.0  0.67818  0.56661  0.62803  1.0000
  Fe  Fe85      1.0  0.76344  0.53664  0.52242  1.0000
  S   S169      1.0  0.78379  0.53473  0.48001  1.0000
  S   S170      1.0  0.79181  0.57597  0.55378  1.0000
  H   H973      1.0  0.49634  0.70238  0.39255  1.0000
  H   H974      1.0  0.96718  0.70241  0.33596  1.0000
  Fe  Fe86      1.0  0.53130  0.78254  0.52734  1.0000
  S   S171      1.0  0.53107  0.75140  0.49240  1.0000
  S   S172      1.0  0.57109  0.81124  0.55779  1.0000
  C   C573      1.0  0.49145  0.68800  0.43693  1.0000
  C   C574      1.0  0.50970  0.65616  0.40998  1.0000
  C   C575      1.0  0.56198  0.77883  0.60797  1.0000
  C   C576      1.0  0.57950  0.80655  0.59300  1.0000
  C   C577      1.0  0.60428  0.83192  0.60654  1.0000
  C   C578      1.0  0.61120  0.82985  0.63469  1.0000
  H   H975      1.0  0.82420  0.52743  0.40090  1.0000
  H   H976      1.0  0.54290  0.75906  0.59798  1.0000
  H   H977      1.0  0.61802  0.85351  0.59524  1.0000
  H   H978      1.0  0.55835  0.67980  0.39671  1.0000
  C   C579      1.0  0.78624  0.58193  0.58975  1.0000
  C   C580      1.0  0.77416  0.55766  0.60929  1.0000
  C   C581      1.0  0.77192  0.56377  0.63783  1.0000
  C   C582      1.0  0.98125  0.72794  0.33393  1.0000
  C   C583      1.0  0.79388  0.61847  0.62785  1.0000
  C   C584      1.0  0.79621  0.61237  0.59931  1.0000
  H   H979      1.0  0.76723  0.53427  0.60250  1.0000
  H   H980      1.0  0.80136  0.64195  0.63470  1.0000
  H   H981      1.0  0.80663  0.50987  0.43342  1.0000
  H   H982      1.0  0.80582  0.63141  0.58448  1.0000
  H   H983      1.0  0.62098  0.53385  0.59198  1.0000
  S   S173      1.0  0.83207  0.63934  0.32455  1.0000
  C   C585      1.0  0.77250  0.50155  0.40176  1.0000
  H   H984      1.0  0.73757  0.51947  0.37435  1.0000
  H   H985      1.0  0.66923  0.75170  0.62409  1.0000
  H   H986      1.0  0.69142  0.78754  0.60633  1.0000
  H   H987      1.0  0.54361  0.70559  0.40188  1.0000
  C   C586      1.0  0.64548  0.50648  0.58897  1.0000
  C   C587      1.0  0.68404  0.55716  0.56712  1.0000
  H   H988      1.0  0.51537  0.70390  0.44424  1.0000
  C   C588      1.0  0.80447  0.50642  0.41047  1.0000
  H   H989      1.0  0.97432  0.76707  0.33842  1.0000
  H   H990      1.0  0.92939  0.76769  0.35121  1.0000
  S   S174      1.0  0.61702  0.79237  0.31988  1.0000
  C   C589      1.0  0.69622  0.49135  0.59598  1.0000
  H   H991      1.0  0.72340  0.53553  0.57611  1.0000
  C   C590      1.0  0.62042  0.51441  0.58013  1.0000
  H   H992      1.0  0.77139  0.92590  0.31866  1.0000
  C   C591      1.0  0.73577  0.49745  0.36663  1.0000
  N   N39       1.0  0.92851  0.72768  0.33147  1.0000
  C   C592      1.0  0.79248  0.52578  0.35609  1.0000
  C   C593      1.0  0.87802  0.65409  0.63798  1.0000
  H   H993      1.0  0.73013  0.49676  0.34429  1.0000
  C   C594      1.0  0.69837  0.51797  0.57774  1.0000
  H   H994      1.0  0.59709  0.49370  0.58384  1.0000
  H   H995      1.0  0.73279  0.57701  0.55231  1.0000
  H   H996      1.0  0.63886  0.49576  0.61013  1.0000
  H   H997      1.0  0.50176  0.65484  0.38814  1.0000
  H   H998      1.0  0.81275  0.52225  0.35263  1.0000
  C   C595      1.0  0.73666  0.78066  0.64135  1.0000
  H   H999      1.0  0.68019  0.84302  0.64850  1.0000
  H   H1000     1.0  0.69214  0.59077  0.61996  1.0000
  H   H1001     1.0  0.66995  0.56809  0.57308  1.0000
  H   H1002     1.0  0.76997  0.54558  0.33066  1.0000
  H   H1003     1.0  0.70726  0.49999  0.61651  1.0000
  H   H1004     1.0  0.51033  0.64516  0.49638  1.0000
  H   H1005     1.0  0.69154  0.50871  0.55627  1.0000
  H   H1006     1.0  0.85871  0.63941  0.62371  1.0000
  C   C596      1.0  0.69047  0.54571  0.61642  1.0000
  C   C597      1.0  0.87544  0.59407  0.61736  1.0000
  H   H1007     1.0  0.65312  0.55706  0.62491  1.0000
  H   H1008     1.0  0.67588  0.54662  0.54612  1.0000
  H   H1009     1.0  0.89274  0.69606  0.36033  1.0000
  C   C598      1.0  0.71766  0.58439  0.56315  1.0000
  H   H1010     1.0  0.89815  0.66899  0.62401  1.0000
  H   H1011     1.0  0.95729  0.74381  0.38357  1.0000
  H   H1012     1.0  0.53861  0.90072  0.62893  1.0000
  H   H1013     1.0  0.86267  0.68819  0.63725  1.0000
  C   C599      1.0  0.53683  0.86478  0.56222  1.0000
  H   H1014     1.0  0.69501  0.84166  0.61391  1.0000
  H   H1015     1.0  0.50167  0.76567  0.32246  1.0000
  H   H1016     1.0  0.77070  0.52158  0.41026  1.0000
  H   H1017     1.0  0.76396  0.60977  0.33142  1.0000
  H   H1018     1.0  0.80129  0.54692  0.36934  1.0000
  H   H1019     1.0  0.92773  0.71111  0.40257  1.0000
  H   H1020     1.0  0.48833  0.84709  0.55995  1.0000
  H   H1021     1.0  0.63722  0.76714  0.59697  1.0000
  N   N40       1.0  0.67932  0.53225  0.58780  1.0000
  C   C600      1.0  0.67545  0.77662  0.62458  1.0000
  H   H1022     1.0  0.49913  0.81836  0.55514  1.0000
  C   C601      1.0  0.96327  0.74491  0.32637  1.0000
  H   H1023     1.0  0.71735  0.60224  0.54949  1.0000
  C   C602      1.0  0.54293  0.68455  0.41043  1.0000
  H   H1024     1.0  0.92474  0.69025  0.35799  1.0000
  H   H1025     1.0  0.89222  0.73940  0.33877  1.0000
  H   H1026     1.0  0.64744  0.80000  0.61859  1.0000
  C   C603      1.0  0.70070  0.84611  0.63636  1.0000
  H   H1027     1.0  0.52576  0.79662  0.64450  1.0000
  H   H1028     1.0  0.54002  0.86826  0.53926  1.0000
  C   C604      1.0  0.51313  0.81290  0.60743  1.0000
  H   H1029     1.0  0.55326  0.68990  0.43137  1.0000
  H   H1030     1.0  0.51982  0.68166  0.48200  1.0000
  C   C605      1.0  0.91765  0.75121  0.33380  1.0000
  C   C606      1.0  0.89814  0.61798  0.63852  1.0000
  H   H1031     1.0  0.49628  0.72969  0.41722  1.0000
  H   H1032     1.0  0.55460  0.85910  0.56908  1.0000
  H   H1033     1.0  0.85508  0.57421  0.62761  1.0000
  H   H1034     1.0  0.49322  0.87048  0.60618  1.0000
  H   H1035     1.0  0.68436  0.52695  0.63206  1.0000
  C   C607      1.0  0.56905  0.77669  0.63606  1.0000
  C   C608      1.0  0.64496  0.77661  0.61825  1.0000
  H   H1036     1.0  0.59290  0.83498  0.33209  1.0000
  H   H1037     1.0  0.75717  0.80443  0.64258  1.0000
  H   H1038     1.0  0.63001  0.84974  0.64481  1.0000
  H   H1039     1.0  0.91842  0.63526  0.62592  1.0000
  C   C609      1.0  0.53371  0.87628  0.62806  1.0000
  H   H1040     1.0  0.51193  0.63504  0.41250  1.0000
  H   H1041     1.0  0.71630  0.56003  0.61615  1.0000
  H   H1042     1.0  0.72847  0.59609  0.58297  1.0000
  H   H1043     1.0  0.54117  0.88723  0.57123  1.0000
  H   H1044     1.0  0.53591  0.65856  0.46700  1.0000
  C   C610      1.0  0.50339  0.83858  0.56844  1.0000
  H   H1045     1.0  0.53853  0.82879  0.60585  1.0000
  N   N41       1.0  0.76611  0.49799  0.37083  1.0000
  C   C611      1.0  0.50610  0.79933  0.63733  1.0000
  C   C612      1.0  0.93191  0.72754  0.38518  1.0000
  H   H1046     1.0  0.72919  0.77485  0.61942  1.0000
  H   H1047     1.0  0.88777  0.58417  0.60529  1.0000
  H   H1048     1.0  0.71866  0.87109  0.63811  1.0000
  H   H1049     1.0  0.50888  0.79352  0.59291  1.0000
  H   H1050     1.0  0.62217  0.51949  0.55742  1.0000
  H   H1051     1.0  0.91983  0.74053  0.39112  1.0000
  N   N42       1.0  0.49513  0.82842  0.59849  1.0000
  C   C613      1.0  0.78549  0.53558  0.32783  1.0000
  H   H1052     1.0  0.62576  0.76145  0.63280  1.0000
  C   C614      1.0  0.50037  0.85529  0.61706  1.0000
  C   C615      1.0  0.71425  0.82621  0.64713  1.0000
  H   H1053     1.0  0.73271  0.83000  0.63163  1.0000
  C   C616      1.0  0.78203  0.59423  0.64740  1.0000
  H   H1054     1.0  0.55262  0.87657  0.61537  1.0000
  H   H1055     1.0  0.91027  0.66283  0.31992  1.0000
  H   H1056     1.0  0.55518  0.75516  0.64741  1.0000
  N   N43       1.0  0.48627  0.65588  0.43075  1.0000
  C   C617      1.0  0.48650  0.64035  0.45769  1.0000
  H   H1057     1.0  0.53545  0.87005  0.64993  1.0000
  C   C618      1.0  0.48580  0.70451  0.41242  1.0000
  C   C619      1.0  0.59350  0.80221  0.64974  1.0000
  H   H1058     1.0  0.74466  0.76450  0.64831  1.0000
  H   H1059     1.0  0.80753  0.55445  0.31858  1.0000
  Fe  Fe87      1.0  0.86257  0.70145  0.73299  1.0000
  S   S175      1.0  0.84250  0.65019  0.73998  1.0000
  S   S176      1.0  0.91371  0.72606  0.71736  1.0000
  Fe  Fe88      1.0  0.79838  0.69642  0.74345  1.0000
  S   S177      1.0  0.77548  0.64443  0.75147  1.0000
  S   S178      1.0  0.76236  0.71325  0.74641  1.0000
  Fe  Fe89      1.0  0.81717  0.65546  0.77725  1.0000
  S   S179      1.0  0.82341  0.63423  0.81764  1.0000
  Fe  Fe90      1.0  0.80242  0.64297  0.71358  1.0000
  S   S180      1.0  0.78077  0.60054  0.68403  1.0000
  S   S181      1.0  0.83917  0.70756  0.77154  1.0000
  S   S182      1.0  0.82340  0.69407  0.70425  1.0000
  Fe  Fe91      1.0  0.63817  0.82856  0.71724  1.0000
  S   S183      1.0  0.68782  0.86448  0.70700  1.0000
  S   S184      1.0  0.60049  0.79817  0.68554  1.0000
  Fe  Fe92      1.0  0.65002  0.83341  0.78125  1.0000
  S   S185      1.0  0.70060  0.86956  0.77431  1.0000
  S   S186      1.0  0.63625  0.81435  0.82632  1.0000
  Fe  Fe93      1.0  0.68416  0.89203  0.74325  1.0000
  S   S187      1.0  0.69665  0.94374  0.74387  1.0000
  Fe  Fe94      1.0  0.70055  0.83924  0.73886  1.0000
  S   S188      1.0  0.74127  0.83018  0.73025  1.0000
  S   S189      1.0  0.63320  0.85709  0.75191  1.0000
  S   S190      1.0  0.65131  0.80210  0.74737  1.0000
  C   C620      1.0  0.89814  0.70268  0.83214  1.0000
  H   H1060     1.0  0.71045  0.82220  0.87251  1.0000
  Fe  Fe95      1.0  0.74621  0.53678  0.96286  1.0000
  S   S191      1.0  0.73837  0.55892  0.92387  1.0000
  H   H1061     1.0  0.51521  0.85780  0.85638  1.0000
  Fe  Fe96      1.0  0.51619  0.77025  0.96408  1.0000
  S   S192      1.0  0.52858  0.78580  0.91801  1.0000
  H   H1062     1.0  0.80542  0.77979  0.73401  1.0000
  C   C621      1.0  0.60615  0.80704  0.85151  1.0000
  C   C622      1.0  0.58105  0.81146  0.84573  1.0000
  C   C623      1.0  0.55773  0.80487  0.86630  1.0000
  C   C624      1.0  0.55909  0.79391  0.89305  1.0000
  C   C625      1.0  0.58426  0.78962  0.89888  1.0000
  C   C626      1.0  0.60749  0.79606  0.87826  1.0000
  H   H1063     1.0  0.57953  0.81982  0.82535  1.0000
  H   H1064     1.0  0.53844  0.80824  0.86139  1.0000
  H   H1065     1.0  0.58579  0.78124  0.91924  1.0000
  H   H1066     1.0  0.62669  0.79253  0.88313  1.0000
  H   H1067     1.0  0.87444  0.59631  0.70613  1.0000
  H   H1068     1.0  0.64854  0.56087  0.91024  1.0000
  H   H1069     1.0  0.76117  0.96757  0.72321  1.0000
  C   C627      1.0  0.95136  0.74673  0.73263  1.0000
  H   H1070     1.0  0.50441  0.84967  0.98339  1.0000
  C   C628      1.0  0.95576  0.75639  0.76051  1.0000
  H   H1071     1.0  0.93713  0.65101  0.86547  1.0000
  H   H1072     1.0  0.93588  0.75204  0.77339  1.0000
  C   C629      1.0  0.79909  0.61321  0.84687  1.0000
  C   C630      1.0  0.81147  0.60312  0.86803  1.0000
  C   C631      1.0  0.79338  0.58651  0.89161  1.0000
  C   C632      1.0  0.76251  0.57975  0.89450  1.0000
  C   C633      1.0  0.75012  0.58986  0.87337  1.0000
  C   C634      1.0  0.76821  0.60641  0.84973  1.0000
  H   H1073     1.0  0.83525  0.60813  0.86618  1.0000
  H   H1074     1.0  0.80332  0.57896  0.90758  1.0000
  H   H1075     1.0  0.72635  0.58491  0.87528  1.0000
  H   H1076     1.0  0.75826  0.61397  0.83378  1.0000
  C   C635      1.0  0.75717  0.74605  0.74072  1.0000
  C   C636      1.0  0.72689  0.74185  0.74233  1.0000
  C   C637      1.0  0.72152  0.76712  0.73892  1.0000
  C   C638      1.0  0.74647  0.79719  0.73421  1.0000
  C   C639      1.0  0.77666  0.80133  0.73213  1.0000
  C   C640      1.0  0.78201  0.77603  0.73538  1.0000
  H   H1077     1.0  0.70742  0.71880  0.74630  1.0000
  H   H1078     1.0  0.69813  0.76337  0.74011  1.0000
  H   H1079     1.0  0.79617  0.82438  0.72822  1.0000
  H   H1080     1.0  0.67586  0.54329  0.95397  1.0000
  H   H1081     1.0  0.88038  0.63925  0.83056  1.0000
  H   H1082     1.0  0.89862  0.66268  0.69380  1.0000
  H   H1083     1.0  0.88555  0.66141  0.78797  1.0000
  H   H1084     1.0  0.90115  0.62121  0.77623  1.0000
  H   H1085     1.0  0.97069  0.70731  0.77363  1.0000
  N   N44       1.0  0.64090  0.50138  0.93388  1.0000
  H   H1086     1.0  0.72059  0.78654  0.68166  1.0000
  N   N45       1.0  0.92553  0.67341  0.81360  1.0000
  H   H1087     1.0  0.68169  0.56871  0.65097  1.0000
  C   C641      1.0  0.72971  0.98200  0.73944  1.0000
  H   H1088     1.0  0.91088  0.66567  0.87352  1.0000
  H   H1089     1.0  0.84721  0.62255  0.68569  1.0000
  H   H1090     1.0  0.91563  0.63882  0.69034  1.0000
  H   H1091     1.0  0.59361  0.49220  0.93890  1.0000
  C   C642      1.0  0.49245  0.84679  0.86770  1.0000
  H   H1092     1.0  0.89930  0.64232  0.74697  1.0000
  H   H1093     1.0  0.68236  0.80190  0.69327  1.0000
  H   H1094     1.0  0.65981  0.74716  0.69944  1.0000
  C   C643      1.0  0.71010  0.77707  0.66100  1.0000
  H   H1095     1.0  0.89698  0.62497  0.87280  1.0000
  H   H1096     1.0  0.49226  0.87217  0.96458  1.0000
  H   H1097     1.0  0.63817  0.73772  0.66746  1.0000
  H   H1098     1.0  0.61108  0.52702  0.90250  1.0000
  H   H1099     1.0  0.90734  0.60598  0.65158  1.0000
  H   H1100     1.0  0.95224  0.67339  0.65284  1.0000
  H   H1101     1.0  0.94171  0.70812  0.84648  1.0000
  H   H1102     1.0  0.64247  0.49988  0.88857  1.0000
  C   C644      1.0  0.91224  0.64453  0.76632  1.0000
  C   C645      1.0  0.91065  0.66885  0.78545  1.0000
  H   H1103     1.0  0.93577  0.69874  0.65647  1.0000
  C   C646      1.0  0.63651  0.53855  0.89867  1.0000
  H   H1104     1.0  0.51035  0.83057  0.90032  1.0000
  H   H1105     1.0  0.88581  0.70090  0.81253  1.0000
  C   C647      1.0  0.64758  0.75458  0.68486  1.0000
  H   H1106     1.0  0.65453  0.79809  0.66896  1.0000
  C   C648      1.0  0.64995  0.51729  0.90570  1.0000
  H   H1107     1.0  0.90519  0.62427  0.82294  1.0000
  C   C649      1.0  0.90509  0.64519  0.83133  1.0000
  H   H1108     1.0  0.88228  0.68385  0.84661  1.0000
  C   C650      1.0  0.91348  0.64737  0.86244  1.0000
  C   C651      1.0  0.85767  0.58590  0.68894  1.0000
  H   H1109     1.0  0.76292  0.54481  0.65272  1.0000
  C   C652      1.0  0.49804  0.84411  0.89888  1.0000
  H   H1110     1.0  0.51527  0.86800  0.90581  1.0000
  H   H1111     1.0  0.84689  0.66211  0.66603  1.0000
  N   N46       1.0  0.69169  0.79194  0.65138  1.0000
  H   H1112     1.0  0.49061  0.81172  0.94504  1.0000
  H   H1113     1.0  0.93645  0.65176  0.75980  1.0000
  C   C653      1.0  0.92883  0.70265  0.82655  1.0000
  H   H1114     1.0  0.83448  0.57062  0.69878  1.0000
  N   N47       1.0  0.71349  0.78074  0.82288  1.0000
  C   C654      1.0  0.74179  0.77853  0.81423  1.0000
  C   C655      1.0  0.71633  0.80927  0.80890  1.0000
  C   C656      1.0  0.68523  0.75203  0.81218  1.0000
  C   C657      1.0  0.71249  0.78232  0.85437  1.0000
  C   C658      1.0  0.74123  0.74807  0.82196  1.0000
  C   C659      1.0  0.74678  0.83990  0.81452  1.0000
  C   C660      1.0  0.65376  0.75089  0.81511  1.0000
  C   C661      1.0  0.69439  0.79738  0.86738  1.0000
  H   H1115     1.0  0.74585  0.78161  0.79131  1.0000
  H   H1116     1.0  0.76327  0.79771  0.82355  1.0000
  H   H1117     1.0  0.69701  0.81342  0.81471  1.0000
  H   H1118     1.0  0.71445  0.80599  0.78586  1.0000
  H   H1119     1.0  0.68845  0.74868  0.78964  1.0000
  H   H1120     1.0  0.68196  0.73077  0.82295  1.0000
  H   H1121     1.0  0.70285  0.75867  0.86365  1.0000
  H   H1122     1.0  0.73654  0.79619  0.86247  1.0000
  H   H1123     1.0  0.72490  0.72842  0.80865  1.0000
  H   H1124     1.0  0.76462  0.75095  0.81776  1.0000
  H   H1125     1.0  0.73548  0.74203  0.84432  1.0000
  H   H1126     1.0  0.75261  0.84313  0.83695  1.0000
  H   H1127     1.0  0.76641  0.84105  0.80208  1.0000
  H   H1128     1.0  0.74428  0.85991  0.80776  1.0000
  H   H1129     1.0  0.65361  0.77053  0.80443  1.0000
  H   H1130     1.0  0.64618  0.74919  0.83721  1.0000
  H   H1131     1.0  0.63572  0.72944  0.80480  1.0000
  H   H1132     1.0  0.68388  0.78583  0.88764  1.0000
  H   H1133     1.0  0.67517  0.79559  0.85486  1.0000
  N   N48       1.0  0.88520  0.63406  0.65649  1.0000
  H   H1134     1.0  0.95621  0.65456  0.80467  1.0000
  C   C662      1.0  0.95735  0.67672  0.81118  1.0000
  H   H1135     1.0  0.52471  0.86803  0.95182  1.0000
  H   H1136     1.0  0.96839  0.68139  0.83199  1.0000
  H   H1137     1.0  0.90341  0.72507  0.84205  1.0000
  C   C663      1.0  0.65039  0.52639  0.95579  1.0000
  H   H1138     1.0  0.92053  0.69108  0.77360  1.0000
  H   H1139     1.0  0.86341  0.57070  0.67614  1.0000
  H   H1140     1.0  0.94333  0.72307  0.81290  1.0000
  H   H1141     1.0  0.67574  0.53173  0.90344  1.0000
  C   C664      1.0  0.66937  0.78827  0.67471  1.0000
  H   H1142     1.0  0.97491  0.74714  0.69427  1.0000
  H   H1143     1.0  0.69475  0.75158  0.66417  1.0000
  H   H1144     1.0  0.50305  0.81437  0.65271  1.0000
  C   C665      1.0  0.75833  0.98722  0.72867  1.0000
  H   H1145     1.0  0.88688  0.69328  0.66605  1.0000
  C   C666      1.0  0.93940  0.68097  0.66696  1.0000
  H   H1146     1.0  0.64077  0.54472  0.87614  1.0000
  H   H1147     1.0  0.95472  0.69267  0.68495  1.0000
  H   H1148     1.0  0.68474  0.50249  0.93746  1.0000
  H   H1149     1.0  0.62758  0.75355  0.69660  1.0000
  H   H1150     1.0  0.83681  0.59819  0.65605  1.0000
  C   C667      1.0  0.97776  0.75360  0.71605  1.0000
  H   H1151     1.0  0.72653  0.83690  0.66698  1.0000
  H   H1152     1.0  0.63853  0.54010  0.95276  1.0000
  C   C668      1.0  0.50136  0.85596  0.96195  1.0000
  C   C669      1.0  0.90875  0.65336  0.67815  1.0000
  C   C670      1.0  0.85569  0.61071  0.67124  1.0000
  C   C671      1.0  0.98117  0.70332  0.79219  1.0000
  C   C672      1.0  0.86817  0.67546  0.65307  1.0000
