data_image0
_chemical_formula_structural       S2FeSFeS3FeSFeSC6H7C2H4C2H2SFeSFeS3CHCHC2H4C6H4NC6FeH9C2H4CH3CHCH3CH4NCH2SHCH2CH2CHCH3CH5CHCH6NCHCH3C5HCH4FeH3NHCHC3H3SCHC2HCH4CH3CHC2SH4SH3C2H3C2HCHCH3SHCHSH3CHC2H7CHSCHCH2CH4C6HCH2CHCH2SC4HFeHNC3HSCH3CH4C2H6SNH5FeH3CH2CSH4CFeCFe2NH3CFeSH2S3C2H5CSCSCHCS2CH3FeH2NHC2H2C3H5NHC2FeCH2C3H2CH2CFeH4S2C6H3FeH6C2HC2H2NC2H4CH2CH2CHFeH8NCSH5CHCH2CH3C2H4SCHC4FeH2CHC2H3FeS2FeS3C6H4C4HCNC8H23CSCSHCH2SH3SH4CH2CHCH2CHCH2SHCFeS2FeS2FeSFeS3CHCH2CHCH2C3H7C6H6C4HNHCH2CFeSH2NC5SH13C4H5CH2C4SH2CH2SC2H8C2H4CH3SCHFeHSFeHSHC2S2C2HFeS2FeS2FeSFeS3C3H2C3H2C2H3CH4C6H5CHCH6C2H6CH5CH10FeCNC6SH4C2H3CH2C2HNCH4NH4NH4C2Fe3HSH2FeS2FeS2FeSFeS3C2H3C3H2CHCFeH3C6H7NC7H3CH12CHCH3C2H2CHC2H2CHCH2NHSCHC3SHCH9CHNCHSH2CH3CH7C2H2CHCHSHFeSH2FeSCSFeS2FeS2FeSFeS3C2HCH3CH2C2H2C3H5C7H5CH5SCH4CH3CHC3H3CFeCH3NC5HCSH13CH3CHCNC2H3FeH4CH3C3SH6FeCSC6H2CH3CH2CH3NHC3HC3H5CH12SH2SHSHCH2CHCH2SHSHCH2FeHSHCHCSC2HS2H2CHC6HFeH3C2HC2H5NH2CFeCHC2HSNH5SCHNHCH8CH3CHC2HC2H2CH2CSHC3HCH3C2H2FeCSFeS2FeS2FeSFeS4NSFeSFeSC2SC2H3C2H3C6H4CHCH2C6H9CH2CHCH4CH4N2HC2HCH4CH3CH3C2H9CH4CHCH3CH4C4H2CH2CFeHC5H3CH3CHCH3NCHCH3CNHFeHCH5CH2CH2C2H2FeS2FeS2FeS2FeSFeS4FeSFeSFeSC4H2CH4C6H6SH2C6H4NCHCHCNH2CH8SH6CHCH9C2HCH2CHCHC2H2NH2FeH3CH2C2HCHCSHCH2CHCH2C2H3C2HC3HNHCH2SHC3HCH7
_chemical_formula_sum              "S144 Fe72 C504 H864 N36"
_cell_length_a       50.6148
_cell_length_b       49.9766
_cell_length_c       34.7004
_cell_angle_alpha    91.438
_cell_angle_beta     87.2987
_cell_angle_gamma    119.627

_space_group_name_H-M_alt    "P 1"
_space_group_IT_number       1

loop_
  _space_group_symop_operation_xyz
  'x, y, z'

loop_
  _atom_site_type_symbol
  _atom_site_label
  _atom_site_symmetry_multiplicity
  _atom_site_fract_x
  _atom_site_fract_y
  _atom_site_fract_z
  _atom_site_occupancy
  S   S1        1.0  0.13595  0.29423  0.23187  1.0000
  S   S2        1.0  0.11277  0.25652  0.31341  1.0000
  Fe  Fe1       1.0  0.15048  0.26789  0.26907  1.0000
  S   S3        1.0  0.15533  0.22708  0.24820  1.0000
  Fe  Fe2       1.0  0.10125  0.28644  0.27948  1.0000
  S   S4        1.0  0.05517  0.27823  0.26209  1.0000
  S   S5        1.0  0.27706  0.15235  0.24603  1.0000
  S   S6        1.0  0.25347  0.13949  0.33806  1.0000
  Fe  Fe3       1.0  0.25589  0.11196  0.28700  1.0000
  S   S7        1.0  0.21560  0.06592  0.27050  1.0000
  Fe  Fe4       1.0  0.27858  0.18040  0.29863  1.0000
  S   S8        1.0  0.27166  0.22206  0.29992  1.0000
  C   C1        1.0  0.24002  0.22277  0.28143  1.0000
  C   C2        1.0  0.24094  0.25121  0.27882  1.0000
  C   C3        1.0  0.21534  0.25278  0.26781  1.0000
  C   C4        1.0  0.18852  0.22587  0.25923  1.0000
  C   C5        1.0  0.18787  0.19745  0.26050  1.0000
  C   C6        1.0  0.21349  0.19585  0.27176  1.0000
  H   H1        1.0  0.26148  0.27215  0.28585  1.0000
  H   H2        1.0  0.21634  0.27484  0.26616  1.0000
  H   H3        1.0  0.16730  0.17651  0.25362  1.0000
  H   H4        1.0  0.21253  0.17380  0.27362  1.0000
  H   H5        1.0  0.38962  0.22148  0.36952  1.0000
  H   H6        1.0  0.30332  0.11769  0.20196  1.0000
  H   H7        1.0  0.22352  0.27635  0.34087  1.0000
  C   C7        1.0  0.23836  0.02983  0.29749  1.0000
  C   C8        1.0  0.21399  0.03055  0.28114  1.0000
  H   H8        1.0  0.17831  0.19869  0.37983  1.0000
  H   H9        1.0  0.25799  0.05100  0.30589  1.0000
  H   H10       1.0  0.25266  0.25759  0.41516  1.0000
  H   H11       1.0  0.37530  0.15606  0.38695  1.0000
  C   C9        1.0  0.02078  0.24360  0.27138  1.0000
  C   C10       1.0  0.02000  0.21896  0.29067  1.0000
  H   H12       1.0  0.19493  0.22137  0.33877  1.0000
  H   H13       1.0  0.04063  0.22133  0.30186  1.0000
  S   S9        1.0  0.44180  0.25569  0.08790  1.0000
  Fe  Fe5       1.0  0.32228  0.15969  0.26433  1.0000
  S   S10       1.0  0.36105  0.16257  0.22421  1.0000
  Fe  Fe6       1.0  0.29980  0.14708  0.35084  1.0000
  S   S11       1.0  0.31046  0.13381  0.40824  1.0000
  S   S12       1.0  0.30071  0.11728  0.30166  1.0000
  S   S13       1.0  0.32532  0.19013  0.31494  1.0000
  C   C11       1.0  0.31163  0.14981  0.45481  1.0000
  H   H14       1.0  0.03572  0.22903  0.18623  1.0000
  C   C12       1.0  0.43118  0.16482  0.39025  1.0000
  H   H15       1.0  0.37661  0.20002  0.41320  1.0000
  C   C13       1.0  0.06573  0.30614  0.49189  1.0000
  C   C14       1.0  0.31663  0.17977  0.46003  1.0000
  H   H16       1.0  0.31027  0.06087  0.14711  1.0000
  H   H17       1.0  0.04196  0.16939  0.27900  1.0000
  H   H18       1.0  0.30291  0.08716  0.09334  1.0000
  H   H19       1.0  0.31879  0.19346  0.43519  1.0000
  C   C15       1.0  0.41863  0.22868  0.12455  1.0000
  C   C16       1.0  0.39876  0.23481  0.14808  1.0000
  C   C17       1.0  0.38055  0.21463  0.17815  1.0000
  C   C18       1.0  0.38224  0.18814  0.18544  1.0000
  C   C19       1.0  0.40204  0.18191  0.16191  1.0000
  C   C20       1.0  0.41997  0.20190  0.13153  1.0000
  H   H20       1.0  0.39754  0.25545  0.14307  1.0000
  H   H21       1.0  0.36556  0.21988  0.19596  1.0000
  H   H22       1.0  0.40366  0.16156  0.16724  1.0000
  H   H23       1.0  0.43516  0.19687  0.11385  1.0000
  N   N1        1.0  0.05292  0.18333  0.19543  1.0000
  C   C21       1.0  0.06312  0.20768  0.16458  1.0000
  C   C22       1.0  0.06153  0.15985  0.18083  1.0000
  C   C23       1.0  0.07051  0.19887  0.23083  1.0000
  C   C24       1.0  0.01910  0.16985  0.20329  1.0000
  C   C25       1.0  0.05897  0.23569  0.17476  1.0000
  C   C26       1.0  0.04759  0.14387  0.14251  1.0000
  Fe  Fe7       1.0  0.14638  0.29959  0.34374  1.0000
  H   H24       1.0  0.29042  0.04785  0.08238  1.0000
  H   H25       1.0  0.08765  0.21679  0.15621  1.0000
  H   H26       1.0  0.05045  0.19779  0.13782  1.0000
  H   H27       1.0  0.25677  0.00135  0.31464  1.0000
  H   H28       1.0  0.08676  0.17073  0.17679  1.0000
  H   H29       1.0  0.21829  0.19797  0.41922  1.0000
  H   H30       1.0  0.24052  0.31152  0.41838  1.0000
  H   H31       1.0  0.01448  0.18566  0.22181  1.0000
  H   H32       1.0  0.07037  0.30184  0.46139  1.0000
  C   C27       1.0  0.99366  0.24043  0.25788  1.0000
  C   C28       1.0  0.30933  0.13249  0.48744  1.0000
  H   H33       1.0  0.31692  0.15222  0.14618  1.0000
  H   H34       1.0  0.05107  0.12371  0.13804  1.0000
  H   H35       1.0  0.02280  0.13531  0.14239  1.0000
  H   H36       1.0  0.08275  0.33046  0.49814  1.0000
  C   C29       1.0  0.10617  0.32585  0.14726  1.0000
  H   H37       1.0  0.30609  0.05788  0.25551  1.0000
  H   H38       1.0  0.32490  0.11132  0.16486  1.0000
  H   H39       1.0  0.07002  0.15926  0.25923  1.0000
  C   C30       1.0  0.99247  0.19098  0.29494  1.0000
  H   H40       1.0  0.27003  0.07207  0.23482  1.0000
  C   C31       1.0  0.22054  0.03570  0.16833  1.0000
  H   H41       1.0  0.29166  0.12107  0.11656  1.0000
  H   H42       1.0  0.06289  0.24928  0.14819  1.0000
  H   H43       1.0  0.14523  0.22427  0.39129  1.0000
  C   C32       1.0  0.27821  0.06130  0.21236  1.0000
  H   H44       1.0  0.05913  0.15941  0.11754  1.0000
  H   H45       1.0  0.36028  0.11169  0.35868  1.0000
  H   H46       1.0  0.35970  0.16788  0.35179  1.0000
  H   H47       1.0  0.24567  0.07908  0.14011  1.0000
  N   N2        1.0  0.27834  0.07371  0.17306  1.0000
  C   C33       1.0  0.15614  0.22332  0.36324  1.0000
  H   H48       1.0  0.25063  0.16803  0.49378  1.0000
  H   H49       1.0  0.24150  0.08207  0.19065  1.0000
  S   S14       1.0  0.18485  0.30975  0.30024  1.0000
  H   H50       1.0  0.13957  0.20227  0.34791  1.0000
  C   C34       1.0  0.18547  0.22178  0.36813  1.0000
  H   H51       1.0  0.22346  0.19771  0.36727  1.0000
  H   H52       1.0  0.19884  0.28206  0.37355  1.0000
  C   C35       1.0  0.06515  0.17821  0.26585  1.0000
  H   H53       1.0  0.06536  0.21694  0.24171  1.0000
  H   H54       1.0  0.42213  0.18346  0.25127  1.0000
  C   C36       1.0  0.28534  0.06333  0.10093  1.0000
  H   H55       1.0  0.38937  0.19691  0.29483  1.0000
  C   C37       1.0  0.21814  0.27736  0.37209  1.0000
  H   H56       1.0  0.18107  0.25631  0.43265  1.0000
  H   H57       1.0  0.22341  0.02147  0.14532  1.0000
  H   H58       1.0  0.43685  0.22373  0.25461  1.0000
  C   C38       1.0  0.23288  0.21097  0.39416  1.0000
  H   H59       1.0  0.20420  0.21836  0.47141  1.0000
  H   H60       1.0  0.44928  0.15840  0.39081  1.0000
  H   H61       1.0  0.26252  0.05904  0.09350  1.0000
  H   H62       1.0  0.42168  0.22250  0.32100  1.0000
  H   H63       1.0  0.16037  0.24300  0.34490  1.0000
  C   C39       1.0  0.23758  0.00160  0.30253  1.0000
  H   H64       1.0  0.17208  0.19781  0.44084  1.0000
  C   C40       1.0  0.23771  0.24390  0.39139  1.0000
  H   H65       1.0  0.45468  0.20683  0.28040  1.0000
  H   H66       1.0  0.27182  0.03101  0.14764  1.0000
  H   H67       1.0  0.09542  0.21106  0.22348  1.0000
  H   H68       1.0  0.05535  0.14125  0.20194  1.0000
  H   H69       1.0  0.08116  0.19228  0.28838  1.0000
  H   H70       1.0  0.21697  0.26690  0.44888  1.0000
  N   N3        1.0  0.20959  0.24726  0.39154  1.0000
  C   C41       1.0  0.38891  0.14426  0.31219  1.0000
  H   H71       1.0  0.21705  0.02462  0.19676  1.0000
  C   C42       1.0  0.37711  0.11434  0.33532  1.0000
  H   H72       1.0  0.26666  0.30524  0.38669  1.0000
  H   H73       1.0  0.25534  0.21239  0.39693  1.0000
  H   H74       1.0  0.36497  0.09451  0.31550  1.0000
  C   C43       1.0  0.30171  0.10766  0.17258  1.0000
  C   C44       1.0  0.43333  0.17972  0.35078  1.0000
  C   C45       1.0  0.38161  0.17406  0.36492  1.0000
  C   C46       1.0  0.19832  0.24864  0.43212  1.0000
  C   C47       1.0  0.18562  0.21937  0.45692  1.0000
  H   H75       1.0  0.40950  0.14370  0.39716  1.0000
  C   C48       1.0  0.28667  0.05627  0.14345  1.0000
  H   H76       1.0  0.15001  0.26674  0.48168  1.0000
  H   H77       1.0  0.25170  0.25339  0.36416  1.0000
  H   H78       1.0  0.44865  0.20491  0.35495  1.0000
  H   H79       1.0  0.26228  0.03608  0.21425  1.0000
  Fe  Fe8       1.0  0.47226  0.25321  0.03819  1.0000
  H   H80       1.0  0.44570  0.17212  0.32985  1.0000
  H   H81       1.0  0.40472  0.14352  0.28940  1.0000
  H   H82       1.0  0.36914  0.14224  0.29690  1.0000
  N   N4        1.0  0.40390  0.17415  0.33443  1.0000
  H   H83       1.0  0.41543  0.21467  0.39688  1.0000
  C   C49       1.0  0.39185  0.20452  0.38714  1.0000
  H   H84       1.0  0.39607  0.11210  0.34652  1.0000
  C   C50       1.0  0.41079  0.19969  0.30639  1.0000
  C   C51       1.0  0.24697  0.06925  0.16779  1.0000
  C   C52       1.0  0.43239  0.20319  0.27150  1.0000
  H   H85       1.0  0.00765  0.16795  0.17588  1.0000
  H   H86       1.0  0.99399  0.25941  0.24310  1.0000
  H   H87       1.0  0.31695  0.05244  0.20769  1.0000
  S   S15       1.0  0.14896  0.28769  0.40633  1.0000
  C   C53       1.0  0.15151  0.30504  0.45235  1.0000
  H   H88       1.0  0.32701  0.09071  0.22530  1.0000
  C   C54       1.0  0.30908  0.06614  0.22532  1.0000
  C   C55       1.0  0.24536  0.30647  0.38841  1.0000
  H   H89       1.0  0.01541  0.13039  0.23796  1.0000
  C   C56       1.0  0.29625  0.12904  0.14671  1.0000
  H   H90       1.0  0.27726  0.13218  0.15886  1.0000
  H   H91       1.0  0.43617  0.18182  0.41396  1.0000
  H   H92       1.0  0.16941  0.21979  0.47935  1.0000
  H   H93       1.0  0.07591  0.25132  0.19544  1.0000
  C   C57       1.0  0.15176  0.28911  0.48507  1.0000
  H   H94       1.0  0.16939  0.00288  0.25850  1.0000
  H   H95       1.0  0.30566  0.10936  0.48366  1.0000
  H   H96       1.0  0.09322  0.30399  0.13117  1.0000
  C   C58       1.0  0.32009  0.19248  0.49744  1.0000
  H   H97       1.0  0.19908  0.03577  0.16313  1.0000
  C   C59       1.0  0.00161  0.13749  0.22190  1.0000
  C   C60       1.0  0.18840  0.00260  0.27110  1.0000
  S   S16       1.0  0.47083  0.21066  0.01317  1.0000
  H   H98       1.0  0.12019  0.32208  0.16764  1.0000
  H   H99       1.0  0.03759  0.32335  0.22521  1.0000
  H   H100      1.0  0.06955  0.31432  0.18853  1.0000
  H   H101      1.0  0.99216  0.17172  0.30894  1.0000
  S   S17       1.0  0.13183  0.32911  0.31276  1.0000
  H   H102      1.0  0.24958  0.32655  0.37072  1.0000
  H   H103      1.0  0.04256  0.30310  0.49393  1.0000
  H   H104      1.0  0.99162  0.17759  0.39582  1.0000
  C   C61       1.0  0.03202  0.24999  0.68438  1.0000
  C   C62       1.0  0.03371  0.22487  0.66856  1.0000
  H   H105      1.0  0.01129  0.29286  0.55186  1.0000
  H   H106      1.0  0.25462  0.32026  0.74845  1.0000
  H   H107      1.0  0.32491  0.21600  0.50107  1.0000
  C   C63       1.0  0.23114  0.27115  0.79721  1.0000
  C   C64       1.0  0.37036  0.10163  0.74109  1.0000
  H   H108      1.0  0.39325  0.14461  0.80201  1.0000
  C   C65       1.0  0.19969  0.22626  0.70695  1.0000
  H   H109      1.0  0.25739  0.02201  0.56245  1.0000
  C   C66       1.0  0.23983  0.29976  0.82296  1.0000
  H   H110      1.0  0.38318  0.08888  0.73784  1.0000
  H   H111      1.0  0.38972  0.27194  0.82070  1.0000
  H   H112      1.0  0.18193  0.31233  0.84601  1.0000
  S   S18       1.0  0.11913  0.31346  0.67402  1.0000
  H   H113      1.0  0.00359  0.27039  0.69619  1.0000
  C   C67       1.0  0.00805  0.20096  0.65132  1.0000
  H   H114      1.0  0.23184  0.25305  0.81436  1.0000
  S   S19       1.0  0.46809  0.27036  0.98052  1.0000
  H   H115      1.0  0.22378  0.05318  0.70202  1.0000
  H   H116      1.0  0.25689  0.04374  0.60309  1.0000
  H   H117      1.0  0.45253  0.31156  0.93475  1.0000
  C   C68       1.0  0.00476  0.25097  0.68353  1.0000
  H   H118      1.0  0.20782  0.26092  0.78650  1.0000
  C   C69       1.0  0.41145  0.26995  0.92220  1.0000
  C   C70       1.0  0.37521  0.18899  0.82748  1.0000
  H   H119      1.0  0.05157  0.26846  0.69790  1.0000
  H   H120      1.0  0.99910  0.25990  0.52015  1.0000
  H   H121      1.0  0.15832  0.29306  0.80695  1.0000
  H   H122      1.0  0.20486  0.13550  0.58414  1.0000
  H   H123      1.0  0.41933  0.25287  0.92272  1.0000
  H   H124      1.0  0.27269  0.00321  0.69576  1.0000
  H   H125      1.0  0.21164  0.21299  0.54610  1.0000
  C   C71       1.0  0.21008  0.14823  0.61174  1.0000
  H   H126      1.0  0.39739  0.13234  0.69403  1.0000
  S   S20       1.0  0.33906  0.15056  0.66646  1.0000
  C   C72       1.0  0.22577  0.25345  0.69539  1.0000
  H   H127      1.0  0.21336  0.13403  0.63306  1.0000
  C   C73       1.0  0.43417  0.28421  0.84201  1.0000
  H   H128      1.0  0.27856  0.20373  0.54569  1.0000
  H   H129      1.0  0.42203  0.25942  0.84971  1.0000
  C   C74       1.0  0.31777  0.17514  0.53008  1.0000
  H   H130      1.0  0.34776  0.13677  0.77598  1.0000
  H   H131      1.0  0.30534  0.02090  0.78657  1.0000
  H   H132      1.0  0.18993  0.14974  0.62268  1.0000
  H   H133      1.0  0.19642  0.19780  0.63274  1.0000
  C   C75       1.0  0.43717  0.30229  0.91004  1.0000
  C   C76       1.0  0.25161  0.03166  0.69822  1.0000
  C   C77       1.0  0.43771  0.21431  0.83871  1.0000
  C   C78       1.0  0.38350  0.11977  0.80867  1.0000
  C   C79       1.0  0.15432  0.30185  0.52229  1.0000
  C   C80       1.0  0.34315  0.06713  0.79548  1.0000
  H   H134      1.0  0.30237  0.08329  0.82860  1.0000
  C   C81       1.0  0.20978  0.19830  0.57087  1.0000
  H   H135      1.0  0.37470  0.11731  0.83909  1.0000
  H   H136      1.0  0.44330  0.22620  0.77825  1.0000
  C   C82       1.0  0.25414  0.25472  0.69459  1.0000
  H   H137      1.0  0.22553  0.29190  0.85012  1.0000
  C   C83       1.0  0.23026  0.20122  0.71449  1.0000
  H   H138      1.0  0.29626  0.04997  0.77570  1.0000
  H   H139      1.0  0.20227  0.29975  0.76477  1.0000
  S   S21       1.0  0.29378  0.14159  0.74273  1.0000
  C   C84       1.0  0.42711  0.21554  0.80219  1.0000
  C   C85       1.0  0.47615  0.29165  0.88168  1.0000
  C   C86       1.0  0.25637  0.22868  0.70374  1.0000
  C   C87       1.0  0.24231  0.02778  0.58046  1.0000
  H   H140      1.0  0.33271  0.11963  0.84567  1.0000
  Fe  Fe9       1.0  0.11315  0.26603  0.67621  1.0000
  H   H141      1.0  0.42126  0.11517  0.78011  1.0000
  N   N5        1.0  0.23782  0.32580  0.80492  1.0000
  C   C88       1.0  0.22398  0.03163  0.70230  1.0000
  C   C89       1.0  0.41712  0.20066  0.87002  1.0000
  C   C90       1.0  0.39582  0.20287  0.79625  1.0000
  H   H142      1.0  0.05931  0.32601  0.55745  1.0000
  S   S22       1.0  0.14934  0.27468  0.63006  1.0000
  C   C91       1.0  0.23904  0.18023  0.60922  1.0000
  H   H143      1.0  0.20328  0.23167  0.60706  1.0000
  H   H144      1.0  0.30387  0.26677  0.61669  1.0000
  H   H145      1.0  0.25890  0.17639  0.60550  1.0000
  C   C92       1.0  0.25496  0.19859  0.54154  1.0000
  H   H146      1.0  0.26103  0.25167  0.57140  1.0000
  H   H147      1.0  0.26342  0.30762  0.83173  1.0000
  H   H148      1.0  0.15467  0.28935  0.54701  1.0000
  H   H149      1.0  0.35112  0.17950  0.82362  1.0000
  C   C93       1.0  0.33596  0.11180  0.78282  1.0000
  C   C94       1.0  0.20649  0.31496  0.79043  1.0000
  H   H150      1.0  0.31921  0.10060  0.75988  1.0000
  H   H151      1.0  0.41971  0.30955  0.80543  1.0000
  H   H152      1.0  0.17775  0.22509  0.70796  1.0000
  H   H153      1.0  0.16932  0.19595  0.59976  1.0000
  H   H154      1.0  0.08305  0.24129  0.53885  1.0000
  H   H155      1.0  0.07129  0.26931  0.61365  1.0000
  S   S23       1.0  0.26803  0.13171  0.65457  1.0000
  N   N6        1.0  0.35828  0.10007  0.78205  1.0000
  H   H156      1.0  0.30316  0.11841  0.81855  1.0000
  H   H157      1.0  0.25052  0.23914  0.61983  1.0000
  H   H158      1.0  0.33667  0.06540  0.82681  1.0000
  H   H159      1.0  0.24106  0.19032  0.63854  1.0000
  H   H160      1.0  0.46307  0.26693  0.88983  1.0000
  Fe  Fe10      1.0  0.29284  0.11442  0.68947  1.0000
  H   H161      1.0  0.24289  0.14996  0.53943  1.0000
  H   H162      1.0  0.36962  0.17666  0.88780  1.0000
  H   H163      1.0  0.03182  0.30370  0.61999  1.0000
  C   C95       1.0  0.23943  0.16652  0.52262  1.0000
  H   H164      1.0  0.18171  0.17916  0.72516  1.0000
  H   H165      1.0  0.37890  0.14768  0.72453  1.0000
  C   C96       1.0  0.19400  0.20638  0.60475  1.0000
  S   S24       1.0  0.31794  0.20129  0.68539  1.0000
  H   H166      1.0  0.40289  0.30315  0.85358  1.0000
  H   H167      1.0  0.31029  0.13137  0.54972  1.0000
  H   H168      1.0  0.41230  0.14741  0.74009  1.0000
  H   H169      1.0  0.09074  0.23649  0.58687  1.0000
  C   C97       1.0  0.38581  0.18765  0.86396  1.0000
  Fe  Fe11      1.0  0.33893  0.17855  0.71845  1.0000
  C   C98       1.0  0.31779  0.10783  0.82132  1.0000
  Fe  Fe12      1.0  0.31414  0.16988  0.63553  1.0000
  Fe  Fe13      1.0  0.18189  0.29085  0.67840  1.0000
  N   N7        1.0  0.24053  0.20221  0.57889  1.0000
  H   H170      1.0  0.27828  0.22981  0.70234  1.0000
  H   H171      1.0  0.29483  0.22761  0.62035  1.0000
  H   H172      1.0  0.42770  0.13006  0.82806  1.0000
  C   C99       1.0  0.06960  0.28397  0.51813  1.0000
  Fe  Fe14      1.0  0.27291  0.16231  0.70570  1.0000
  S   S25       1.0  0.32285  0.19256  0.57640  1.0000
  H   H173      1.0  0.35129  0.08996  0.72106  1.0000
  H   H174      1.0  0.01186  0.15589  0.71154  1.0000
  S   S26       1.0  0.28682  0.06610  0.69141  1.0000
  S   S27       1.0  0.22430  0.28634  0.68108  1.0000
  S   S28       1.0  0.38399  0.20581  0.74968  1.0000
  C   C100      1.0  0.31198  0.14491  0.52493  1.0000
  C   C101      1.0  0.25143  0.00344  0.69881  1.0000
  H   H175      1.0  0.27446  0.27578  0.68602  1.0000
  H   H176      1.0  0.40279  0.08991  0.82114  1.0000
  H   H177      1.0  0.19371  0.17444  0.56176  1.0000
  H   H178      1.0  0.46176  0.22346  0.84250  1.0000
  H   H179      1.0  0.02127  0.23720  0.55443  1.0000
  C   C102      1.0  0.39090  0.13426  0.72458  1.0000
  S   S29       1.0  0.42906  0.19676  0.91610  1.0000
  C   C103      1.0  0.20199  0.20028  0.71666  1.0000
  S   S30       1.0  0.23193  0.16751  0.72417  1.0000
  C   C104      1.0  0.26025  0.23488  0.59262  1.0000
  H   H180      1.0  0.35926  0.05805  0.79251  1.0000
  C   C105      1.0  0.41008  0.11295  0.80899  1.0000
  S   S31       1.0  0.06735  0.22249  0.67025  1.0000
  S   S32       1.0  0.14513  0.27755  0.72478  1.0000
  C   C106      1.0  0.29340  0.24430  0.60131  1.0000
  H   H181      1.0  0.25684  0.21554  0.51978  1.0000
  H   H182      1.0  0.30759  0.24764  0.57457  1.0000
  H   H183      1.0  0.32031  0.04203  0.74282  1.0000
  Fe  Fe15      1.0  0.46844  0.22882  0.95485  1.0000
  H   H184      1.0  0.17726  0.27565  0.82884  1.0000
  H   H185      1.0  0.39191  0.26139  0.90308  1.0000
  N   N8        1.0  0.45496  0.30370  0.87320  1.0000
  H   H186      1.0  0.40284  0.27115  0.95189  1.0000
  C   C107      1.0  0.07553  0.24101  0.56943  1.0000
  C   C108      1.0  0.07809  0.27197  0.58255  1.0000
  H   H187      1.0  0.10273  0.28941  0.58118  1.0000
  H   H188      1.0  0.02086  0.25477  0.59830  1.0000
  C   C109      1.0  0.99338  0.14214  0.73324  1.0000
  C   C110      1.0  0.31474  0.04411  0.77365  1.0000
  C   C111      1.0  0.02684  0.25996  0.56706  1.0000
  H   H189      1.0  0.44743  0.28519  0.81510  1.0000
  H   H190      1.0  0.23437  0.04021  0.56230  1.0000
  H   H191      1.0  0.00929  0.18157  0.63869  1.0000
  H   H192      1.0  0.24763  0.27633  0.77252  1.0000
  H   H193      1.0  0.05226  0.22142  0.57479  1.0000
  N   N9        1.0  0.06014  0.28280  0.56037  1.0000
  H   H194      1.0  0.21499  0.15758  0.51797  1.0000
  C   C112      1.0  0.06834  0.31452  0.57528  1.0000
  C   C113      1.0  0.21504  0.99957  0.60004  1.0000
  Fe  Fe16      1.0  0.15667  0.32268  0.62976  1.0000
  C   C114      1.0  0.41050  0.29304  0.82987  1.0000
  H   H195      1.0  0.42690  0.31743  0.90868  1.0000
  H   H196      1.0  0.17516  0.00377  0.70996  1.0000
  C   C115      1.0  0.19644  0.00359  0.70677  1.0000
  C   C116      1.0  0.17985  0.29805  0.82017  1.0000
  C   C117      1.0  0.00397  0.26806  0.55040  1.0000
  H   H197      1.0  0.06611  0.30701  0.63834  1.0000
  H   H198      1.0  0.09417  0.29104  0.51473  1.0000
  C   C118      1.0  0.05702  0.31600  0.61696  1.0000
  H   H199      1.0  0.00484  0.13848  0.75744  1.0000
  H   H200      1.0  0.48757  0.28049  0.82320  1.0000
  C   C119      1.0  0.15647  0.33071  0.52736  1.0000
  Fe  Fe17      1.0  0.15412  0.32630  0.71938  1.0000
  H   H201      1.0  0.05735  0.26068  0.50479  1.0000
  H   H202      1.0  0.09350  0.32994  0.57346  1.0000
  H   H203      1.0  0.19724  0.00628  0.60521  1.0000
  H   H204      1.0  0.48977  0.30349  0.90719  1.0000
  S   S33       1.0  0.19838  0.42107  0.06234  1.0000
  S   S34       1.0  0.19605  0.38346  0.23841  1.0000
  C   C120      1.0  0.19920  0.41160  0.11135  1.0000
  C   C121      1.0  0.18806  0.38056  0.12110  1.0000
  C   C122      1.0  0.18703  0.37159  0.15967  1.0000
  C   C123      1.0  0.19703  0.39359  0.18921  1.0000
  C   C124      1.0  0.20815  0.42466  0.17952  1.0000
  C   C125      1.0  0.20905  0.43360  0.14092  1.0000
  H   H205      1.0  0.18024  0.36328  0.09857  1.0000
  H   H206      1.0  0.21571  0.44186  0.20213  1.0000
  H   H207      1.0  0.21671  0.45739  0.13413  1.0000
  Fe  Fe18      1.0  0.22573  0.46348  0.02321  1.0000
  H   H208      1.0  0.17873  0.34767  0.16648  1.0000
  H   H209      1.0  0.05774  0.36858  0.18067  1.0000
  H   H210      1.0  0.12704  0.41279  0.17968  1.0000
  H   H211      1.0  0.14635  0.41093  0.23546  1.0000
  H   H212      1.0  0.11094  0.39472  0.26437  1.0000
  H   H213      1.0  0.13967  0.38536  0.27389  1.0000
  C   C126      1.0  0.12837  0.39004  0.25039  1.0000
  C   C127      1.0  0.11463  0.36194  0.22309  1.0000
  H   H214      1.0  0.12453  0.41391  0.11042  1.0000
  C   C128      1.0  0.11908  0.39039  0.16449  1.0000
  C   C129      1.0  0.10651  0.39341  0.12615  1.0000
  H   H215      1.0  0.08659  0.39685  0.13080  1.0000
  H   H216      1.0  0.14006  0.38909  0.15742  1.0000
  N   N10       1.0  0.09733  0.36401  0.19019  1.0000
  C   C130      1.0  0.07208  0.36986  0.20475  1.0000
  C   C131      1.0  0.22404  0.61445  0.03101  1.0000
  H   H217      1.0  0.22254  0.57042  0.03223  1.0000
  H   H218      1.0  0.10048  0.37339  0.10683  1.0000
  H   H219      1.0  0.06137  0.34825  0.26271  1.0000
  H   H220      1.0  0.13395  0.35895  0.21205  1.0000
  C   C132      1.0  0.04992  0.34740  0.23588  1.0000
  H   H221      1.0  0.08136  0.39366  0.21640  1.0000
  H   H222      1.0  0.10027  0.34107  0.24085  1.0000
  C   C133      1.0  0.22169  0.58738  0.01434  1.0000
  H   H223      1.0  0.15324  0.34633  0.43248  1.0000
  H   H224      1.0  0.03240  0.35399  0.24396  1.0000
  C   C134      1.0  0.22249  0.63652  0.00831  1.0000
  H   H225      1.0  0.22691  0.61822  0.06172  1.0000
  Fe  Fe19      1.0  0.16741  0.33565  0.26615  1.0000
  H   H226      1.0  0.15745  0.36885  0.49831  1.0000
  H   H227      1.0  0.30356  0.61171  0.00969  1.0000
  H   H228      1.0  0.26639  0.42750  0.05310  1.0000
  H   H229      1.0  0.30141  0.47550  0.21527  1.0000
  H   H230      1.0  0.27073  0.43985  0.16399  1.0000
  H   H231      1.0  0.34900  0.51111  0.14568  1.0000
  H   H232      1.0  0.30573  0.51123  0.17512  1.0000
  H   H233      1.0  0.42516  0.65425  0.02523  1.0000
  N   N11       1.0  0.30283  0.47910  0.12981  1.0000
  C   C135      1.0  0.29576  0.45355  0.15783  1.0000
  S   S35       1.0  0.24410  0.51415  0.03494  1.0000
  H   H234      1.0  0.37658  0.49685  0.09776  1.0000
  H   H235      1.0  0.34276  0.46947  0.07541  1.0000
  H   H236      1.0  0.30575  0.44236  0.21341  1.0000
  H   H237      1.0  0.29759  0.48135  0.06824  1.0000
  H   H238      1.0  0.26833  0.48658  0.15927  1.0000
  C   C136      1.0  0.35204  0.48030  0.10345  1.0000
  H   H239      1.0  0.34093  0.51590  0.09810  1.0000
  C   C137      1.0  0.29260  0.50007  0.14905  1.0000
  H   H240      1.0  0.28468  0.53844  0.13975  1.0000
  H   H241      1.0  0.26302  0.46566  0.09558  1.0000
  C   C138      1.0  0.38287  0.61082  0.02738  1.0000
  H   H242      1.0  0.35071  0.46296  0.12389  1.0000
  H   H243      1.0  0.25971  0.41585  0.10210  1.0000
  H   H244      1.0  0.28483  0.51892  0.09614  1.0000
  C   C139      1.0  0.27700  0.43292  0.08160  1.0000
  C   C140      1.0  0.33644  0.49805  0.12001  1.0000
  H   H245      1.0  0.33596  0.47751  0.19409  1.0000
  H   H246      1.0  0.38009  0.61112  0.05844  1.0000
  H   H247      1.0  0.29690  0.42938  0.07899  1.0000
  H   H248      1.0  0.32005  0.54448  0.11887  1.0000
  S   S36       1.0  0.33058  0.55432  0.03125  1.0000
  C   C141      1.0  0.29585  0.52679  0.12412  1.0000
  H   H249      1.0  0.30234  0.43689  0.14542  1.0000
  C   C142      1.0  0.28527  0.46615  0.09339  1.0000
  C   C143      1.0  0.31087  0.46339  0.19715  1.0000
  C   C144      1.0  0.40841  0.63537  0.00862  1.0000
  C   C145      1.0  0.36123  0.58573  0.00627  1.0000
  Fe  Fe20      1.0  0.28665  0.52079  0.00255  1.0000
  H   H250      1.0  0.31971  0.65851  0.03855  1.0000
  H   H251      1.0  0.12118  0.34339  0.12571  1.0000
  C   C146      1.0  0.15586  0.34653  0.49471  1.0000
  H   H252      1.0  0.28531  0.65559  0.02361  1.0000
  C   C147      1.0  0.15341  0.33380  0.45735  1.0000
  C   C148      1.0  0.08349  0.33386  0.16855  1.0000
  H   H253      1.0  0.21899  0.66028  0.18540  1.0000
  H   H254      1.0  0.21293  0.66326  0.13516  1.0000
  H   H255      1.0  0.06737  0.33293  0.14710  1.0000
  Fe  Fe21      1.0  0.22866  0.51686  0.97613  1.0000
  S   S37       1.0  0.27207  0.52607  0.94469  1.0000
  S   S38       1.0  0.20967  0.54614  0.95374  1.0000
  Fe  Fe22      1.0  0.25018  0.47445  0.93846  1.0000
  S   S39       1.0  0.25528  0.45392  0.88046  1.0000
  S   S40       1.0  0.20587  0.46538  0.96679  1.0000
  S   S41       1.0  0.15275  0.35131  0.77530  1.0000
  C   C149      1.0  0.22636  0.42553  0.85156  1.0000
  C   C150      1.0  0.19595  0.40893  0.86475  1.0000
  C   C151      1.0  0.17384  0.38644  0.84096  1.0000
  C   C152      1.0  0.18173  0.38018  0.80370  1.0000
  C   C153      1.0  0.21205  0.39717  0.79022  1.0000
  C   C154      1.0  0.23421  0.41961  0.81408  1.0000
  H   H256      1.0  0.18950  0.41317  0.89346  1.0000
  H   H257      1.0  0.15044  0.37359  0.85163  1.0000
  H   H258      1.0  0.21838  0.39315  0.76137  1.0000
  H   H259      1.0  0.25759  0.43256  0.80338  1.0000
  C   C155      1.0  0.36514  0.58563  0.96611  1.0000
  C   C156      1.0  0.21665  0.58159  0.97496  1.0000
  C   C157      1.0  0.21530  0.60375  0.95219  1.0000
  C   C158      1.0  0.21868  0.63131  0.96864  1.0000
  H   H260      1.0  0.21126  0.59943  0.92174  1.0000
  C   C159      1.0  0.39103  0.60978  0.94748  1.0000
  N   N12       1.0  0.18656  0.49428  0.84297  1.0000
  C   C160      1.0  0.15907  0.46618  0.86003  1.0000
  C   C161      1.0  0.18778  0.48846  0.80020  1.0000
  C   C162      1.0  0.18153  0.52145  0.84946  1.0000
  C   C163      1.0  0.21446  0.49899  0.86291  1.0000
  C   C164      1.0  0.14980  0.46904  0.90231  1.0000
  C   C165      1.0  0.19086  0.46002  0.78895  1.0000
  C   C166      1.0  0.20698  0.55287  0.83466  1.0000
  C   C167      1.0  0.24561  0.51773  0.84098  1.0000
  H   H261      1.0  0.13867  0.45940  0.84273  1.0000
  H   H262      1.0  0.16273  0.44594  0.85913  1.0000
  H   H263      1.0  0.20657  0.50830  0.78475  1.0000
  H   H264      1.0  0.16688  0.48548  0.78682  1.0000
  H   H265      1.0  0.15999  0.51693  0.83641  1.0000
  H   H266      1.0  0.17880  0.52527  0.88076  1.0000
  H   H267      1.0  0.21607  0.51015  0.89148  1.0000
  H   H268      1.0  0.21247  0.47636  0.86942  1.0000
  H   H269      1.0  0.13711  0.48192  0.90426  1.0000
  H   H270      1.0  0.13438  0.44572  0.91429  1.0000
  H   H271      1.0  0.16959  0.48044  0.92090  1.0000
  H   H272      1.0  0.16964  0.43818  0.79585  1.0000
  H   H273      1.0  0.19523  0.46000  0.75728  1.0000
  H   H274      1.0  0.21009  0.46014  0.80295  1.0000
  H   H275      1.0  0.22781  0.56101  0.85131  1.0000
  H   H276      1.0  0.19943  0.57016  0.83975  1.0000
  H   H277      1.0  0.21214  0.55297  0.80329  1.0000
  H   H278      1.0  0.26279  0.53299  0.86176  1.0000
  H   H279      1.0  0.24642  0.53280  0.81777  1.0000
  H   H280      1.0  0.25394  0.50221  0.82933  1.0000
  H   H281      1.0  0.34879  0.56643  0.94949  1.0000
  H   H282      1.0  0.21729  0.64803  0.95086  1.0000
  H   H283      1.0  0.29363  0.38216  0.82457  1.0000
  C   C168      1.0  0.26298  0.36640  0.75080  1.0000
  S   S42       1.0  0.19228  0.34016  0.67490  1.0000
  C   C169      1.0  0.27742  0.36840  0.84825  1.0000
  S   S43       1.0  0.26922  0.46998  0.99390  1.0000
  H   H284      1.0  0.34183  0.63187  0.98849  1.0000
  C   C170      1.0  0.41295  0.63464  0.96859  1.0000
  H   H285      1.0  0.24194  0.36041  0.73565  1.0000
  H   H286      1.0  0.28359  0.34381  0.77989  1.0000
  S   S44       1.0  0.44643  0.66297  0.94399  1.0000
  H   H287      1.0  0.28162  0.37440  0.72827  1.0000
  H   H288      1.0  0.45670  0.34578  0.85554  1.0000
  H   H289      1.0  0.39439  0.60895  0.91654  1.0000
  S   S45       1.0  0.15885  0.34717  0.57396  1.0000
  H   H290      1.0  0.27883  0.38508  0.87101  1.0000
  H   H291      1.0  0.31651  0.64404  0.93181  1.0000
  H   H292      1.0  0.06505  0.34046  0.62475  1.0000
  H   H293      1.0  0.26841  0.38602  0.77060  1.0000
  C   C171      1.0  0.31734  0.62098  0.98249  1.0000
  H   H294      1.0  0.28486  0.35324  0.86105  1.0000
  H   H295      1.0  0.31180  0.60085  0.96337  1.0000
  C   C172      1.0  0.30935  0.64320  0.96257  1.0000
  H   H296      1.0  0.28403  0.63175  0.96248  1.0000
  C   C173      1.0  0.47240  0.33653  0.85940  1.0000
  H   H297      1.0  0.23807  0.36730  0.82541  1.0000
  H   H298      1.0  0.48325  0.33800  0.83027  1.0000
  C   C174      1.0  0.24434  0.35028  0.83517  1.0000
  H   H299      1.0  0.22995  0.34014  0.86181  1.0000
  C   C175      1.0  0.26048  0.33812  0.77124  1.0000
  H   H300      1.0  0.48804  0.35970  0.91570  1.0000
  H   H301      1.0  0.20444  0.33470  0.78001  1.0000
  S   S46       1.0  0.24961  0.81176  0.07039  1.0000
  H   H302      1.0  0.18497  0.69482  0.06709  1.0000
  C   C176      1.0  0.31787  0.70017  0.04476  1.0000
  Fe  Fe23      1.0  0.15220  0.82724  0.25661  1.0000
  S   S47       1.0  0.14359  0.86635  0.24421  1.0000
  S   S48       1.0  0.15455  0.79548  0.20871  1.0000
  Fe  Fe24      1.0  0.14313  0.83314  0.34585  1.0000
  S   S49       1.0  0.13425  0.87235  0.33825  1.0000
  S   S50       1.0  0.13439  0.81047  0.40534  1.0000
  Fe  Fe25      1.0  0.10518  0.84472  0.28917  1.0000
  S   S51       1.0  0.05862  0.84120  0.28572  1.0000
  Fe  Fe26      1.0  0.17326  0.89022  0.29447  1.0000
  S   S52       1.0  0.21330  0.93907  0.29752  1.0000
  S   S53       1.0  0.11183  0.80444  0.29892  1.0000
  S   S54       1.0  0.18417  0.85217  0.30469  1.0000
  C   C177      1.0  0.21218  0.97367  0.29216  1.0000
  H   H303      1.0  0.16773  0.94956  0.48890  1.0000
  C   C178      1.0  0.18740  0.97424  0.27675  1.0000
  H   H304      1.0  0.46725  0.77322  0.12810  1.0000
  H   H305      1.0  0.16774  0.95290  0.26858  1.0000
  C   C179      1.0  0.02409  0.80579  0.28286  1.0000
  H   H306      1.0  0.03767  0.85079  0.46367  1.0000
  C   C180      1.0  0.02374  0.77783  0.27706  1.0000
  H   H307      1.0  0.18075  0.83034  0.06864  1.0000
  H   H308      1.0  0.04496  0.77754  0.27396  1.0000
  C   C181      1.0  0.14795  0.82890  0.45044  1.0000
  C   C182      1.0  0.17342  0.85827  0.45296  1.0000
  C   C183      1.0  0.13326  0.81305  0.48480  1.0000
  H   H309      1.0  0.17284  0.72030  0.23335  1.0000
  H   H310      1.0  0.99591  0.72877  0.26940  1.0000
  H   H311      1.0  0.06148  0.80419  0.34852  1.0000
  H   H312      1.0  0.18508  0.87068  0.42681  1.0000
  H   H313      1.0  0.07132  0.85252  0.36555  1.0000
  H   H314      1.0  0.99631  0.82728  0.29085  1.0000
  H   H315      1.0  0.11361  0.79027  0.48324  1.0000
  C   C184      1.0  0.22181  0.80809  0.10658  1.0000
  C   C185      1.0  0.23014  0.83075  0.13556  1.0000
  C   C186      1.0  0.20959  0.82790  0.16631  1.0000
  C   C187      1.0  0.18036  0.80224  0.16850  1.0000
  C   C188      1.0  0.17174  0.78006  0.13883  1.0000
  C   C189      1.0  0.19224  0.78294  0.10803  1.0000
  H   H316      1.0  0.25288  0.85040  0.13472  1.0000
  H   H317      1.0  0.21661  0.84518  0.18883  1.0000
  H   H318      1.0  0.14911  0.76022  0.14008  1.0000
  H   H319      1.0  0.18526  0.76549  0.08579  1.0000
  H   H320      1.0  0.99304  0.82691  0.41520  1.0000
  H   H321      1.0  0.39024  0.78187  0.05336  1.0000
  C   C190      1.0  0.05120  0.84766  0.38465  1.0000
  C   C191      1.0  0.39006  0.78063  0.02221  1.0000
  C   C192      1.0  0.19575  0.72698  0.22027  1.0000
  C   C193      1.0  0.05366  0.87901  0.39555  1.0000
  H   H322      1.0  0.48186  0.75020  0.10735  1.0000
  N   N13       1.0  0.04817  0.82676  0.41731  1.0000
  H   H323      1.0  0.34731  0.78045  0.01945  1.0000
  C   C194      1.0  0.07899  0.83460  0.43122  1.0000
  H   H324      1.0  0.19931  0.87054  0.06128  1.0000
  H   H325      1.0  0.20489  0.89339  0.49079  1.0000
  C   C195      1.0  0.21195  0.67197  0.16471  1.0000
  Fe  Fe27      1.0  0.24872  0.77891  0.02240  1.0000
  S   S55       1.0  0.27542  0.75389  0.02434  1.0000
  H   H326      1.0  0.17775  0.67505  0.11140  1.0000
  H   H327      1.0  0.16682  0.70422  0.10610  1.0000
  N   N14       1.0  0.22166  0.72745  0.15389  1.0000
  C   C196      1.0  0.24568  0.76046  0.16097  1.0000
  C   C197      1.0  0.19313  0.72204  0.17627  1.0000
  C   C198      1.0  0.21616  0.72326  0.11109  1.0000
  C   C199      1.0  0.23349  0.70700  0.16718  1.0000
  C   C200      1.0  0.27560  0.77266  0.13635  1.0000
  S   S56       1.0  0.48080  0.72974  0.02526  1.0000
  H   H328      1.0  0.02832  0.81302  0.47499  1.0000
  H   H329      1.0  0.03131  0.87788  0.39328  1.0000
  H   H330      1.0  0.23656  0.77627  0.15615  1.0000
  H   H331      1.0  0.25247  0.76407  0.19152  1.0000
  H   H332      1.0  0.17388  0.69853  0.17193  1.0000
  H   H333      1.0  0.18517  0.73750  0.16541  1.0000
  H   H334      1.0  0.21909  0.74476  0.09813  1.0000
  H   H335      1.0  0.23339  0.71882  0.09552  1.0000
  H   H336      1.0  0.24200  0.71285  0.19692  1.0000
  H   H337      1.0  0.07029  0.78462  0.38466  1.0000
  H   H338      1.0  0.27188  0.77181  0.10507  1.0000
  H   H339      1.0  0.28823  0.76049  0.14244  1.0000
  H   H340      1.0  0.21048  0.75158  0.22783  1.0000
  C   C201      1.0  0.31047  0.67056  0.02185  1.0000
  C   C202      1.0  0.48864  0.77280  0.12128  1.0000
  C   C203      1.0  0.02853  0.82752  0.45092  1.0000
  C   C204      1.0  0.15775  0.77532  0.00867  1.0000
  H   H341      1.0  0.25407  0.71120  0.14946  1.0000
  H   H342      1.0  0.21866  0.85029  0.04623  1.0000
  H   H343      1.0  0.09376  0.83405  0.40687  1.0000
  H   H344      1.0  0.31168  0.69427  0.07573  1.0000
  H   H345      1.0  0.06897  0.89634  0.37373  1.0000
  C   C205      1.0  0.41426  0.78006  0.00126  1.0000
  H   H346      1.0  0.29063  0.79734  0.14348  1.0000
  H   H347      1.0  0.15590  0.83014  0.01415  1.0000
  C   C206      1.0  0.18457  0.87112  0.48935  1.0000
  C   C207      1.0  0.03327  0.79398  0.40252  1.0000
  C   C208      1.0  0.36566  0.77975  0.00307  1.0000
  C   C209      1.0  0.18454  0.69775  0.09888  1.0000
  S   S57       1.0  0.22455  0.66969  0.03100  1.0000
  H   H348      1.0  0.30409  0.71042  0.03554  1.0000
  H   H349      1.0  0.47651  0.82064  0.13006  1.0000
  C   C210      1.0  0.19605  0.84871  0.04798  1.0000
  H   H350      1.0  0.03122  0.83590  0.36596  1.0000
  H   H351      1.0  0.02765  0.77749  0.42669  1.0000
  S   S58       1.0  0.44491  0.78192  0.02625  1.0000
  C   C211      1.0  0.05178  0.78672  0.37167  1.0000
  C   C212      1.0  0.99588  0.75021  0.27437  1.0000
  H   H352      1.0  0.06307  0.88841  0.42392  1.0000
  H   H353      1.0  0.07683  0.81705  0.45227  1.0000
  H   H354      1.0  0.03675  0.76423  0.35786  1.0000
  H   H355      1.0  0.01133  0.78763  0.38918  1.0000
  H   H356      1.0  0.20369  0.71252  0.23382  1.0000
  H   H357      1.0  0.48023  0.86928  0.12976  1.0000
  H   H358      1.0  0.20590  0.80498  0.01475  1.0000
  H   H359      1.0  0.15984  0.75599  0.02029  1.0000
  C   C213      1.0  0.09787  0.86647  0.44982  1.0000
  C   C214      1.0  0.18098  0.84399  0.00870  1.0000
  H   H360      1.0  0.11888  0.86800  0.46072  1.0000
  H   H361      1.0  0.10561  0.88508  0.42816  1.0000
  H   H362      1.0  0.14912  0.78406  0.03294  1.0000
  H   H363      1.0  0.34240  0.71748  0.04264  1.0000
  C   C215      1.0  0.99509  0.81650  0.44194  1.0000
  H   H364      1.0  0.48301  0.83157  0.08157  1.0000
  H   H365      1.0  0.08600  0.87047  0.47499  1.0000
  H   H366      1.0  0.36498  0.68533  0.00448  1.0000
  S   S59       1.0  0.20695  0.73754  0.00170  1.0000
  C   C216      1.0  0.99627  0.80574  0.28650  1.0000
  H   H367      1.0  0.18813  0.66477  0.17357  1.0000
  Fe  Fe28      1.0  0.28984  0.76795  0.96297  1.0000
  H   H368      1.0  0.24333  0.79519  0.57597  1.0000
  S   S60       1.0  0.33634  0.77941  0.93707  1.0000
  Fe  Fe29      1.0  0.22631  0.75489  0.94133  1.0000
  H   H369      1.0  0.25600  0.83703  0.53404  1.0000
  S   S61       1.0  0.19240  0.75629  0.90016  1.0000
  H   H370      1.0  0.28148  0.85348  0.65955  1.0000
  C   C217      1.0  0.14898  0.94817  0.61115  1.0000
  C   C218      1.0  0.25018  0.78746  0.63463  1.0000
  S   S62       1.0  0.26734  0.79732  0.96256  1.0000
  S   S63       1.0  0.25007  0.72647  0.93748  1.0000
  C   C219      1.0  0.17056  0.82096  0.94402  1.0000
  C   C220      1.0  0.23572  0.84322  0.92764  1.0000
  H   H371      1.0  0.28460  0.68081  0.96416  1.0000
  Fe  Fe30      1.0  0.17132  0.84306  0.71410  1.0000
  S   S64       1.0  0.13358  0.85148  0.73705  1.0000
  S   S65       1.0  0.20385  0.83364  0.74844  1.0000
  Fe  Fe31      1.0  0.16423  0.85839  0.62937  1.0000
  S   S66       1.0  0.12634  0.86743  0.64739  1.0000
  S   S67       1.0  0.18620  0.87173  0.56859  1.0000
  Fe  Fe32      1.0  0.15493  0.89309  0.69769  1.0000
  S   S68       1.0  0.16093  0.94060  0.71130  1.0000
  Fe  Fe33      1.0  0.10853  0.82526  0.68438  1.0000
  S   S69       1.0  0.06088  0.78434  0.67830  1.0000
  S   S70       1.0  0.19387  0.88637  0.67782  1.0000
  S   S71       1.0  0.14527  0.81454  0.66343  1.0000
  C   C221      1.0  0.19622  0.97533  0.70693  1.0000
  C   C222      1.0  0.18056  0.77516  0.61791  1.0000
  C   C223      1.0  0.22390  0.97541  0.70306  1.0000
  H   H372      1.0  0.31835  0.71586  0.97354  1.0000
  H   H373      1.0  0.22410  0.95390  0.70362  1.0000
  C   C224      1.0  0.02604  0.78400  0.68801  1.0000
  C   C225      1.0  0.22376  0.85113  0.96553  1.0000
  C   C226      1.0  0.02353  0.80449  0.71414  1.0000
  H   H374      1.0  0.18566  0.94329  0.63115  1.0000
  H   H375      1.0  0.04358  0.82204  0.72786  1.0000
  C   C227      1.0  0.26245  0.85713  0.66984  1.0000
  C   C228      1.0  0.36563  0.77901  0.96272  1.0000
  H   H376      1.0  0.26154  0.77463  0.62296  1.0000
  H   H377      1.0  0.26296  0.80055  0.66003  1.0000
  H   H378      1.0  0.43240  0.77844  0.94445  1.0000
  C   C229      1.0  0.38979  0.77837  0.94186  1.0000
  H   H379      1.0  0.22249  0.81235  0.67212  1.0000
  H   H380      1.0  0.17948  0.77685  0.64977  1.0000
  H   H381      1.0  0.22694  0.77018  0.64455  1.0000
  H   H382      1.0  0.39002  0.77790  0.91065  1.0000
  C   C230      1.0  0.20007  0.81286  0.79165  1.0000
  C   C231      1.0  0.17190  0.79377  0.81032  1.0000
  C   C232      1.0  0.17010  0.77683  0.84339  1.0000
  C   C233      1.0  0.19637  0.77885  0.85865  1.0000
  C   C234      1.0  0.22460  0.79841  0.84046  1.0000
  C   C235      1.0  0.22637  0.81510  0.80716  1.0000
  H   H383      1.0  0.15142  0.79163  0.79888  1.0000
  H   H384      1.0  0.14810  0.76178  0.85701  1.0000
  H   H385      1.0  0.24505  0.80030  0.85164  1.0000
  H   H386      1.0  0.24832  0.82973  0.79313  1.0000
  H   H387      1.0  0.14647  0.80524  0.95321  1.0000
  C   C236      1.0  0.35661  0.69238  0.97966  1.0000
  H   H388      1.0  0.13785  0.94859  0.58464  1.0000
  C   C237      1.0  0.17067  0.84839  0.92437  1.0000
  H   H389      1.0  0.26092  0.85578  0.70185  1.0000
  H   H390      1.0  0.17593  0.80782  0.92159  1.0000
  H   H391      1.0  0.14075  0.76528  0.98598  1.0000
  H   H392      1.0  0.15961  0.85850  0.94335  1.0000
  H   H393      1.0  0.26777  0.88079  0.66228  1.0000
  H   H394      1.0  0.16956  0.92153  0.58948  1.0000
  C   C238      1.0  0.16995  0.85521  0.52369  1.0000
  C   C239      1.0  0.37359  0.68858  0.94347  1.0000
  H   H395      1.0  0.00147  0.74522  0.65047  1.0000
  H   H396      1.0  0.34255  0.71499  0.91182  1.0000
  H   H397      1.0  0.27181  0.86981  0.59652  1.0000
  H   H398      1.0  0.23941  0.85285  0.98818  1.0000
  H   H399      1.0  0.15687  0.76571  0.60852  1.0000
  H   H400      1.0  0.20051  0.80085  0.56671  1.0000
  C   C240      1.0  0.14396  0.82622  0.52123  1.0000
  H   H401      1.0  0.15383  0.92580  0.53080  1.0000
  H   H402      1.0  0.22767  0.87495  0.96246  1.0000
  H   H403      1.0  0.26021  0.98672  0.61402  1.0000
  H   H404      1.0  0.23651  0.86929  0.59773  1.0000
  H   H405      1.0  0.18853  0.81983  0.60112  1.0000
  C   C241      1.0  0.41384  0.77862  0.96098  1.0000
  H   H406      1.0  0.27538  0.82584  0.59714  1.0000
  H   H407      1.0  0.15725  0.83997  0.89794  1.0000
  H   H408      1.0  0.23161  0.94816  0.62868  1.0000
  H   H409      1.0  0.26265  0.87569  0.53212  1.0000
  H   H410      1.0  0.18766  0.75818  0.60868  1.0000
  H   H411      1.0  0.13252  0.81360  0.54732  1.0000
  H   H412      1.0  0.21563  0.84199  0.65901  1.0000
  H   H413      1.0  0.19560  0.78842  0.96885  1.0000
  H   H414      1.0  0.19375  0.86667  0.91517  1.0000
  H   H415      1.0  0.22457  0.84486  0.53386  1.0000
  Fe  Fe34      1.0  0.47833  0.71173  0.96473  1.0000
  C   C242      1.0  0.19116  0.97338  0.54058  1.0000
  N   N15       1.0  0.23278  0.82536  0.61135  1.0000
  C   C243      1.0  0.24752  0.85532  0.58927  1.0000
  C   C244      1.0  0.23172  0.83304  0.65353  1.0000
  C   C245      1.0  0.20069  0.80639  0.59797  1.0000
  C   C246      1.0  0.25085  0.80903  0.60296  1.0000
  C   C247      1.0  0.24751  0.85257  0.54483  1.0000
  C   C248      1.0  0.17734  0.94467  0.60260  1.0000
  S   S72       1.0  0.47285  0.74857  0.93604  1.0000
  H   H416      1.0  0.36504  0.71743  0.98371  1.0000
  H   H417      1.0  0.18990  0.93442  0.50742  1.0000
  H   H418      1.0  0.23163  0.81939  0.92735  1.0000
  H   H419      1.0  0.13192  0.92802  0.62823  1.0000
  C   C249      1.0  0.24589  0.96265  0.60415  1.0000
  C   C250      1.0  0.31791  0.69888  0.91707  1.0000
  H   H420      1.0  0.30604  0.71072  0.90623  1.0000
  H   H421      1.0  0.21623  0.93645  0.55923  1.0000
  H   H422      1.0  0.39471  0.71084  0.93762  1.0000
  C   C251      1.0  0.99972  0.76113  0.67072  1.0000
  H   H423      1.0  0.00618  0.74050  0.78754  1.0000
  H   H424      1.0  0.99667  0.72094  0.74261  1.0000
  C   C252      1.0  0.30990  0.69267  0.96042  1.0000
  C   C253      1.0  0.22668  0.96059  0.56982  1.0000
  H   H425      1.0  0.26070  0.85871  0.92435  1.0000
  N   N16       1.0  0.20258  0.96960  0.57823  1.0000
  C   C254      1.0  0.99479  0.80152  0.72358  1.0000
  H   H426      1.0  0.24260  0.97432  0.54575  1.0000
  H   H427      1.0  0.15420  0.96863  0.62932  1.0000
  H   H428      1.0  0.22558  0.84660  0.90184  1.0000
  H   H429      1.0  0.26155  0.95391  0.59487  1.0000
  N   N17       1.0  0.19109  0.82901  0.97758  1.0000
  H   H430      1.0  0.31025  0.67758  0.89980  1.0000
  H   H431      1.0  0.36095  0.68219  0.91665  1.0000
  H   H432      1.0  0.38154  0.67196  0.94907  1.0000
  H   H433      1.0  0.22107  0.99729  0.62960  1.0000
  N   N18       1.0  0.32223  0.67487  0.98034  1.0000
  H   H434      1.0  0.18537  0.86698  0.99912  1.0000
  H   H435      1.0  0.17561  0.98303  0.54530  1.0000
  H   H436      1.0  0.99292  0.81690  0.74462  1.0000
  H   H437      1.0  0.21036  0.99066  0.52208  1.0000
  C   C255      1.0  0.18917  0.79991  0.99219  1.0000
  C   C256      1.0  0.17476  0.94388  0.51597  1.0000
  Fe  Fe35      1.0  0.47671  0.76730  0.99612  1.0000
  Fe  Fe36      1.0  0.23477  0.71341  0.99931  1.0000
  Fe  Fe37      1.0  0.74888  0.22261  0.02500  1.0000
  H   H438      1.0  0.77573  0.99974  0.43399  1.0000
  S   S73       1.0  0.74327  0.19639  0.08118  1.0000
  H   H439      1.0  0.90888  0.19756  0.35499  1.0000
  H   H440      1.0  0.88292  0.15098  0.40142  1.0000
  Fe  Fe38      1.0  0.88544  0.14934  0.28051  1.0000
  S   S74       1.0  0.87999  0.19112  0.28004  1.0000
  S   S75       1.0  0.93137  0.15202  0.28627  1.0000
  Fe  Fe39      1.0  0.81626  0.10568  0.28486  1.0000
  S   S76       1.0  0.80644  0.14512  0.28595  1.0000
  S   S77       1.0  0.77394  0.05848  0.28981  1.0000
  Fe  Fe40      1.0  0.84251  0.16506  0.23826  1.0000
  S   S78       1.0  0.84186  0.18571  0.18001  1.0000
  Fe  Fe41      1.0  0.84449  0.16711  0.32764  1.0000
  S   S79       1.0  0.84811  0.19419  0.38285  1.0000
  S   S80       1.0  0.85072  0.12446  0.23531  1.0000
  S   S81       1.0  0.85146  0.12636  0.32973  1.0000
  C   C257      1.0  0.96535  0.18775  0.28120  1.0000
  C   C258      1.0  0.96602  0.21273  0.26302  1.0000
  H   H441      1.0  0.56947  0.10444  0.13411  1.0000
  H   H442      1.0  0.94534  0.21051  0.25215  1.0000
  H   H443      1.0  0.59234  0.15723  0.11054  1.0000
  C   C259      1.0  0.84102  0.17703  0.42906  1.0000
  C   C260      1.0  0.82766  0.14516  0.43331  1.0000
  C   C261      1.0  0.84988  0.19583  0.46218  1.0000
  H   H444      1.0  0.82039  0.13040  0.40818  1.0000
  H   H445      1.0  0.86002  0.22050  0.45917  1.0000
  C   C262      1.0  0.77183  0.02277  0.27901  1.0000
  H   H446      1.0  0.72622  0.08838  0.19623  1.0000
  C   C263      1.0  0.79754  0.02050  0.26782  1.0000
  Fe  Fe42      1.0  0.52201  0.23979  0.00487  1.0000
  H   H447      1.0  0.81964  0.04104  0.26577  1.0000
  H   H448      1.0  0.81320  0.10757  0.47316  1.0000
  H   H449      1.0  0.61988  0.15011  0.13053  1.0000
  C   C264      1.0  0.77156  0.19530  0.10906  1.0000
  C   C265      1.0  0.76346  0.18242  0.14635  1.0000
  C   C266      1.0  0.78481  0.18019  0.16900  1.0000
  C   C267      1.0  0.81446  0.19020  0.15432  1.0000
  C   C268      1.0  0.82256  0.20318  0.11710  1.0000
  C   C269      1.0  0.80137  0.20588  0.09470  1.0000
  H   H450      1.0  0.74057  0.17433  0.15794  1.0000
  H   H451      1.0  0.77829  0.17062  0.19773  1.0000
  H   H452      1.0  0.84540  0.21110  0.10538  1.0000
  H   H453      1.0  0.80803  0.21579  0.06613  1.0000
  H   H454      1.0  0.68197  0.14147  0.03053  1.0000
  H   H455      1.0  0.78383  0.02224  0.36812  1.0000
  H   H456      1.0  0.91386  0.15632  0.37109  1.0000
  N   N19       1.0  0.77447  0.07773  0.16036  1.0000
  C   C270      1.0  0.80352  0.09091  0.13559  1.0000
  C   C271      1.0  0.77553  0.05561  0.18822  1.0000
  C   C272      1.0  0.77457  0.10414  0.18248  1.0000
  C   C273      1.0  0.74766  0.06255  0.13454  1.0000
  C   C274      1.0  0.80822  0.11559  0.10596  1.0000
  C   C275      1.0  0.82352  0.13227  0.47021  1.0000
  C   C276      1.0  0.60601  0.14863  0.03357  1.0000
  H   H457      1.0  0.79505  0.06808  0.20744  1.0000
  H   H458      1.0  0.82378  0.10130  0.15398  1.0000
  H   H459      1.0  0.80492  0.07250  0.11847  1.0000
  C   C277      1.0  0.74768  0.09628  0.21128  1.0000
  H   H460      1.0  0.80221  0.03624  0.16000  1.0000
  H   H461      1.0  0.79578  0.11693  0.19874  1.0000
  H   H462      1.0  0.77455  0.12109  0.16244  1.0000
  H   H463      1.0  0.74325  0.08018  0.12186  1.0000
  H   H464      1.0  0.75307  0.05136  0.10959  1.0000
  H   H465      1.0  0.81348  0.13767  0.12016  1.0000
  H   H466      1.0  0.82830  0.12063  0.08673  1.0000
  H   H467      1.0  0.78853  0.10804  0.08738  1.0000
  H   H468      1.0  0.65684  0.20087  0.04327  1.0000
  H   H469      1.0  0.88753  0.10410  0.39111  1.0000
  H   H470      1.0  0.76320  0.01797  0.14529  1.0000
  H   H471      1.0  0.81873  0.02987  0.38749  1.0000
  C   C278      1.0  0.77833  0.02866  0.16971  1.0000
  H   H472      1.0  0.68400  0.19558  0.10096  1.0000
  C   C279      1.0  0.60556  0.14503  0.10507  1.0000
  H   H473      1.0  0.56677  0.10227  0.08291  1.0000
  H   H474      1.0  0.71373  0.01400  0.14553  1.0000
  H   H475      1.0  0.77195  0.01042  0.19165  1.0000
  C   C280      1.0  0.93054  0.21382  0.36849  1.0000
  C   C281      1.0  0.61657  0.24085  0.01763  1.0000
  H   H476      1.0  0.71425  0.03900  0.18441  1.0000
  H   H477      1.0  0.92294  0.12124  0.41443  1.0000
  C   C282      1.0  0.57980  0.15613  0.03611  1.0000
  H   H478      1.0  0.63107  0.11692  0.05882  1.0000
  C   C283      1.0  0.66958  0.15466  0.03158  1.0000
  C   C284      1.0  0.66742  0.20399  0.10327  1.0000
  H   H479      1.0  0.62081  0.25318  0.04475  1.0000
  H   H480      1.0  0.91200  0.15351  0.48038  1.0000
  C   C285      1.0  0.64416  0.19124  0.07110  1.0000
  H   H481      1.0  0.80263  0.00093  0.35130  1.0000
  C   C286      1.0  0.95745  0.18339  0.42957  1.0000
  H   H482      1.0  0.96116  0.17157  0.36809  1.0000
  H   H483      1.0  0.93448  0.23727  0.36249  1.0000
  N   N20       1.0  0.92619  0.17972  0.42685  1.0000
  H   H484      1.0  0.75539  0.04527  0.20833  1.0000
  S   S82       1.0  0.72262  0.24821  0.02312  1.0000
  C   C287      1.0  0.97547  0.18614  0.39146  1.0000
  H   H485      1.0  0.74505  0.07959  0.23359  1.0000
  C   C288      1.0  0.71720  0.03725  0.15290  1.0000
  C   C289      1.0  0.92802  0.20896  0.41255  1.0000
  C   C290      1.0  0.79689  0.01108  0.37688  1.0000
  S   S83       1.0  0.52358  0.28138  0.03388  1.0000
  H   H486      1.0  0.90728  0.21008  0.42229  1.0000
  C   C291      1.0  0.90111  0.12126  0.41333  1.0000
  H   H487      1.0  0.58750  0.18030  0.04434  1.0000
  H   H488      1.0  0.88788  0.11314  0.44109  1.0000
  H   H489      1.0  0.95685  0.16457  0.44678  1.0000
  H   H490      1.0  0.59592  0.12376  0.02622  1.0000
  H   H491      1.0  0.69815  0.03842  0.13990  1.0000
  H   H492      1.0  0.94937  0.21181  0.35404  1.0000
  H   H493      1.0  0.68087  0.22946  0.10058  1.0000
  H   H494      1.0  0.56109  0.14082  0.05642  1.0000
  H   H495      1.0  0.92287  0.21988  0.48769  1.0000
  C   C292      1.0  0.64500  0.14203  0.06446  1.0000
  H   H496      1.0  0.62955  0.20194  0.07586  1.0000
  N   N21       1.0  0.62515  0.15668  0.06862  1.0000
  C   C293      1.0  0.58305  0.11006  0.10642  1.0000
  H   H497      1.0  0.59499  0.09648  0.10534  1.0000
  S   S84       1.0  0.55844  0.23103  0.02828  1.0000
  H   H498      1.0  0.75201  0.11761  0.22704  1.0000
  H   H499      1.0  0.65621  0.19909  0.13244  1.0000
  C   C294      1.0  0.91151  0.17325  0.46698  1.0000
  H   H500      1.0  0.88708  0.16617  0.46572  1.0000
  H   H501      1.0  0.62037  0.16098  0.00766  1.0000
  H   H502      1.0  0.65659  0.14394  0.09173  1.0000
  C   C295      1.0  0.90581  0.15294  0.40175  1.0000
  H   H503      1.0  0.94749  0.22961  0.42513  1.0000
  H   H504      1.0  0.97221  0.20447  0.44626  1.0000
  H   H505      1.0  0.68684  0.17897  0.03661  1.0000
  H   H506      1.0  0.98393  0.13685  0.24280  1.0000
  H   H507      1.0  0.56991  0.15264  0.00725  1.0000
  H   H508      1.0  0.98882  0.11975  0.19989  1.0000
  H   H509      1.0  0.98867  0.21044  0.38164  1.0000
  C   C296      1.0  0.58807  0.22932  0.00117  1.0000
  C   C297      1.0  0.92529  0.20000  0.49632  1.0000
  H   H510      1.0  0.66110  0.24484  0.01278  1.0000
  H   H511      1.0  0.65985  0.15237  0.00293  1.0000
  C   C298      1.0  0.84607  0.18295  0.49915  1.0000
  H   H512      1.0  0.63802  0.30563  0.00024  1.0000
  C   C299      1.0  0.63928  0.23574  0.99986  1.0000
  H   H513      1.0  0.58735  0.28828  0.97675  1.0000
  S   S85       1.0  0.74688  0.26494  0.93166  1.0000
  H   H514      1.0  0.97851  0.11978  0.71955  1.0000
  Fe  Fe43      1.0  0.77120  0.23790  0.93966  1.0000
  S   S86       1.0  0.80538  0.23448  0.89663  1.0000
  H   H515      1.0  0.92140  0.12090  0.65664  1.0000
  H   H516      1.0  0.60040  0.19382  0.92288  1.0000
  Fe  Fe44      1.0  0.76299  0.28495  0.99019  1.0000
  S   S87       1.0  0.73075  0.19787  0.96871  1.0000
  C   C300      1.0  0.97788  0.16096  0.74702  1.0000
  S   S88       1.0  0.51955  0.25380  0.94456  1.0000
  Fe  Fe45      1.0  0.83178  0.16853  0.69141  1.0000
  S   S89       1.0  0.86933  0.16346  0.71569  1.0000
  S   S90       1.0  0.79591  0.17354  0.72916  1.0000
  Fe  Fe46      1.0  0.84567  0.15200  0.60826  1.0000
  S   S91       1.0  0.88408  0.14586  0.62809  1.0000
  S   S92       1.0  0.82910  0.13328  0.54830  1.0000
  Fe  Fe47      1.0  0.85278  0.12088  0.67878  1.0000
  S   S93       1.0  0.84791  0.07699  0.70389  1.0000
  Fe  Fe48      1.0  0.89708  0.18883  0.66262  1.0000
  S   S94       1.0  0.94519  0.22922  0.66722  1.0000
  S   S95       1.0  0.81380  0.12442  0.65725  1.0000
  S   S96       1.0  0.86035  0.19686  0.63999  1.0000
  C   C301      1.0  0.49898  0.29433  0.84884  1.0000
  C   C302      1.0  0.60519  0.20740  0.94905  1.0000
  H   H517      1.0  0.65252  0.28333  0.95066  1.0000
  C   C303      1.0  0.97889  0.22682  0.66706  1.0000
  H   H518      1.0  0.96123  0.18371  0.63659  1.0000
  H   H519      1.0  0.98817  0.17174  0.77492  1.0000
  H   H520      1.0  0.93225  0.19630  0.74077  1.0000
  C   C304      1.0  0.94198  0.11136  0.80948  1.0000
  H   H521      1.0  0.93826  0.20725  0.78985  1.0000
  H   H522      1.0  0.85326  0.19762  0.52438  1.0000
  C   C305      1.0  0.79318  0.04013  0.66930  1.0000
  C   C306      1.0  0.81533  0.04141  0.69305  1.0000
  H   H523      1.0  0.93080  0.11872  0.83229  1.0000
  H   H524      1.0  0.79647  0.06075  0.65562  1.0000
  C   C307      1.0  0.98077  0.20201  0.65033  1.0000
  C   C308      1.0  0.83296  0.15104  0.50326  1.0000
  C   C309      1.0  0.60715  0.30490  0.95860  1.0000
  H   H525      1.0  0.73747  0.00953  0.75145  1.0000
  H   H526      1.0  0.90392  0.13027  0.71859  1.0000
  H   H527      1.0  0.82369  0.29665  0.82903  1.0000
  H   H528      1.0  0.79470  0.32898  0.87703  1.0000
  H   H529      1.0  0.78990  0.29743  0.81838  1.0000
  C   C310      1.0  0.58277  0.21329  0.96622  1.0000
  C   C311      1.0  0.80182  0.21679  0.85036  1.0000
  C   C312      1.0  0.82768  0.21761  0.83212  1.0000
  C   C313      1.0  0.82629  0.20438  0.79527  1.0000
  C   C314      1.0  0.79898  0.19029  0.77595  1.0000
  C   C315      1.0  0.77307  0.18936  0.79422  1.0000
  C   C316      1.0  0.77443  0.20247  0.83118  1.0000
  H   H530      1.0  0.84900  0.22861  0.84660  1.0000
  H   H531      1.0  0.84643  0.20536  0.78167  1.0000
  H   H532      1.0  0.75184  0.17864  0.77955  1.0000
  H   H533      1.0  0.75435  0.20169  0.84466  1.0000
  H   H534      1.0  0.94357  0.16466  0.80763  1.0000
  C   C317      1.0  0.83880  0.31372  0.91040  1.0000
  H   H535      1.0  0.96701  0.12547  0.81108  1.0000
  H   H536      1.0  0.90542  0.10075  0.77156  1.0000
  H   H537      1.0  0.82805  0.01470  0.72777  1.0000
  H   H538      1.0  0.91244  0.19186  0.52443  1.0000
  H   H539      1.0  0.61138  0.29134  0.93588  1.0000
  S   S97       1.0  0.79069  0.26127  0.99644  1.0000
  C   C318      1.0  0.67535  0.30285  0.94323  1.0000
  H   H540      1.0  0.60021  0.32035  0.94540  1.0000
  H   H541      1.0  0.90888  0.15016  0.78335  1.0000
  H   H542      1.0  0.72414  0.09330  0.67618  1.0000
  H   H543      1.0  0.71488  0.05425  0.67424  1.0000
  C   C319      1.0  0.71974  0.01440  0.74155  1.0000
  H   H544      1.0  0.93556  0.08721  0.81620  1.0000
  H   H545      1.0  0.88446  0.32550  0.85466  1.0000
  H   H546      1.0  0.84228  0.29854  0.88946  1.0000
  C   C320      1.0  0.63454  0.32270  0.98451  1.0000
  H   H547      1.0  0.98238  0.25675  0.56821  1.0000
  C   C321      1.0  0.93413  0.16230  0.77868  1.0000
  C   C322      1.0  0.63333  0.21811  0.96612  1.0000
  C   C323      1.0  0.92898  0.14097  0.71393  1.0000
  H   H548      1.0  0.93649  0.16385  0.70122  1.0000
  H   H549      1.0  0.68433  0.29538  0.91786  1.0000
  H   H550      1.0  0.81548  0.29929  0.92331  1.0000
  C   C324      1.0  0.71993  0.07357  0.69460  1.0000
  Fe  Fe49      1.0  0.70780  0.22668  0.96522  1.0000
  C   C325      1.0  0.76653  0.01202  0.66312  1.0000
  H   H551      1.0  0.92666  0.09819  0.69028  1.0000
  H   H552      1.0  0.69093  0.30719  0.96692  1.0000
  H   H553      1.0  0.74933  0.01143  0.64519  1.0000
  N   N22       1.0  0.74536  0.07237  0.75793  1.0000
  C   C326      1.0  0.77358  0.07152  0.76862  1.0000
  C   C327      1.0  0.71871  0.04054  0.76507  1.0000
  C   C328      1.0  0.74222  0.09511  0.78450  1.0000
  C   C329      1.0  0.74916  0.08229  0.71635  1.0000
  C   C330      1.0  0.80330  0.10278  0.76924  1.0000
  H   H554      1.0  0.79133  0.28046  0.86217  1.0000
  C   C331      1.0  0.71477  0.09978  0.77911  1.0000
  S   S98       1.0  0.65930  0.20696  0.94605  1.0000
  H   H555      1.0  0.77034  0.06096  0.79761  1.0000
  H   H556      1.0  0.77836  0.05677  0.74815  1.0000
  H   H557      1.0  0.69673  0.03913  0.75943  1.0000
  H   H558      1.0  0.71672  0.03442  0.79615  1.0000
  H   H559      1.0  0.74153  0.08868  0.81521  1.0000
  H   H560      1.0  0.76225  0.11857  0.78094  1.0000
  H   H561      1.0  0.76391  0.10768  0.71410  1.0000
  H   H562      1.0  0.76123  0.07223  0.69906  1.0000
  H   H563      1.0  0.80685  0.11638  0.74294  1.0000
  H   H564      1.0  0.80390  0.11656  0.79512  1.0000
  H   H565      1.0  0.82291  0.09871  0.77066  1.0000
  H   H566      1.0  0.93541  0.09675  0.75057  1.0000
  H   H567      1.0  0.56080  0.20396  0.95354  1.0000
  C   C332      1.0  0.94427  0.19559  0.76619  1.0000
  H   H568      1.0  0.69268  0.07824  0.78221  1.0000
  H   H569      1.0  0.71692  0.11123  0.75123  1.0000
  H   H570      1.0  0.71468  0.11578  0.80190  1.0000
  C   C333      1.0  0.93470  0.12232  0.68190  1.0000
  H   H571      1.0  0.69944  0.06803  0.71285  1.0000
  C   C334      1.0  0.81100  0.01403  0.70951  1.0000
  N   N23       1.0  0.94361  0.14396  0.75182  1.0000
  C   C335      1.0  0.80503  0.29979  0.84195  1.0000
  C   C336      1.0  0.93079  0.11235  0.76922  1.0000
  H   H572      1.0  0.72338  0.01930  0.71024  1.0000
  H   H573      1.0  0.94938  0.20749  0.50149  1.0000
  H   H574      1.0  0.51328  0.28508  0.85938  1.0000
  Fe  Fe50      1.0  0.51929  0.29431  0.97419  1.0000
  H   H575      1.0  0.95885  0.13393  0.67160  1.0000
  H   H576      1.0  0.85900  0.29810  0.95178  1.0000
  H   H577      1.0  0.65845  0.32510  0.90745  1.0000
  H   H578      1.0  0.85543  0.33004  0.96880  1.0000
  C   C337      1.0  0.86116  0.32030  0.94272  1.0000
  H   H579      1.0  0.98556  0.18053  0.72670  1.0000
  H   H580      1.0  0.96918  0.20956  0.76047  1.0000
  H   H581      1.0  0.51476  0.31852  0.84036  1.0000
  C   C338      1.0  0.68266  0.37761  0.02728  1.0000
  C   C339      1.0  0.88510  0.65365  0.11364  1.0000
  C   C340      1.0  0.89253  0.65302  0.41588  1.0000
  S   S99       1.0  0.80235  0.54646  0.07167  1.0000
  H   H582      1.0  0.57188  0.35543  0.02255  1.0000
  H   H583      1.0  0.78785  0.39296  0.03411  1.0000
  H   H584      1.0  0.87460  0.62847  0.05925  1.0000
  H   H585      1.0  0.77172  0.62131  0.12159  1.0000
  H   H586      1.0  0.73377  0.53354  0.20552  1.0000
  H   H587      1.0  0.86132  0.63687  0.12302  1.0000
  Fe  Fe51      1.0  0.77598  0.52578  0.01640  1.0000
  C   C341      1.0  0.63606  0.45095  0.13786  1.0000
  S   S100      1.0  0.74518  0.47436  0.01179  1.0000
  C   C342      1.0  0.80010  0.57243  0.10613  1.0000
  C   C343      1.0  0.81382  0.57662  0.14183  1.0000
  C   C344      1.0  0.81243  0.59677  0.17014  1.0000
  C   C345      1.0  0.79738  0.61318  0.16304  1.0000
  C   C346      1.0  0.78357  0.60889  0.12739  1.0000
  C   C347      1.0  0.78504  0.58882  0.09905  1.0000
  H   H588      1.0  0.82540  0.56395  0.14776  1.0000
  H   H589      1.0  0.82252  0.59917  0.19770  1.0000
  C   C348      1.0  0.88610  0.65621  0.19812  1.0000
  H   H590      1.0  0.77459  0.58611  0.07167  1.0000
  H   H591      1.0  0.80888  0.63137  0.47329  1.0000
  H   H592      1.0  0.63471  0.45843  0.16785  1.0000
  C   C349      1.0  0.66889  0.45990  0.12428  1.0000
  H   H593      1.0  0.89859  0.63899  0.43418  1.0000
  H   H594      1.0  0.67679  0.50180  0.18226  1.0000
  C   C350      1.0  0.87451  0.63223  0.38221  1.0000
  H   H595      1.0  0.88674  0.62146  0.36718  1.0000
  H   H596      1.0  0.70496  0.39624  0.03698  1.0000
  H   H597      1.0  0.62565  0.45998  0.11816  1.0000
  N   N24       1.0  0.69223  0.49377  0.12621  1.0000
  H   H598      1.0  0.66759  0.45099  0.09426  1.0000
  C   C351      1.0  0.72050  0.49786  0.10453  1.0000
  C   C352      1.0  0.67964  0.51142  0.10640  1.0000
  C   C353      1.0  0.69740  0.50265  0.16822  1.0000
  H   H599      1.0  0.67546  0.44597  0.14190  1.0000
  C   C354      1.0  0.73580  0.48090  0.12144  1.0000
  C   C355      1.0  0.70236  0.54467  0.09366  1.0000
  C   C356      1.0  0.72410  0.53475  0.17795  1.0000
  H   H600      1.0  0.85252  0.61320  0.39383  1.0000
  H   H601      1.0  0.62710  0.33397  0.00727  1.0000
  H   H602      1.0  0.73828  0.52230  0.10197  1.0000
  H   H603      1.0  0.71523  0.49016  0.07408  1.0000
  H   H604      1.0  0.66829  0.49918  0.07955  1.0000
  C   C357      1.0  0.61306  0.39975  0.01819  1.0000
  H   H605      1.0  0.86434  0.65547  0.20620  1.0000
  H   H606      1.0  0.70021  0.48542  0.18470  1.0000
  H   H607      1.0  0.74351  0.54351  0.15689  1.0000
  H   H608      1.0  0.87586  0.65695  0.43363  1.0000
  H   H609      1.0  0.61665  0.40137  0.04884  1.0000
  H   H610      1.0  0.75693  0.48673  0.10404  1.0000
  H   H611      1.0  0.74262  0.48823  0.15147  1.0000
  H   H612      1.0  0.72131  0.45555  0.11977  1.0000
  H   H613      1.0  0.71593  0.55951  0.11733  1.0000
  H   H614      1.0  0.62180  0.42545  0.13716  1.0000
  H   H615      1.0  0.71767  0.54512  0.06949  1.0000
  H   H616      1.0  0.71636  0.55198  0.18165  1.0000
  S   S101      1.0  0.66421  0.45707  0.01411  1.0000
  H   H617      1.0  0.66176  0.51261  0.12510  1.0000
  H   H618      1.0  0.68948  0.55530  0.08250  1.0000
  S   S102      1.0  0.81755  0.65459  0.39604  1.0000
  H   H619      1.0  0.89764  0.65852  0.22545  1.0000
  S   S103      1.0  0.79401  0.63831  0.19790  1.0000
  H   H620      1.0  0.67000  0.38935  0.01954  1.0000
  C   C358      1.0  0.88696  0.65286  0.06905  1.0000
  H   H621      1.0  0.89917  0.64354  0.12253  1.0000
  H   H622      1.0  0.88148  0.63387  0.18522  1.0000
  C   C359      1.0  0.82188  0.65621  0.47501  1.0000
  H   H623      1.0  0.86888  0.64483  0.36133  1.0000
  C   C360      1.0  0.78012  0.38940  0.00491  1.0000
  H   H624      1.0  0.78382  0.43431  0.00120  1.0000
  H   H625      1.0  0.69119  0.34188  0.00691  1.0000
  S   S104      1.0  0.84977  0.65901  0.29093  1.0000
  H   H626      1.0  0.67021  0.36185  0.05181  1.0000
  S   S105      1.0  0.77972  0.33448  0.00903  1.0000
  H   H627      1.0  0.94476  0.65855  0.39143  1.0000
  C   C361      1.0  0.58764  0.37363  0.00335  1.0000
  H   H628      1.0  0.61616  0.66313  0.17497  1.0000
  H   H629      1.0  0.91092  0.66269  0.05812  1.0000
  Fe  Fe52      1.0  0.76228  0.53715  0.93477  1.0000
  H   H630      1.0  0.81702  0.38303  0.88623  1.0000
  S   S106      1.0  0.77496  0.57991  0.89779  1.0000
  H   H631      1.0  0.70165  0.39516  0.91229  1.0000
  C   C362      1.0  0.88261  0.34452  0.84167  1.0000
  H   H632      1.0  0.73628  0.65574  0.82909  1.0000
  C   C363      1.0  0.76944  0.40921  0.94795  1.0000
  S   S107      1.0  0.72897  0.48671  0.92480  1.0000
  C   C364      1.0  0.76191  0.38127  0.92896  1.0000
  C   C365      1.0  0.77789  0.41290  0.98631  1.0000
  H   H633      1.0  0.73270  0.60018  0.83635  1.0000
  S   S108      1.0  0.82500  0.62359  0.72439  1.0000
  S   S109      1.0  0.74139  0.53650  0.99436  1.0000
  H   H634      1.0  0.71165  0.56628  0.80831  1.0000
  H   H635      1.0  0.72589  0.60626  0.69788  1.0000
  C   C366      1.0  0.65833  0.37023  0.94651  1.0000
  H   H636      1.0  0.68392  0.64914  0.71552  1.0000
  C   C367      1.0  0.79158  0.59189  0.85039  1.0000
  C   C368      1.0  0.80339  0.62294  0.83999  1.0000
  C   C369      1.0  0.81446  0.63318  0.80198  1.0000
  C   C370      1.0  0.81350  0.61239  0.77354  1.0000
  C   C371      1.0  0.80247  0.58153  0.78414  1.0000
  C   C372      1.0  0.79164  0.57132  0.82229  1.0000
  H   H637      1.0  0.80358  0.63910  0.86146  1.0000
  Fe  Fe53      1.0  0.71173  0.48524  0.98604  1.0000
  H   H638      1.0  0.80174  0.56520  0.76255  1.0000
  H   H639      1.0  0.78259  0.54736  0.82967  1.0000
  H   H640      1.0  0.82218  0.34886  0.83956  1.0000
  C   C373      1.0  0.62849  0.42153  0.95422  1.0000
  C   C374      1.0  0.60266  0.39577  0.93953  1.0000
  H   H641      1.0  0.82725  0.65676  0.53669  1.0000
  C   C375      1.0  0.89372  0.63480  0.80112  1.0000
  C   C376      1.0  0.83631  0.36074  0.92146  1.0000
  H   H642      1.0  0.64393  0.44001  0.93514  1.0000
  H   H643      1.0  0.59852  0.39460  0.90908  1.0000
  H   H644      1.0  0.75535  0.37827  0.89926  1.0000
  H   H645      1.0  0.90813  0.62846  0.72434  1.0000
  H   H646      1.0  0.74477  0.59192  0.72700  1.0000
  N   N25       1.0  0.66361  0.34611  0.96422  1.0000
  H   H647      1.0  0.69541  0.60721  0.80407  1.0000
  H   H648      1.0  0.87938  0.62861  0.77580  1.0000
  C   C377      1.0  0.87175  0.36087  0.87118  1.0000
  Fe  Fe54      1.0  0.76386  0.47788  0.95131  1.0000
  C   C378      1.0  0.83516  0.38914  0.90699  1.0000
  H   H649      1.0  0.69660  0.34853  0.92038  1.0000
  C   C379      1.0  0.71344  0.60721  0.78432  1.0000
  C   C380      1.0  0.76320  0.35737  0.94799  1.0000
  H   H650      1.0  0.87231  0.38021  0.85529  1.0000
  S   S110      1.0  0.79837  0.52842  0.95749  1.0000
  N   N26       1.0  0.84094  0.34134  0.89075  1.0000
  H   H651      1.0  0.75767  0.33613  0.93296  1.0000
  H   H652      1.0  0.70074  0.41354  0.95762  1.0000
  H   H653      1.0  0.64495  0.37693  0.96664  1.0000
  H   H654      1.0  0.88135  0.63793  0.82659  1.0000
  H   H655      1.0  0.82995  0.40029  0.93207  1.0000
  S   S111      1.0  0.76914  0.43923  0.92228  1.0000
  C   C381      1.0  0.74726  0.61241  0.71202  1.0000
  H   H656      1.0  0.74907  0.59451  0.79176  1.0000
  N   N27       1.0  0.73525  0.63941  0.77024  1.0000
  H   H657      1.0  0.51620  0.35437  0.88783  1.0000
  C   C382      1.0  0.58203  0.37172  0.96398  1.0000
  H   H658      1.0  0.76710  0.64952  0.81546  1.0000
  H   H659      1.0  0.71291  0.64282  0.69411  1.0000
  H   H660      1.0  0.90578  0.36135  0.83036  1.0000
  H   H661      1.0  0.91794  0.64734  0.67890  1.0000
  H   H662      1.0  0.89565  0.61422  0.80779  1.0000
  H   H663      1.0  0.76501  0.61782  0.68877  1.0000
  H   H664      1.0  0.71078  0.37531  0.97945  1.0000
  H   H665      1.0  0.77879  0.64329  0.75218  1.0000
  C   C383      1.0  0.72782  0.59141  0.80629  1.0000
  H   H666      1.0  0.68224  0.61334  0.72426  1.0000
  H   H667      1.0  0.70095  0.59165  0.76031  1.0000
  H   H668      1.0  0.88929  0.64906  0.70847  1.0000
  C   C384      1.0  0.77314  0.36170  0.98577  1.0000
  H   H669      1.0  0.85736  0.40674  0.89424  1.0000
  C   C385      1.0  0.75786  0.64047  0.73934  1.0000
  C   C386      1.0  0.91114  0.64917  0.70935  1.0000
  H   H670      1.0  0.64393  0.36086  0.92094  1.0000
  C   C387      1.0  0.92612  0.66297  0.79592  1.0000
  C   C388      1.0  0.69806  0.63830  0.72050  1.0000
  H   H671      1.0  0.81485  0.34640  0.93861  1.0000
  H   H672      1.0  0.94211  0.65417  0.78856  1.0000
  C   C389      1.0  0.68713  0.39991  0.93300  1.0000
  H   H673      1.0  0.85475  0.36985  0.94248  1.0000
  H   H674      1.0  0.68028  0.41475  0.91796  1.0000
  C   C390      1.0  0.63366  0.42381  0.99374  1.0000
  S   S112      1.0  0.54905  0.34054  0.94430  1.0000
  H   H675      1.0  0.88954  0.37190  0.89296  1.0000
  C   C391      1.0  0.49723  0.35933  0.88618  1.0000
  C   C392      1.0  0.71717  0.65353  0.75596  1.0000
  C   C393      1.0  0.68809  0.36001  0.99335  1.0000
  H   H676      1.0  0.70165  0.65403  0.77951  1.0000
  C   C394      1.0  0.81581  0.33118  0.86238  1.0000
  H   H677      1.0  0.86794  0.33614  0.81651  1.0000
  H   H678      1.0  0.76602  0.66121  0.72090  1.0000
  H   H679      1.0  0.50720  0.38296  0.87433  1.0000
  C   C395      1.0  0.67363  0.33165  0.93230  1.0000
  C   C396      1.0  0.75236  0.65813  0.80457  1.0000
  H   H680      1.0  0.88516  0.33532  0.93301  1.0000
  H   H681      1.0  0.82306  0.65702  0.79456  1.0000
  Fe  Fe55      1.0  0.53159  0.75890  0.01345  1.0000
  C   C397      1.0  0.82877  0.67375  0.44114  1.0000
  S   S113      1.0  0.57520  0.77416  0.04684  1.0000
  Fe  Fe56      1.0  0.65716  0.83248  0.25548  1.0000
  S   S114      1.0  0.70306  0.84030  0.23376  1.0000
  S   S115      1.0  0.61281  0.81229  0.22226  1.0000
  Fe  Fe57      1.0  0.67932  0.85098  0.33955  1.0000
  S   S116      1.0  0.72629  0.85965  0.32322  1.0000
  S   S117      1.0  0.66698  0.86245  0.39952  1.0000
  Fe  Fe58      1.0  0.72229  0.88317  0.27102  1.0000
  S   S118      1.0  0.76348  0.92847  0.25225  1.0000
  Fe  Fe59      1.0  0.70325  0.81640  0.28792  1.0000
  S   S119      1.0  0.71022  0.77484  0.28947  1.0000
  S   S120      1.0  0.67652  0.87711  0.28916  1.0000
  S   S121      1.0  0.65606  0.80593  0.30780  1.0000
  S   S122      1.0  0.85973  0.71570  0.23603  1.0000
  N   N28       1.0  0.92040  0.68326  0.40490  1.0000
  S   S123      1.0  0.86872  0.72706  0.32951  1.0000
  Fe  Fe60      1.0  0.83886  0.73003  0.28541  1.0000
  S   S124      1.0  0.83581  0.77371  0.28054  1.0000
  Fe  Fe61      1.0  0.88598  0.70840  0.28115  1.0000
  S   S125      1.0  0.93373  0.71471  0.27409  1.0000
  C   C398      1.0  0.86879  0.69042  0.13951  1.0000
  C   C399      1.0  0.73673  0.93839  0.43436  1.0000
  S   S126      1.0  0.79987  0.68232  0.29620  1.0000
  C   C400      1.0  0.67750  0.75908  0.19189  1.0000
  C   C401      1.0  0.96808  0.75020  0.27765  1.0000
  H   H682      1.0  0.87599  0.71242  0.15522  1.0000
  H   H683      1.0  0.94714  0.77843  0.28647  1.0000
  H   H684      1.0  0.98186  0.79104  0.43959  1.0000
  C   C402      1.0  0.74041  0.96692  0.27336  1.0000
  C   C403      1.0  0.76607  0.96455  0.26219  1.0000
  H   H685      1.0  0.87663  0.66496  0.05520  1.0000
  H   H686      1.0  0.71833  0.94641  0.27559  1.0000
  H   H687      1.0  0.55330  0.82730  0.14172  1.0000
  C   C404      1.0  0.74553  0.77537  0.28736  1.0000
  C   C405      1.0  0.77327  0.80262  0.28226  1.0000
  C   C406      1.0  0.80075  0.80177  0.28024  1.0000
  C   C407      1.0  0.80074  0.77374  0.28329  1.0000
  C   C408      1.0  0.77296  0.74653  0.28838  1.0000
  C   C409      1.0  0.74552  0.74737  0.29040  1.0000
  H   H688      1.0  0.77359  0.82432  0.27988  1.0000
  H   H689      1.0  0.82213  0.82293  0.27632  1.0000
  H   H690      1.0  0.77261  0.72484  0.29085  1.0000
  H   H691      1.0  0.72421  0.72619  0.29458  1.0000
  C   C410      1.0  0.67722  0.85343  0.44367  1.0000
  H   H692      1.0  0.91892  0.75077  0.13239  1.0000
  C   C411      1.0  0.68913  0.83352  0.44511  1.0000
  H   H693      1.0  0.79561  0.77908  0.47658  1.0000
  H   H694      1.0  0.69248  0.82333  0.41877  1.0000
  C   C412      1.0  0.58508  0.78474  0.09583  1.0000
  C   C413      1.0  0.56336  0.77445  0.12641  1.0000
  C   C414      1.0  0.57231  0.78333  0.16469  1.0000
  C   C415      1.0  0.60313  0.80217  0.17317  1.0000
  C   C416      1.0  0.62494  0.81210  0.14267  1.0000
  C   C417      1.0  0.61595  0.80335  0.10433  1.0000
  H   H695      1.0  0.53972  0.75905  0.12067  1.0000
  H   H696      1.0  0.55524  0.77516  0.18804  1.0000
  H   H697      1.0  0.64870  0.82680  0.14860  1.0000
  H   H698      1.0  0.63307  0.81125  0.08107  1.0000
  H   H699      1.0  0.93340  0.74698  0.35473  1.0000
  H   H700      1.0  0.68522  0.92861  0.40368  1.0000
  H   H701      1.0  0.58655  0.86870  0.04440  1.0000
  H   H702      1.0  0.55463  0.86335  0.14518  1.0000
  H   H703      1.0  0.53054  0.84753  0.04703  1.0000
  C   C418      1.0  0.75810  0.93828  0.46463  1.0000
  H   H704      1.0  0.86927  0.74496  0.48124  1.0000
  H   H705      1.0  0.63681  0.76712  0.23227  1.0000
  C   C419      1.0  0.51975  0.82853  0.18153  1.0000
  H   H706      1.0  0.58583  0.85515  0.09173  1.0000
  C   C420      1.0  0.64583  0.71784  0.23695  1.0000
  H   H707      1.0  0.58259  0.74324  0.22904  1.0000
  H   H708      1.0  0.70468  0.81023  0.48167  1.0000
  H   H709      1.0  0.94327  0.68188  0.45535  1.0000
  H   H710      1.0  0.65283  0.73407  0.26187  1.0000
  C   C421      1.0  0.96837  0.77809  0.28397  1.0000
  H   H711      1.0  0.68324  0.95388  0.37006  1.0000
  H   H712      1.0  0.62303  0.69914  0.24613  1.0000
  H   H713      1.0  0.85062  0.71967  0.41812  1.0000
  H   H714      1.0  0.95815  0.71903  0.43657  1.0000
  N   N29       1.0  0.64526  0.73390  0.20100  1.0000
  N   N30       1.0  0.75120  0.95885  0.39935  1.0000
  H   H715      1.0  0.69669  0.92866  0.35342  1.0000
  C   C422      1.0  0.69609  0.82619  0.48085  1.0000
  C   C423      1.0  0.75619  0.94127  0.36654  1.0000
  H   H716      1.0  0.49527  0.81206  0.17932  1.0000
  C   C424      1.0  0.68200  0.78040  0.15780  1.0000
  H   H717      1.0  0.91138  0.70479  0.18925  1.0000
  H   H718      1.0  0.65296  0.70997  0.15295  1.0000
  H   H719      1.0  0.72194  0.91412  0.42539  1.0000
  H   H720      1.0  0.66334  0.68917  0.20842  1.0000
  C   C425      1.0  0.51030  0.79848  0.09316  1.0000
  H   H721      1.0  0.98393  0.69444  0.34666  1.0000
  H   H722      1.0  0.95593  0.74579  0.39135  1.0000
  H   H723      1.0  0.92929  0.68452  0.16863  1.0000
  C   C426      1.0  0.92084  0.70987  0.10958  1.0000
  H   H724      1.0  0.93948  0.70430  0.10409  1.0000
  H   H725      1.0  0.50006  0.77312  0.14789  1.0000
  H   H726      1.0  0.67186  0.76747  0.13109  1.0000
  C   C427      1.0  0.84543  0.70585  0.44380  1.0000
  C   C428      1.0  0.77999  0.93125  0.37211  1.0000
  H   H727      1.0  0.52957  0.79424  0.08687  1.0000
  H   H728      1.0  0.51249  0.88583  0.09723  1.0000
  H   H729      1.0  0.77248  0.91370  0.39509  1.0000
  H   H730      1.0  0.58962  0.71475  0.24768  1.0000
  H   H731      1.0  0.73822  0.98274  0.35940  1.0000
  H   H732      1.0  0.62594  0.76168  0.18346  1.0000
  H   H733      1.0  0.88851  0.69962  0.39834  1.0000
  H   H734      1.0  0.95340  0.75887  0.10691  1.0000
  H   H735      1.0  0.69271  0.74931  0.18490  1.0000
  C   C429      1.0  0.67305  0.86647  0.47827  1.0000
  H   H736      1.0  0.55044  0.87662  0.08177  1.0000
  H   H737      1.0  0.73472  0.91982  0.36021  1.0000
  H   H738      1.0  0.85083  0.67253  0.15836  1.0000
  H   H739      1.0  0.66227  0.68891  0.26016  1.0000
  C   C430      1.0  0.91809  0.70489  0.47257  1.0000
  H   H740      1.0  0.57966  0.71358  0.19737  1.0000
  C   C431      1.0  0.94051  0.67611  0.37818  1.0000
  H   H741      1.0  0.90922  0.71916  0.46087  1.0000
  H   H742      1.0  0.80280  0.95091  0.37768  1.0000
  H   H743      1.0  0.84073  0.66811  0.08964  1.0000
  C   C432      1.0  0.85584  0.72014  0.47970  1.0000
  H   H744      1.0  0.93304  0.71817  0.49644  1.0000
  H   H745      1.0  0.59242  0.67222  0.14896  1.0000
  H   H746      1.0  0.52898  0.81749  0.20008  1.0000
  H   H747      1.0  0.67298  0.79616  0.16520  1.0000
  C   C433      1.0  0.78030  0.98742  0.40962  1.0000
  C   C434      1.0  0.93546  0.74249  0.12743  1.0000
  C   C435      1.0  0.59276  0.72842  0.22154  1.0000
  C   C436      1.0  0.66689  0.70363  0.23446  1.0000
  H   H748      1.0  0.86810  0.70886  0.08256  1.0000
  H   H749      1.0  0.62696  0.72313  0.14396  1.0000
  C   C437      1.0  0.69699  0.94328  0.37813  1.0000
  H   H750      1.0  0.78253  0.92028  0.34497  1.0000
  H   H751      1.0  0.68715  0.77414  0.21750  1.0000
  C   C438      1.0  0.85255  0.69108  0.10355  1.0000
  Fe  Fe62      1.0  0.83112  0.67834  0.33726  1.0000
  H   H752      1.0  0.72131  0.94483  0.45106  1.0000
  C   C439      1.0  0.63402  0.71271  0.16653  1.0000
  C   C440      1.0  0.62641  0.74931  0.20930  1.0000
  C   C441      1.0  0.93648  0.69744  0.44171  1.0000
  C   C442      1.0  0.54260  0.85209  0.07461  1.0000
  C   C443      1.0  0.97170  0.70332  0.36570  1.0000
  H   H753      1.0  0.90491  0.69526  0.35439  1.0000
  H   H754      1.0  0.91351  0.71191  0.08068  1.0000
  H   H755      1.0  0.59278  0.67665  0.19982  1.0000
  C   C444      1.0  0.57213  0.85064  0.06589  1.0000
  H   H756      1.0  0.70678  0.79532  0.15146  1.0000
  H   H757      1.0  0.96923  0.72001  0.34801  1.0000
  H   H758      1.0  0.98648  0.71489  0.39021  1.0000
  C   C445      1.0  0.93229  0.73819  0.38419  1.0000
  H   H759      1.0  0.92315  0.75009  0.40339  1.0000
  C   C446      1.0  0.91030  0.70296  0.38482  1.0000
  H   H760      1.0  0.72737  0.98470  0.40839  1.0000
  H   H761      1.0  0.69120  0.72165  0.23528  1.0000
  H   H762      1.0  0.79721  0.98166  0.42026  1.0000
  N   N31       1.0  0.89515  0.68454  0.13297  1.0000
  C   C447      1.0  0.60747  0.67961  0.17393  1.0000
  H   H763      1.0  0.56772  0.82855  0.05263  1.0000
  C   C448      1.0  0.53861  0.83814  0.14285  1.0000
  H   H764      1.0  0.66388  0.88193  0.47746  1.0000
  H   H765      1.0  0.83458  0.69683  0.11268  1.0000
  H   H766      1.0  0.94695  0.74404  0.15453  1.0000
  C   C449      1.0  0.72953  0.96913  0.38643  1.0000
  N   N32       1.0  0.52135  0.83119  0.10623  1.0000
  H   H767      1.0  0.76295  0.95495  0.33962  1.0000
  Fe  Fe63      1.0  0.82220  0.66736  0.24882  1.0000
  H   H768      1.0  0.52254  0.84916  0.19777  1.0000
  C   C450      1.0  0.90702  0.68400  0.17198  1.0000
  H   H769      1.0  0.89899  0.68377  0.48576  1.0000
  H   H770      1.0  0.76835  0.96008  0.48142  1.0000
  H   H771      1.0  0.81457  0.98977  0.25070  1.0000
  H   H772      1.0  0.51653  0.87819  0.14679  1.0000
  H   H773      1.0  0.98426  0.82314  0.46610  1.0000
  C   C451      1.0  0.79461  0.99146  0.25927  1.0000
  H   H774      1.0  0.77640  0.93440  0.45209  1.0000
  H   H775      1.0  0.49847  0.79413  0.06558  1.0000
  C   C452      1.0  0.50184  0.86948  0.12164  1.0000
  H   H776      1.0  0.66644  0.79655  0.01979  1.0000
  H   H777      1.0  0.92911  0.66592  0.35066  1.0000
  C   C453      1.0  0.49454  0.83666  0.10962  1.0000
  C   C454      1.0  0.74329  0.99593  0.28148  1.0000
  H   H778      1.0  0.74454  0.91935  0.48554  1.0000
  H   H779      1.0  0.72328  0.99755  0.28999  1.0000
  Fe  Fe64      1.0  0.52426  0.77523  0.93086  1.0000
  S   S127      1.0  0.55658  0.81015  0.88543  1.0000
  S   S128      1.0  0.52733  0.79765  0.98886  1.0000
  Fe  Fe65      1.0  0.67497  0.83703  0.70394  1.0000
  S   S129      1.0  0.71812  0.87527  0.72792  1.0000
  S   S130      1.0  0.63319  0.80050  0.73845  1.0000
  Fe  Fe66      1.0  0.70311  0.84829  0.61982  1.0000
  S   S131      1.0  0.74777  0.88715  0.63842  1.0000
  S   S132      1.0  0.69887  0.82710  0.55976  1.0000
  Fe  Fe67      1.0  0.74234  0.85689  0.68853  1.0000
  S   S133      1.0  0.78310  0.85260  0.70439  1.0000
  Fe  Fe68      1.0  0.71988  0.90219  0.67562  1.0000
  S   S134      1.0  0.72656  0.95070  0.67445  1.0000
  S   S135      1.0  0.69944  0.81715  0.66793  1.0000
  S   S136      1.0  0.67495  0.86490  0.65366  1.0000
  S   S137      1.0  0.84625  0.71031  0.73302  1.0000
  Fe  Fe69      1.0  0.85657  0.70832  0.62043  1.0000
  S   S138      1.0  0.86409  0.75059  0.65379  1.0000
  Fe  Fe70      1.0  0.88857  0.73769  0.69534  1.0000
  S   S139      1.0  0.93239  0.77327  0.72223  1.0000
  Fe  Fe71      1.0  0.82144  0.71922  0.68746  1.0000
  S   S140      1.0  0.77913  0.72347  0.69747  1.0000
  C   C455      1.0  0.56053  0.76304  0.60653  1.0000
  C   C456      1.0  0.97117  0.75871  0.67938  1.0000
  C   C457      1.0  0.96846  0.77851  0.70644  1.0000
  C   C458      1.0  0.69187  0.83913  0.51546  1.0000
  H   H780      1.0  0.95120  0.74120  0.66560  1.0000
  H   H781      1.0  0.66744  0.79481  0.91096  1.0000
  C   C459      1.0  0.76196  0.98470  0.67989  1.0000
  H   H782      1.0  0.67205  0.78659  0.97163  1.0000
  H   H783      1.0  0.87396  0.70292  0.80484  1.0000
  H   H784      1.0  0.59523  0.77631  0.96022  1.0000
  H   H785      1.0  0.78118  0.96483  0.71594  1.0000
  C   C460      1.0  0.78163  0.81652  0.70293  1.0000
  C   C461      1.0  0.75406  0.78900  0.70019  1.0000
  C   C462      1.0  0.75365  0.76064  0.69901  1.0000
  C   C463      1.0  0.78079  0.75957  0.70020  1.0000
  C   C464      1.0  0.80839  0.78703  0.70306  1.0000
  C   C465      1.0  0.80876  0.81539  0.70457  1.0000
  H   H786      1.0  0.73303  0.78953  0.69942  1.0000
  H   H787      1.0  0.73220  0.73949  0.69694  1.0000
  H   H788      1.0  0.82943  0.78646  0.70429  1.0000
  H   H789      1.0  0.83015  0.83659  0.70694  1.0000
  H   H790      1.0  0.78792  0.69750  0.77076  1.0000
  H   H791      1.0  0.80434  0.71912  0.59425  1.0000
  S   S141      1.0  0.52954  0.73700  0.95500  1.0000
  H   H792      1.0  0.67706  0.86960  0.54036  1.0000
  H   H793      1.0  0.63441  0.76777  0.99588  1.0000
  C   C466      1.0  0.57752  0.80673  0.84461  1.0000
  C   C467      1.0  0.57313  0.77827  0.83100  1.0000
  C   C468      1.0  0.59034  0.77688  0.79851  1.0000
  C   C469      1.0  0.61249  0.80384  0.77957  1.0000
  C   C470      1.0  0.61714  0.83231  0.79349  1.0000
  C   C471      1.0  0.59962  0.83368  0.82561  1.0000
  H   H794      1.0  0.55622  0.75733  0.84517  1.0000
  H   H795      1.0  0.58647  0.75471  0.78801  1.0000
  H   H796      1.0  0.63397  0.85325  0.77922  1.0000
  H   H797      1.0  0.60321  0.85582  0.83578  1.0000
  N   N33       1.0  0.93031  0.68714  0.76722  1.0000
  C   C472      1.0  0.61054  0.75364  0.91875  1.0000
  H   H798      1.0  0.61813  0.75541  0.88797  1.0000
  C   C473      1.0  0.83217  0.67054  0.51103  1.0000
  H   H799      1.0  0.60483  0.85849  0.94690  1.0000
  C   C474      1.0  0.65830  0.81764  0.86612  1.0000
  N   N34       1.0  0.59384  0.77387  0.61093  1.0000
  H   H800      1.0  0.60512  0.83387  0.63235  1.0000
  H   H801      1.0  0.62446  0.83722  0.90136  1.0000
  C   C475      1.0  0.89675  0.70488  0.80552  1.0000
  H   H802      1.0  0.95918  0.73652  0.76028  1.0000
  H   H803      1.0  0.55407  0.75848  0.54405  1.0000
  H   H804      1.0  0.65583  0.86104  0.93011  1.0000
  H   H805      1.0  0.62045  0.79806  0.51687  1.0000
  H   H806      1.0  0.78386  0.79002  0.62733  1.0000
  H   H807      1.0  0.81903  0.81014  0.53160  1.0000
  H   H808      1.0  0.63467  0.80148  0.85819  1.0000
  H   H809      1.0  0.66359  0.84143  0.85934  1.0000
  S   S142      1.0  0.86629  0.72199  0.55674  1.0000
  H   H810      1.0  0.89667  0.69188  0.83093  1.0000
  H   H811      1.0  0.59077  0.77356  0.67365  1.0000
  H   H812      1.0  0.62719  0.80000  0.65365  1.0000
  H   H813      1.0  0.95677  0.67587  0.72559  1.0000
  H   H814      1.0  0.55645  0.78293  0.60557  1.0000
  H   H815      1.0  0.60438  0.81198  0.57284  1.0000
  C   C476      1.0  0.59582  0.81694  0.65623  1.0000
  H   H816      1.0  0.58729  0.73332  0.92096  1.0000
  C   C477      1.0  0.81062  0.78510  0.53550  1.0000
  H   H817      1.0  0.57116  0.80852  0.66131  1.0000
  H   H818      1.0  0.62257  0.85282  0.98683  1.0000
  H   H819      1.0  0.60690  0.82938  0.68296  1.0000
  H   H820      1.0  0.77095  0.69633  0.56785  1.0000
  H   H821      1.0  0.85939  0.82881  0.57459  1.0000
  H   H822      1.0  0.82203  0.77300  0.62876  1.0000
  H   H823      1.0  0.84058  0.77075  0.58507  1.0000
  H   H824      1.0  0.76215  0.80133  0.55134  1.0000
  H   H825      1.0  0.87428  0.81802  0.61346  1.0000
  C   C478      1.0  0.95765  0.71744  0.77780  1.0000
  C   C479      1.0  0.85331  0.81667  0.60267  1.0000
  H   H826      1.0  0.83032  0.78192  0.52637  1.0000
  C   C480      1.0  0.68056  0.85958  0.51398  1.0000
  H   H827      1.0  0.73977  0.76636  0.57986  1.0000
  H   H828      1.0  0.54851  0.72341  0.56691  1.0000
  C   C481      1.0  0.84961  0.70261  0.51341  1.0000
  H   H829      1.0  0.80435  0.81994  0.59336  1.0000
  C   C482      1.0  0.82876  0.78251  0.59899  1.0000
  H   H830      1.0  0.90694  0.70922  0.74434  1.0000
  C   C483      1.0  0.75822  0.79063  0.58017  1.0000
  C   C484      1.0  0.79036  0.72002  0.57113  1.0000
  H   H831      1.0  0.74981  0.80319  0.59945  1.0000
  H   H832      1.0  0.62522  0.74857  0.93620  1.0000
  N   N35       1.0  0.63873  0.81201  0.93714  1.0000
  H   H833      1.0  0.76968  0.73734  0.61291  1.0000
  H   H834      1.0  0.59321  0.73321  0.58537  1.0000
  Fe  Fe72      1.0  0.83991  0.67030  0.69635  1.0000
  H   H835      1.0  0.52086  0.73540  0.57299  1.0000
  H   H836      1.0  0.59809  0.75945  0.53320  1.0000
  H   H837      1.0  0.80419  0.72647  0.54369  1.0000
  C   C485      1.0  0.61322  0.79622  0.57938  1.0000
  H   H838      1.0  0.54698  0.74908  0.63211  1.0000
  H   H839      1.0  0.59063  0.82044  0.96481  1.0000
  C   C486      1.0  0.90346  0.69248  0.76730  1.0000
  C   C487      1.0  0.78799  0.79485  0.59588  1.0000
  H   H840      1.0  0.75775  0.73527  0.56546  1.0000
  C   C488      1.0  0.61719  0.78214  0.54073  1.0000
  H   H841      1.0  0.63671  0.81133  0.58942  1.0000
  C   C489      1.0  0.60245  0.79013  0.64942  1.0000
  S   S143      1.0  0.88379  0.69720  0.66063  1.0000
  H   H842      1.0  0.58267  0.72974  0.63484  1.0000
  C   C490      1.0  0.59860  0.74640  0.61270  1.0000
  H   H843      1.0  0.63839  0.78070  0.54004  1.0000
  H   H844      1.0  0.63361  0.73323  0.61603  1.0000
  C   C491      1.0  0.54574  0.74398  0.57035  1.0000
  H   H845      1.0  0.59452  0.78533  0.91164  1.0000
  C   C492      1.0  0.63099  0.75372  0.62229  1.0000
  H   H846      1.0  0.64886  0.77308  0.60499  1.0000
  H   H847      1.0  0.63507  0.75898  0.65346  1.0000
  C   C493      1.0  0.61168  0.84261  0.95919  1.0000
  C   C494      1.0  0.77828  0.74228  0.58224  1.0000
  H   H848      1.0  0.95546  0.72375  0.80830  1.0000
  H   H849      1.0  0.94161  0.69798  0.70669  1.0000
  H   H850      1.0  0.78907  0.70297  0.82187  1.0000
  C   C495      1.0  0.66354  0.81468  0.90893  1.0000
  C   C496      1.0  0.77356  0.69291  0.79750  1.0000
  H   H851      1.0  0.68572  0.83516  0.91587  1.0000
  C   C497      1.0  0.60894  0.78247  0.93255  1.0000
  C   C498      1.0  0.78451  0.98571  0.70274  1.0000
  C   C499      1.0  0.63382  0.83896  0.93027  1.0000
  H   H852      1.0  0.67372  0.81263  0.84729  1.0000
  N   N36       1.0  0.80103  0.77604  0.57724  1.0000
  H   H853      1.0  0.84610  0.82884  0.62423  1.0000
  C   C500      1.0  0.93641  0.67890  0.72692  1.0000
  H   H854      1.0  0.76054  0.70536  0.79638  1.0000
  H   H855      1.0  0.93212  0.67343  0.82518  1.0000
  S   S144      1.0  0.81238  0.67739  0.65236  1.0000
  H   H856      1.0  0.91330  0.72974  0.80917  1.0000
  C   C501      1.0  0.64954  0.81505  0.97766  1.0000
  C   C502      1.0  0.65594  0.78981  0.99122  1.0000
  C   C503      1.0  0.98892  0.71912  0.77342  1.0000
  H   H857      1.0  0.67057  0.83767  0.98139  1.0000
  C   C504      1.0  0.78650  0.76775  0.50504  1.0000
  H   H858      1.0  0.76494  0.76783  0.51133  1.0000
  H   H859      1.0  0.73232  0.67791  0.74738  1.0000
  H   H860      1.0  0.88218  0.67150  0.75987  1.0000
  H   H861      1.0  0.78156  0.74362  0.50144  1.0000
  H   H862      1.0  0.69766  0.99278  0.74556  1.0000
  H   H863      1.0  0.98895  0.69936  0.78718  1.0000
  H   H864      1.0  0.63239  0.81469  0.99922  1.0000
