data_image0
_chemical_formula_structural       FeS2FeS2FeSFeS3CH2SHC6H4CH2NHC3HC3H3NCH2FeCH5C2H2CH2CH2CHC2NH4CHCSCHCH2CHCH5CH4CH3FeH4CH2C2HCH4C2HFeS2FeS2FeSFeS3HSC6H5C2H4C3H2C3H3C2H4CH2CH4CHFeH2C2HC5HCH2C2H4NH2CH3CHNH4CH2CH3CH4CH2CH3NCHNH3C3H4CH5C2H2C2HFeS2FeS2FeSFeS3HSCH4CH2C7H6CHC4HCH3C2H3C2FeH2NH4CH3NH2CHC2H6C2H3C3HC2H6C2H5C2H8C2H3C2FeS2FeS2FeSFeS3CH2CH4CH2C7H3C2H4C3HC2HSHCHCH4NHCHC3FeH3CH2CH5C2H5C2NHCH2CSH3CHCH5FeCSH3SH3SC3HCFeH2CH3FeH7C2SH8C2H2SH2SC4H2NSH3C4H3FeHSHCH6CFeHCHSC2H2SNHCH3CSHC3H2C2SHCH3CH3NCHSCH2CHCH3CH3CH3C2H3CH5CHSFeS2FeS2FeSFeS3H3CFeSHCH4C6H5CH4C3H5NH3C3HSCH2CH2C2H2CH2NC2H2CH4CH4NCH4CHCSCHCH3CH5C3H2CH3C4H5C2HCH3SFe2S2FeS2FeSFeS3FeSH6C6H5C4H3CHC2H2CH9NHCHCHCH2CH3C2H3C2H4C2HCH6C3HC2H4CNSH3CHCHSH2C2FeS2FeS2FeSFeS3HFeS2H4C2HCH4C6H4C2H3NH4C2FeC2H2CHNHC3H2CH2SHCHC2H4C3HCHSHCHFeS2FeS2FeSFeS3H2FeHSH5C2H2CHC2H2C6H4C2H4CH3CH7CHCH3NHCH3CH2C3NCH3CH2CHCH5C5H2CHCHCH4CH2NHC2H
_chemical_formula_sum              "Fe48 S96 C336 H576 N24"
_cell_length_a       38.2328
_cell_length_b       38.0014
_cell_length_c       35.2878
_cell_angle_alpha    94.6738
_cell_angle_beta     90.3724
_cell_angle_gamma    89.2977

_space_group_name_H-M_alt    "P 1"
_space_group_IT_number       1

loop_
  _space_group_symop_operation_xyz
  'x, y, z'

loop_
  _atom_site_type_symbol
  _atom_site_label
  _atom_site_symmetry_multiplicity
  _atom_site_fract_x
  _atom_site_fract_y
  _atom_site_fract_z
  _atom_site_occupancy
  Fe  Fe1       1.0  0.13288  0.16931  0.28687  1.0000
  S   S1        1.0  0.14923  0.22404  0.30767  1.0000
  S   S2        1.0  0.07958  0.15143  0.26522  1.0000
  Fe  Fe2       1.0  0.20323  0.13794  0.30448  1.0000
  S   S3        1.0  0.22529  0.19022  0.32718  1.0000
  S   S4        1.0  0.23509  0.08751  0.30411  1.0000
  Fe  Fe3       1.0  0.17375  0.19841  0.35707  1.0000
  S   S5        1.0  0.16502  0.22555  0.41651  1.0000
  Fe  Fe4       1.0  0.19965  0.21174  0.27587  1.0000
  S   S6        1.0  0.22936  0.25494  0.24735  1.0000
  S   S7        1.0  0.15377  0.14456  0.33813  1.0000
  S   S8        1.0  0.18133  0.15854  0.25127  1.0000
  C   C1        1.0  0.00893  0.16437  0.27029  1.0000
  H   H1        1.0  0.24120  0.37866  0.33558  1.0000
  H   H2        1.0  0.00609  0.13820  0.25619  1.0000
  S   S9        1.0  0.29301  0.27070  0.08132  1.0000
  H   H3        1.0  0.18537  0.25239  0.05587  1.0000
  C   C2        1.0  0.24471  0.25976  0.20022  1.0000
  C   C3        1.0  0.26391  0.29001  0.19331  1.0000
  C   C4        1.0  0.27814  0.29433  0.15706  1.0000
  C   C5        1.0  0.27377  0.26818  0.12716  1.0000
  C   C6        1.0  0.25435  0.23803  0.13402  1.0000
  C   C7        1.0  0.23953  0.23404  0.17003  1.0000
  H   H4        1.0  0.26812  0.31020  0.21625  1.0000
  H   H5        1.0  0.29305  0.31761  0.15247  1.0000
  H   H6        1.0  0.25075  0.21757  0.11126  1.0000
  H   H7        1.0  0.22434  0.21093  0.17446  1.0000
  C   C8        1.0  0.17765  0.20777  0.45978  1.0000
  H   H8        1.0  0.24851  0.29694  0.39727  1.0000
  H   H9        1.0  0.29267  0.21358  0.26235  1.0000
  N   N1        1.0  0.03985  0.00734  0.28624  1.0000
  H   H10       1.0  0.16839  0.29552  0.28316  1.0000
  C   C9        1.0  0.17753  0.05093  0.27645  1.0000
  C   C10       1.0  0.20923  0.04950  0.29628  1.0000
  C   C11       1.0  0.24127  0.27914  0.37220  1.0000
  H   H11       1.0  0.16856  0.07559  0.26624  1.0000
  C   C12       1.0  0.20122  0.17939  0.46046  1.0000
  C   C13       1.0  0.04586  0.21157  0.29669  1.0000
  C   C14       1.0  0.04249  0.17762  0.27859  1.0000
  H   H12       1.0  0.30896  0.13180  0.32933  1.0000
  H   H13       1.0  0.07152  0.22202  0.30322  1.0000
  H   H14       1.0  0.03013  0.05458  0.25609  1.0000
  N   N2        1.0  0.19420  0.32570  0.35732  1.0000
  C   C15       1.0  0.16795  0.30900  0.38176  1.0000
  H   H15       1.0  0.13156  0.30586  0.31452  1.0000
  H   H16       1.0  0.18102  0.29921  0.40726  1.0000
  Fe  Fe5       1.0  0.31785  0.31214  0.04522  1.0000
  C   C16       1.0  0.15313  0.31704  0.29866  1.0000
  H   H17       1.0  0.23960  0.12964  0.17859  1.0000
  H   H18       1.0  0.26726  0.34864  0.36182  1.0000
  H   H19       1.0  0.20535  0.27574  0.32590  1.0000
  H   H20       1.0  0.27002  0.14753  0.27752  1.0000
  H   H21       1.0  0.14077  0.33245  0.27661  1.0000
  C   C17       1.0  0.22061  0.01734  0.30932  1.0000
  C   C18       1.0  0.01591  0.23243  0.30550  1.0000
  H   H22       1.0  0.25623  0.17878  0.22311  1.0000
  H   H23       1.0  0.15650  0.28499  0.36660  1.0000
  C   C19       1.0  0.21250  0.35476  0.38117  1.0000
  H   H24       1.0  0.09159  0.00422  0.31175  1.0000
  H   H25       1.0  0.23749  0.30699  0.32055  1.0000
  C   C20       1.0  0.29811  0.14239  0.27089  1.0000
  H   H26       1.0  0.19470  0.37796  0.38696  1.0000
  H   H27       1.0  0.21167  0.16724  0.43407  1.0000
  C   C21       1.0  0.27799  0.16210  0.21026  1.0000
  H   H28       1.0  0.28498  0.17387  0.18355  1.0000
  C   C22       1.0  0.17678  0.34172  0.32418  1.0000
  C   C23       1.0  0.24603  0.36885  0.36389  1.0000
  N   N3        1.0  0.30879  0.16208  0.23734  1.0000
  H   H29       1.0  0.25180  0.11229  0.22213  1.0000
  H   H30       1.0  0.16077  0.36535  0.33396  1.0000
  H   H31       1.0  0.05754  0.01458  0.34497  1.0000
  H   H32       1.0  0.21932  0.34655  0.40991  1.0000
  C   C24       1.0  0.15767  0.02028  0.26911  1.0000
  H   H33       1.0  0.19672  0.35158  0.30494  1.0000
  C   C25       1.0  0.21955  0.29742  0.34215  1.0000
  S   S10       1.0  0.28459  0.35236  0.01765  1.0000
  C   C26       1.0  0.31744  0.15084  0.30899  1.0000
  H   H34       1.0  0.25581  0.39146  0.38282  1.0000
  C   C27       1.0  0.31651  0.20017  0.24980  1.0000
  H   H35       1.0  0.28103  0.10801  0.18162  1.0000
  H   H36       1.0  0.24497  0.01615  0.32497  1.0000
  C   C28       1.0  0.04570  0.04572  0.28016  1.0000
  H   H37       1.0  0.02980  0.01663  0.20600  1.0000
  C   C29       1.0  0.13752  0.33314  0.39671  1.0000
  H   H38       1.0  0.12092  0.34206  0.37339  1.0000
  H   H39       1.0  0.15574  0.21649  0.05173  1.0000
  H   H40       1.0  0.31176  0.22395  0.19448  1.0000
  H   H41       1.0  0.01286  0.06719  0.32853  1.0000
  H   H42       1.0  0.30029  0.11329  0.26401  1.0000
  C   C30       1.0  0.26219  0.12567  0.19782  1.0000
  H   H43       1.0  0.01871  0.25892  0.31879  1.0000
  H   H44       1.0  0.03649  0.09933  0.30505  1.0000
  H   H45       1.0  0.13365  0.02154  0.25296  1.0000
  H   H46       1.0  0.26636  0.26931  0.35939  1.0000
  C   C31       1.0  0.18277  0.22433  0.04507  1.0000
  H   H47       1.0  0.23566  0.27022  0.03135  1.0000
  H   H48       1.0  0.22685  0.25654  0.38232  1.0000
  H   H49       1.0  0.12045  0.31780  0.41455  1.0000
  Fe  Fe6       1.0  0.33231  0.38695  0.01934  1.0000
  H   H50       1.0  0.14690  0.35622  0.41504  1.0000
  H   H51       1.0  0.20068  0.20775  0.06111  1.0000
  H   H52       1.0  0.30615  0.22037  0.01180  1.0000
  H   H53       1.0  0.05960  0.07245  0.33587  1.0000
  C   C32       1.0  0.23149  0.26663  0.00011  1.0000
  H   H54       1.0  0.07336  0.04985  0.27181  1.0000
  H   H55       1.0  0.21315  0.32087  0.99893  1.0000
  C   C33       1.0  0.33021  0.22259  0.21859  1.0000
  C   C34       1.0  0.03800  0.07224  0.31467  1.0000
  H   H56       1.0  0.25303  0.21093  0.03495  1.0000
  C   C35       1.0  0.32744  0.48516  0.02058  1.0000
  H   H57       1.0  0.17855  0.29081  0.00459  1.0000
  H   H58       1.0  0.24398  0.17718  0.99917  1.0000
  H   H59       1.0  0.00137  0.21423  0.43298  1.0000
  H   H60       1.0  0.31011  0.17751  0.32194  1.0000
  C   C36       1.0  0.18837  0.21836  0.00168  1.0000
  C   C37       1.0  0.25124  0.20552  0.00352  1.0000
  H   H61       1.0  0.18360  0.18985  0.99400  1.0000
  Fe  Fe7       1.0  0.21797  0.20320  0.71738  1.0000
  S   S11       1.0  0.16637  0.18850  0.74092  1.0000
  S   S12       1.0  0.26362  0.22565  0.75386  1.0000
  Fe  Fe8       1.0  0.19494  0.18123  0.63415  1.0000
  S   S13       1.0  0.14145  0.16600  0.65251  1.0000
  S   S14       1.0  0.21360  0.16613  0.57339  1.0000
  Fe  Fe9       1.0  0.14309  0.21515  0.69207  1.0000
  S   S15       1.0  0.09730  0.25092  0.70871  1.0000
  Fe  Fe10      1.0  0.16916  0.14049  0.69956  1.0000
  S   S16       1.0  0.14628  0.08843  0.71292  1.0000
  S   S17       1.0  0.19462  0.23310  0.67032  1.0000
  S   S18       1.0  0.22280  0.15249  0.67937  1.0000
  H   H62       1.0  0.08438  0.16830  0.76888  1.0000
  S   S19       1.0  0.26245  0.31204  0.91730  1.0000
  C   C38       1.0  0.26437  0.28521  0.87349  1.0000
  C   C39       1.0  0.29507  0.28068  0.85222  1.0000
  C   C40       1.0  0.29449  0.26178  0.81605  1.0000
  C   C41       1.0  0.26347  0.24660  0.80094  1.0000
  C   C42       1.0  0.23311  0.24980  0.82296  1.0000
  C   C43       1.0  0.23343  0.26956  0.85864  1.0000
  H   H63       1.0  0.19228  0.38469  0.82843  1.0000
  H   H64       1.0  0.19512  0.07427  0.64025  1.0000
  H   H65       1.0  0.20927  0.23765  0.81209  1.0000
  H   H66       1.0  0.20947  0.27299  0.87468  1.0000
  H   H67       1.0  0.20153  0.17058  0.93573  1.0000
  C   C44       1.0  0.17485  0.21071  0.52949  1.0000
  C   C45       1.0  0.19879  0.18261  0.53017  1.0000
  H   H68       1.0  0.18611  0.06983  0.49542  1.0000
  H   H69       1.0  0.19899  0.23728  0.93326  1.0000
  H   H70       1.0  0.16457  0.22296  0.55590  1.0000
  H   H71       1.0  0.16908  0.29225  0.72655  1.0000
  C   C46       1.0  0.20958  0.05228  0.71224  1.0000
  C   C47       1.0  0.17305  0.05032  0.71231  1.0000
  C   C48       1.0  0.05070  0.10094  0.62990  1.0000
  H   H72       1.0  0.22207  0.07774  0.71398  1.0000
  H   H73       1.0  0.02370  0.20817  0.60051  1.0000
  C   C49       1.0  0.06691  0.16595  0.74354  1.0000
  C   C50       1.0  0.05725  0.24037  0.68582  1.0000
  C   C51       1.0  0.05642  0.22501  0.64846  1.0000
  H   H74       1.0  0.05996  0.15078  0.66237  1.0000
  H   H75       1.0  0.08061  0.21911  0.63340  1.0000
  H   H76       1.0  0.21903  0.35603  0.85411  1.0000
  C   C52       1.0  0.21934  0.33804  0.72336  1.0000
  C   C53       1.0  0.02420  0.21893  0.62985  1.0000
  H   H77       1.0  0.14193  0.04583  0.63250  1.0000
  H   H78       1.0  0.24009  0.36070  0.78858  1.0000
  H   H79       1.0  0.23284  0.31725  0.79987  1.0000
  H   H80       1.0  0.24872  0.17271  0.93151  1.0000
  C   C54       1.0  0.23001  0.02111  0.70991  1.0000
  H   H81       1.0  0.02621  0.26037  0.73380  1.0000
  H   H82       1.0  0.14897  0.35278  0.73135  1.0000
  C   C55       1.0  0.22284  0.22454  0.94448  1.0000
  H   H83       1.0  0.19943  0.40795  0.77010  1.0000
  H   H84       1.0  0.15455  0.41737  0.75893  1.0000
  H   H85       1.0  0.08265  0.17329  0.71921  1.0000
  H   H86       1.0  0.27190  0.03885  0.63606  1.0000
  C   C56       1.0  0.17713  0.39951  0.75142  1.0000
  H   H87       1.0  0.17730  0.34144  0.83730  1.0000
  Fe  Fe11      1.0  0.30524  0.32791  0.96144  1.0000
  H   H88       1.0  0.06774  0.07706  0.62640  1.0000
  H   H89       1.0  0.26452  0.04879  0.56669  1.0000
  C   C57       1.0  0.05112  0.05252  0.70693  1.0000
  C   C58       1.0  0.21880  0.34175  0.79318  1.0000
  H   H90       1.0  0.05772  0.11711  0.60626  1.0000
  C   C59       1.0  0.16662  0.36094  0.75574  1.0000
  C   C60       1.0  0.21195  0.16716  0.49545  1.0000
  C   C61       1.0  0.26619  0.06539  0.62641  1.0000
  C   C62       1.0  0.15713  0.01722  0.71091  1.0000
  C   C63       1.0  0.05346  0.12771  0.73772  1.0000
  H   H91       1.0  0.25825  0.02264  0.70953  1.0000
  C   C64       1.0  0.15547  0.28932  0.78498  1.0000
  H   H92       1.0  0.08576  0.11470  0.67595  1.0000
  H   H93       1.0  0.23126  0.36465  0.72404  1.0000
  C   C65       1.0  0.22354  0.18628  0.92619  1.0000
  C   C66       1.0  0.25037  0.31166  0.71859  1.0000
  H   H94       1.0  0.23084  0.14579  0.49555  1.0000
  H   H95       1.0  0.29179  0.07841  0.62346  1.0000
  H   H96       1.0  0.18393  0.40320  0.72146  1.0000
  H   H97       1.0  0.25170  0.08148  0.64879  1.0000
  N   N4        1.0  0.03430  0.11789  0.70082  1.0000
  H   H98       1.0  0.14555  0.26229  0.77742  1.0000
  H   H99       1.0  0.29839  0.46124  0.97306  1.0000
  C   C67       1.0  0.19600  0.07661  0.52475  1.0000
  H   H100      1.0  0.12893  0.01548  0.71142  1.0000
  H   H101      1.0  0.29098  0.22652  0.96481  1.0000
  H   H102      1.0  0.24146  0.28475  0.70907  1.0000
  C   C68       1.0  0.18213  0.29802  0.75471  1.0000
  H   H103      1.0  0.13776  0.05231  0.58231  1.0000
  N   N5        1.0  0.19657  0.33496  0.75776  1.0000
  H   H104      1.0  0.24481  0.23863  0.93216  1.0000
  H   H105      1.0  0.13220  0.30699  0.78605  1.0000
  H   H106      1.0  0.16780  0.28846  0.81331  1.0000
  H   H107      1.0  0.14973  0.36128  0.78123  1.0000
  C   C69       1.0  0.05867  0.12243  0.66810  1.0000
  H   H108      1.0  0.24584  0.09125  0.57928  1.0000
  H   H109      1.0  0.22105  0.18687  0.89482  1.0000
  C   C70       1.0  0.20027  0.35671  0.82993  1.0000
  H   H110      1.0  0.31822  0.25925  0.79945  1.0000
  H   H111      1.0  0.26627  0.31062  0.74488  1.0000
  H   H112      1.0  0.20344  0.27800  0.75602  1.0000
  C   C71       1.0  0.02571  0.24839  0.70492  1.0000
  H   H113      1.0  0.20341  0.33501  0.69670  1.0000
  H   H114      1.0  0.21868  0.02477  0.52905  1.0000
  H   H115      1.0  0.31907  0.29257  0.86312  1.0000
  H   H116      1.0  0.26799  0.31974  0.69603  1.0000
  C   C72       1.0  0.24694  0.06360  0.58764  1.0000
  H   H117      1.0  0.00663  0.07126  0.67676  1.0000
  H   H118      1.0  0.04024  0.02569  0.70063  1.0000
  C   C73       1.0  0.21374  0.01215  0.60331  1.0000
  H   H119      1.0  0.07706  0.11067  0.74039  1.0000
  H   H120      1.0  0.18963  0.10017  0.60236  1.0000
  H   H121      1.0  0.17700  0.09559  0.53888  1.0000
  N   N6        1.0  0.21093  0.04750  0.58659  1.0000
  C   C74       1.0  0.18702  0.07246  0.60993  1.0000
  H   H122      1.0  0.22150  0.08964  0.52187  1.0000
  N   N7        1.0  0.22357  0.22874  0.98740  1.0000
  H   H123      1.0  0.14643  0.24541  0.49434  1.0000
  H   H124      1.0  0.13264  0.08855  0.61599  1.0000
  H   H125      1.0  0.19901  0.29338  0.95867  1.0000
  C   C75       1.0  0.14781  0.06364  0.60998  1.0000
  C   C76       1.0  0.19974  0.04252  0.54545  1.0000
  C   C77       1.0  0.00291  0.14217  0.69944  1.0000
  H   H126      1.0  0.03669  0.12320  0.76256  1.0000
  H   H127      1.0  0.00333  0.07874  0.72620  1.0000
  H   H128      1.0  0.04534  0.18539  0.74932  1.0000
  H   H129      1.0  0.21420  0.01581  0.63482  1.0000
  C   C78       1.0  0.30776  0.48573  0.98708  1.0000
  H   H130      1.0  0.06105  0.05375  0.73664  1.0000
  H   H131      1.0  0.17438  0.02887  0.54182  1.0000
  H   H132      1.0  0.29971  0.18305  0.97836  1.0000
  H   H133      1.0  0.02316  0.09334  0.62521  1.0000
  H   H134      1.0  0.07342  0.05523  0.68754  1.0000
  C   C79       1.0  0.16461  0.22339  0.49449  1.0000
  C   C80       1.0  0.02200  0.08043  0.70226  1.0000
  H   H135      1.0  0.25667  0.27461  0.98791  1.0000
  H   H136      1.0  0.01102  0.17017  0.70064  1.0000
  C   C81       1.0  0.28883  0.20935  0.98847  1.0000
  C   C82       1.0  0.20361  0.29402  0.98975  1.0000
  H   H137      1.0  0.16682  0.23243  0.98755  1.0000
  Fe  Fe12      1.0  0.12472  0.82907  0.31242  1.0000
  S   S20       1.0  0.17421  0.80794  0.33798  1.0000
  S   S21       1.0  0.07403  0.79929  0.30714  1.0000
  Fe  Fe13      1.0  0.15699  0.89910  0.29779  1.0000
  S   S22       1.0  0.20858  0.88373  0.32220  1.0000
  S   S23       1.0  0.14300  0.95039  0.27234  1.0000
  Fe  Fe14      1.0  0.20107  0.83102  0.28858  1.0000
  S   S24       1.0  0.24882  0.80850  0.25470  1.0000
  Fe  Fe15      1.0  0.17732  0.86214  0.36916  1.0000
  S   S25       1.0  0.18874  0.88164  0.43111  1.0000
  S   S26       1.0  0.15102  0.84808  0.26143  1.0000
  S   S27       1.0  0.12615  0.88137  0.34642  1.0000
  H   H138      1.0  0.30966  0.78687  0.21092  1.0000
  S   S28       1.0  0.26751  0.73059  0.08729  1.0000
  C   C83       1.0  0.03893  0.82480  0.29132  1.0000
  H   H139      1.0  0.31104  0.85990  0.16769  1.0000
  H   H140      1.0  0.06876  0.87236  0.29014  1.0000
  H   H141      1.0  0.21672  0.66670  0.06482  1.0000
  H   H142      1.0  0.18275  0.87086  0.17387  1.0000
  C   C84       1.0  0.06388  0.99820  0.31831  1.0000
  H   H143      1.0  0.25367  0.92919  0.27789  1.0000
  H   H144      1.0  0.20851  0.96248  0.31411  1.0000
  C   C85       1.0  0.26326  0.75279  0.13375  1.0000
  C   C86       1.0  0.29211  0.76285  0.15656  1.0000
  C   C87       1.0  0.28712  0.77948  0.19351  1.0000
  C   C88       1.0  0.25331  0.78651  0.20819  1.0000
  C   C89       1.0  0.22447  0.77686  0.18519  1.0000
  C   C90       1.0  0.22946  0.75999  0.14837  1.0000
  C   C91       1.0  0.00580  0.80974  0.28575  1.0000
  H   H145      1.0  0.03975  0.84699  0.37053  1.0000
  H   H146      1.0  0.19830  0.78215  0.19586  1.0000
  H   H147      1.0  0.20689  0.75243  0.13109  1.0000
  H   H148      1.0  0.29811  0.91728  0.28459  1.0000
  H   H149      1.0  0.05405  0.82322  0.45111  1.0000
  H   H150      1.0  0.00711  0.78047  0.40696  1.0000
  C   C92       1.0  0.22911  0.57734  0.06641  1.0000
  H   H151      1.0  0.16849  0.81018  0.44833  1.0000
  C   C93       1.0  0.04320  0.86069  0.28675  1.0000
  C   C94       1.0  0.01417  0.88173  0.27849  1.0000
  C   C95       1.0  0.24896  0.54906  0.08720  1.0000
  C   C96       1.0  0.27198  0.62583  0.07671  1.0000
  H   H152      1.0  0.24928  0.67137  0.13634  1.0000
  C   C97       1.0  0.18285  0.86121  0.47420  1.0000
  H   H153      1.0  0.27796  0.87330  0.23831  1.0000
  H   H154      1.0  0.31827  0.75751  0.14591  1.0000
  H   H155      1.0  0.27357  0.65485  0.07488  1.0000
  C   C98       1.0  0.22323  0.65952  0.13941  1.0000
  C   C99       1.0  0.22161  0.62107  0.12154  1.0000
  H   H156      1.0  0.20960  0.92151  0.23890  1.0000
  H   H157      1.0  0.18589  0.91741  0.16703  1.0000
  H   H158      1.0  0.07938  0.95738  0.35501  1.0000
  C   C100      1.0  0.20008  0.98689  0.30307  1.0000
  C   C101      1.0  0.18446  0.89781  0.18852  1.0000
  Fe  Fe16      1.0  0.30895  0.71294  0.04214  1.0000
  H   H159      1.0  0.24145  0.52256  0.07424  1.0000
  H   H160      1.0  0.32317  0.60801  0.09562  1.0000
  N   N8        1.0  0.23435  0.61535  0.08109  1.0000
  H   H161      1.0  0.23776  0.57275  0.03629  1.0000
  H   H162      1.0  0.28849  0.95299  0.25650  1.0000
  H   H163      1.0  0.20244  0.60749  0.00261  1.0000
  H   H164      1.0  0.20307  0.67659  0.12713  1.0000
  C   C102      1.0  0.21150  0.63812  0.05756  1.0000
  H   H165      1.0  0.20077  0.57076  0.06658  1.0000
  H   H166      1.0  0.21582  0.87554  0.23171  1.0000
  H   H167      1.0  0.21779  0.66005  0.17035  1.0000
  N   N9        1.0  0.25091  0.90495  0.19880  1.0000
  H   H168      1.0  0.27759  0.55074  0.08311  1.0000
  H   H169      1.0  0.23601  0.60462  0.14099  1.0000
  C   C103      1.0  0.27924  0.92676  0.26348  1.0000
  H   H170      1.0  0.19395  0.61245  0.12335  1.0000
  C   C104      1.0  0.25542  0.87563  0.16753  1.0000
  C   C105      1.0  0.23428  0.97196  0.20239  1.0000
  H   H171      1.0  0.28987  0.59633  0.12666  1.0000
  H   H172      1.0  0.20550  0.96951  0.19919  1.0000
  H   H173      1.0  0.24948  0.84962  0.17823  1.0000
  H   H174      1.0  0.15968  0.90276  0.20441  1.0000
  H   H175      1.0  0.18328  0.63453  0.06383  1.0000
  H   H176      1.0  0.28203  0.94762  0.18031  1.0000
  C   C106      1.0  0.05988  0.82547  0.42075  1.0000
  C   C107      1.0  0.17292  0.82593  0.47482  1.0000
  H   H177      1.0  0.24441  0.93846  0.15205  1.0000
  H   H178      1.0  0.04961  0.95637  0.25539  1.0000
  H   H179      1.0  0.29003  0.85396  0.12259  1.0000
  C   C108      1.0  0.21572  0.90014  0.21657  1.0000
  C   C109      1.0  0.21549  0.63208  0.01404  1.0000
  C   C110      1.0  0.25405  0.94012  0.18200  1.0000
  H   H180      1.0  0.28266  0.61384  0.04930  1.0000
  C   C111      1.0  0.03216  0.84763  0.40102  1.0000
  C   C112      1.0  0.29796  0.61716  0.10867  1.0000
  H   H181      1.0  0.24054  0.97620  0.23298  1.0000
  H   H182      1.0  0.23648  0.87873  0.14391  1.0000
  H   H183      1.0  0.06321  0.79884  0.40565  1.0000
  H   H184      1.0  0.30155  0.89780  0.14073  1.0000
  H   H185      1.0  0.03588  0.87540  0.41227  1.0000
  H   H186      1.0  0.30561  0.90222  0.21566  1.0000
  C   C113      1.0  0.27916  0.90025  0.22812  1.0000
  C   C114      1.0  0.29181  0.87213  0.14886  1.0000
  H   H187      1.0  0.01739  0.90953  0.27578  1.0000
  H   H188      1.0  0.24321  0.63117  0.00534  1.0000
  H   H189      1.0  0.08569  0.83850  0.41938  1.0000
  H   H190      1.0  0.20270  0.65426  0.00037  1.0000
  H   H191      1.0  0.24243  0.54970  0.11776  1.0000
  C   C115      1.0  0.02991  0.98922  0.21450  1.0000
  C   C116      1.0  0.16872  0.98822  0.28256  1.0000
  H   H192      1.0  0.30428  0.64148  0.12695  1.0000
  H   H193      1.0  0.04225  0.97250  0.19083  1.0000
  H   H194      1.0  0.00620  0.79441  0.36023  1.0000
  H   H195      1.0  0.24157  0.99643  0.18929  1.0000
  H   H196      1.0  0.00533  0.89048  0.46194  1.0000
  H   H197      1.0  0.00494  0.89956  0.36150  1.0000
  H   H198      1.0  0.07469  0.94086  0.30693  1.0000
  H   H199      1.0  0.03631  0.95116  0.33588  1.0000
  C   C117      1.0  0.05109  0.98489  0.25108  1.0000
  C   C118      1.0  0.06303  0.95962  0.32915  1.0000
  H   H200      1.0  0.07906  0.98968  0.24470  1.0000
  H   H201      1.0  0.00286  0.97941  0.21694  1.0000
  H   H202      1.0  0.00246  0.78184  0.28855  1.0000
  C   C119      1.0  0.33192  0.54977  0.02273  1.0000
  C   C120      1.0  0.00259  0.99966  0.29676  1.0000
  Fe  Fe17      1.0  0.17964  0.83813  0.64715  1.0000
  S   S29       1.0  0.16209  0.89413  0.65989  1.0000
  S   S30       1.0  0.17096  0.81051  0.58794  1.0000
  Fe  Fe18      1.0  0.19687  0.82822  0.73221  1.0000
  S   S31       1.0  0.17964  0.88395  0.75039  1.0000
  S   S32       1.0  0.20746  0.78574  0.77419  1.0000
  Fe  Fe19      1.0  0.13460  0.87473  0.70983  1.0000
  S   S33       1.0  0.08114  0.89804  0.72347  1.0000
  Fe  Fe20      1.0  0.20842  0.89893  0.69896  1.0000
  S   S34       1.0  0.23971  0.94911  0.70107  1.0000
  S   S35       1.0  0.14886  0.81811  0.69512  1.0000
  S   S36       1.0  0.22902  0.84372  0.68265  1.0000
  C   C121      1.0  0.07277  0.81187  0.57448  1.0000
  H   H203      1.0  0.15819  0.86939  0.82995  1.0000
  H   H204      1.0  0.15303  0.76487  0.87502  1.0000
  C   C122      1.0  0.29970  0.51818  0.97194  1.0000
  H   H205      1.0  0.09707  0.80276  0.62987  1.0000
  H   H206      1.0  0.10639  0.84668  0.77957  1.0000
  H   H207      1.0  0.05582  0.87297  0.79727  1.0000
  H   H208      1.0  0.11665  0.89052  0.82692  1.0000
  C   C123      1.0  0.01048  0.88944  0.71733  1.0000
  H   H209      1.0  0.12561  0.86047  0.86354  1.0000
  H   H210      1.0  0.16489  0.96080  0.70731  1.0000
  C   C124      1.0  0.23786  0.77981  0.81210  1.0000
  C   C125      1.0  0.23457  0.75011  0.83327  1.0000
  C   C126      1.0  0.25781  0.74409  0.86352  1.0000
  C   C127      1.0  0.28505  0.76756  0.87288  1.0000
  C   C128      1.0  0.28841  0.79723  0.85167  1.0000
  C   C129      1.0  0.26493  0.80345  0.82168  1.0000
  C   C130      1.0  0.06023  0.83041  0.83637  1.0000
  H   H211      1.0  0.14126  0.82040  0.79366  1.0000
  H   H212      1.0  0.01652  0.88055  0.60449  1.0000
  H   H213      1.0  0.26797  0.82638  0.80579  1.0000
  C   C131      1.0  0.18521  0.86611  0.54397  1.0000
  C   C132      1.0  0.17594  0.83067  0.54458  1.0000
  H   H214      1.0  0.02737  0.83564  0.78517  1.0000
  H   H215      1.0  0.19023  0.88174  0.57041  1.0000
  H   H216      1.0  0.10439  0.84648  0.51435  1.0000
  H   H217      1.0  0.30930  0.81564  0.85850  1.0000
  C   C133      1.0  0.04339  0.87279  0.71409  1.0000
  C   C134      1.0  0.04552  0.83642  0.70452  1.0000
  C   C135      1.0  0.01477  0.81676  0.69861  1.0000
  H   H218      1.0  0.07078  0.82342  0.70182  1.0000
  C   C136      1.0  0.03957  0.85238  0.80871  1.0000
  C   C137      1.0  0.07894  0.78446  0.78856  1.0000
  H   H219      1.0  0.05573  0.76989  0.79773  1.0000
  S   S37       1.0  0.29987  0.59059  0.96974  1.0000
  H   H220      1.0  0.03884  0.88841  0.54421  1.0000
  C   C138      1.0  0.07644  0.79156  0.61045  1.0000
  H   H221      1.0  0.16253  0.78329  0.50998  1.0000
  C   C139      1.0  0.12967  0.86537  0.83339  1.0000
  H   H222      1.0  0.08482  0.76399  0.60182  1.0000
  H   H223      1.0  0.09065  0.86038  0.63222  1.0000
  H   H224      1.0  0.09889  0.81035  0.56071  1.0000
  H   H225      1.0  0.11098  0.73639  0.79252  1.0000
  N   N10       1.0  0.09184  0.81011  0.82036  1.0000
  H   H226      1.0  0.15415  0.76551  0.82479  1.0000
  C   C140      1.0  0.10536  0.75649  0.77215  1.0000
  H   H227      1.0  0.06748  0.84893  0.86114  1.0000
  C   C141      1.0  0.18875  0.88119  0.50899  1.0000
  C   C142      1.0  0.16964  0.81075  0.50984  1.0000
  C   C143      1.0  0.17750  0.98615  0.70844  1.0000
  Fe  Fe21      1.0  0.32157  0.72215  0.95675  1.0000
  H   H228      1.0  0.12992  0.76831  0.76288  1.0000
  H   H229      1.0  0.06996  0.79879  0.76402  1.0000
  H   H230      1.0  0.10322  0.80575  0.88055  1.0000
  C   C144      1.0  0.14632  0.78110  0.85115  1.0000
  H   H231      1.0  0.25488  0.72104  0.87925  1.0000
  H   H232      1.0  0.00872  0.91757  0.72500  1.0000
  C   C145      1.0  0.10687  0.79042  0.85252  1.0000
  H   H233      1.0  0.09374  0.74217  0.74648  1.0000
  H   H234      1.0  0.21402  0.73141  0.82606  1.0000
  H   H235      1.0  0.10491  0.92518  0.61194  1.0000
  H   H236      1.0  0.16281  0.80497  0.85480  1.0000
  H   H237      1.0  0.09227  0.76554  0.85523  1.0000
  C   C146      1.0  0.11762  0.83484  0.80485  1.0000
  C   C147      1.0  0.18530  0.98465  0.59231  1.0000
  H   H238      1.0  0.01774  0.86646  0.82433  1.0000
  H   H239      1.0  0.04131  0.81196  0.84797  1.0000
  H   H240      1.0  0.05533  0.79627  0.55429  1.0000
  H   H241      1.0  0.03034  0.84652  0.63194  1.0000
  H   H242      1.0  0.18804  0.97381  0.56227  1.0000
  C   C148      1.0  0.07994  0.91051  0.61160  1.0000
  C   C149      1.0  0.08827  0.87072  0.51990  1.0000
  N   N11       1.0  0.06037  0.84975  0.58061  1.0000
  H   H243      1.0  0.28407  0.51831  0.94627  1.0000
  C   C150      1.0  0.21399  0.98793  0.70743  1.0000
  H   H244      1.0  0.06707  0.91595  0.63968  1.0000
  H   H245      1.0  0.11412  0.86664  0.59110  1.0000
  C   C151      1.0  0.05480  0.86368  0.54215  1.0000
  S   S38       1.0  0.31613  0.76086  0.90991  1.0000
  H   H246      1.0  0.08095  0.87985  0.49178  1.0000
  H   H247      1.0  0.18889  0.96202  0.61014  1.0000
  H   H248      1.0  0.10439  0.89181  0.53459  1.0000
  C   C152      1.0  0.02640  0.85277  0.60211  1.0000
  H   H249      1.0  0.06335  0.92182  0.58982  1.0000
  C   C153      1.0  0.08755  0.87052  0.60366  1.0000
  H   H250      1.0  0.05148  0.79009  0.62595  1.0000
  H   H251      1.0  0.01643  0.78856  0.69143  1.0000
  H   H252      1.0  0.19659  0.90843  0.50883  1.0000
  H   H253      1.0  0.03917  0.84478  0.52341  1.0000
  H   H254      1.0  0.15848  0.99492  0.59737  1.0000
  Fe  Fe22      1.0  0.31857  0.64700  0.98611  1.0000
  C   C154      1.0  0.31173  0.55040  0.98957  1.0000
  S   S39       1.0  0.28110  0.69354  0.98784  1.0000
  H   H255      1.0  0.23896  0.99863  0.59507  1.0000
  H   H256      1.0  0.00241  0.80111  0.58516  1.0000
  H   H257      1.0  0.46182  0.41329  0.05048  1.0000
  S   S40       1.0  0.59040  0.35309  0.02859  1.0000
  H   H258      1.0  0.37658  0.12061  0.25524  1.0000
  H   H259      1.0  0.39591  0.14172  0.21657  1.0000
  H   H260      1.0  0.43301  0.45168  0.05209  1.0000
  S   S41       1.0  0.36468  0.34829  0.05125  1.0000
  C   C155      1.0  0.54782  0.34015  0.01213  1.0000
  C   C156      1.0  0.51889  0.34794  0.03607  1.0000
  C   C157      1.0  0.48459  0.33858  0.02435  1.0000
  H   H261      1.0  0.37952  0.16813  0.25574  1.0000
  C   C158      1.0  0.43583  0.42340  0.04212  1.0000
  Fe  Fe23      1.0  0.38104  0.32635  0.99284  1.0000
  H   H262      1.0  0.52311  0.36108  0.06406  1.0000
  H   H263      1.0  0.46277  0.34443  0.04326  1.0000
  C   C159      1.0  0.37442  0.14356  0.23773  1.0000
  H   H264      1.0  0.46747  0.47975  0.01110  1.0000
  H   H265      1.0  0.40114  0.48287  0.00880  1.0000
  H   H266      1.0  0.33295  0.11536  0.20923  1.0000
  Fe  Fe24      1.0  0.64624  0.34646  0.00480  1.0000
  H   H267      1.0  0.41607  0.40916  0.05779  1.0000
  H   H268      1.0  0.34615  0.14837  0.30657  1.0000
  H   H269      1.0  0.49983  0.42637  0.00650  1.0000
  H   H270      1.0  0.66099  0.47621  0.99725  1.0000
  H   H271      1.0  0.35609  0.21300  0.20783  1.0000
  H   H272      1.0  0.33623  0.20278  0.27294  1.0000
  H   H273      1.0  0.34317  0.15404  0.18832  1.0000
  C   C160      1.0  0.33901  0.14366  0.21657  1.0000
  C   C161      1.0  0.42881  0.41625  0.99906  1.0000
  S   S42       1.0  0.33804  0.44520  0.04156  1.0000
  H   H274      1.0  0.33364  0.25019  0.23092  1.0000
  H   H275      1.0  0.43040  0.38711  0.99301  1.0000
  H   H276      1.0  0.40096  0.42323  0.99365  1.0000
  H   H277      1.0  0.40304  0.49021  0.95890  1.0000
  H   H278      1.0  0.46766  0.37758  0.91526  1.0000
  H   H279      1.0  0.50343  0.30027  0.93647  1.0000
  H   H280      1.0  0.45405  0.44421  0.91350  1.0000
  H   H281      1.0  0.56378  0.31667  0.95736  1.0000
  C   C162      1.0  0.44096  0.38927  0.91572  1.0000
  C   C163      1.0  0.47869  0.32146  0.98828  1.0000
  H   H282      1.0  0.42319  0.37236  0.93069  1.0000
  H   H283      1.0  0.43171  0.38825  0.88575  1.0000
  S   S43       1.0  0.35024  0.36590  0.96113  1.0000
  H   H284      1.0  0.51067  0.42290  0.91968  1.0000
  H   H285      1.0  0.41177  0.43642  0.93088  1.0000
  S   S44       1.0  0.43592  0.31026  0.97116  1.0000
  C   C164      1.0  0.50760  0.31360  0.96438  1.0000
  C   C165      1.0  0.43964  0.42793  0.93293  1.0000
  C   C166      1.0  0.51688  0.43171  0.94966  1.0000
  C   C167      1.0  0.54191  0.32292  0.97612  1.0000
  H   H286      1.0  0.65132  0.23254  0.65633  1.0000
  H   H287      1.0  0.46867  0.48710  0.96229  1.0000
  N   N12       1.0  0.45284  0.43434  0.97325  1.0000
  S   S45       1.0  0.33718  0.28706  0.98878  1.0000
  H   H288      1.0  0.52040  0.46069  0.95261  1.0000
  H   H289      1.0  0.54252  0.41941  0.95630  1.0000
  H   H290      1.0  0.48919  0.39030  0.97404  1.0000
  C   C168      1.0  0.48932  0.41955  0.97739  1.0000
  C   C169      1.0  0.45355  0.47362  0.98358  1.0000
  C   C170      1.0  0.41757  0.49254  0.98625  1.0000
  C   C171      1.0  0.57434  0.71206  0.10049  1.0000
  H   H291      1.0  0.53700  0.69369  0.05701  1.0000
  H   H292      1.0  0.55078  0.65177  0.13770  1.0000
  H   H293      1.0  0.59321  0.59878  0.01323  1.0000
  Fe  Fe25      1.0  0.64082  0.73045  0.99287  1.0000
  H   H294      1.0  0.53429  0.61333  0.11326  1.0000
  S   S46       1.0  0.34445  0.66476  0.04141  1.0000
  H   H295      1.0  0.48764  0.65016  0.08153  1.0000
  C   C172      1.0  0.56271  0.68488  0.06804  1.0000
  H   H296      1.0  0.63171  0.59109  0.09968  1.0000
  H   H297      1.0  0.58083  0.68835  0.04418  1.0000
  H   H298      1.0  0.56249  0.73821  0.09573  1.0000
  H   H299      1.0  0.59056  0.59227  0.12357  1.0000
  H   H300      1.0  0.59344  0.57792  0.07344  1.0000
  H   H301      1.0  0.51975  0.78267  0.01958  1.0000
  C   C173      1.0  0.53849  0.64191  0.11026  1.0000
  Fe  Fe26      1.0  0.38135  0.69428  0.00568  1.0000
  H   H302      1.0  0.56533  0.70595  0.12887  1.0000
  C   C174      1.0  0.60334  0.59694  0.09633  1.0000
  H   H303      1.0  0.61727  0.64027  0.06354  1.0000
  S   S47       1.0  0.44007  0.68107  0.00851  1.0000
  C   C175      1.0  0.48317  0.73974  0.01159  1.0000
  C   C176      1.0  0.59885  0.63568  0.08690  1.0000
  H   H304      1.0  0.48578  0.65136  0.13220  1.0000
  H   H305      1.0  0.60323  0.71461  0.10130  1.0000
  S   S48       1.0  0.58638  0.75653  0.99177  1.0000
  N   N13       1.0  0.56216  0.64681  0.07711  1.0000
  H   H306      1.0  0.60892  0.65224  0.11200  1.0000
  C   C177      1.0  0.51608  0.75562  0.00828  1.0000
  H   H307      1.0  0.46199  0.75435  0.02596  1.0000
  H   H308      1.0  0.58651  0.64361  0.00181  1.0000
  H   H309      1.0  0.52372  0.63679  0.03231  1.0000
  C   C178      1.0  0.50176  0.65905  0.10809  1.0000
  S   S49       1.0  0.34810  0.74417  0.01111  1.0000
  H   H310      1.0  0.50295  0.68831  0.11071  1.0000
  C   C179      1.0  0.54473  0.73628  0.99222  1.0000
  C   C180      1.0  0.54826  0.62485  0.04283  1.0000
  C   C181      1.0  0.57313  0.61925  0.00850  1.0000
  H   H311      1.0  0.54054  0.59813  0.05028  1.0000
  H   H312      1.0  0.34169  0.57420  0.03641  1.0000
  C   C182      1.0  0.47843  0.70441  0.99832  1.0000
  C   C183      1.0  0.66534  0.86771  0.21797  1.0000
  S   S50       1.0  0.65921  0.70406  0.04425  1.0000
  H   H313      1.0  0.63667  0.86386  0.22006  1.0000
  C   C184      1.0  0.33931  0.51742  0.03835  1.0000
  H   H314      1.0  0.35464  0.51732  0.06421  1.0000
  H   H315      1.0  0.65951  0.88019  0.27862  1.0000
  H   H316      1.0  0.63669  0.53739  0.00144  1.0000
  C   C185      1.0  0.66473  0.53330  0.00119  1.0000
  H   H317      1.0  0.41268  0.79413  0.99332  1.0000
  H   H318      1.0  0.42146  0.52118  0.99387  1.0000
  H   H319      1.0  0.37430  0.76643  0.83324  1.0000
  N   N14       1.0  0.42370  0.75971  0.89851  1.0000
  C   C186      1.0  0.42250  0.79603  0.96399  1.0000
  H   H320      1.0  0.41988  0.81493  0.88667  1.0000
  S   S51       1.0  0.35674  0.67406  0.95022  1.0000
  C   C187      1.0  0.40478  0.79009  0.88164  1.0000
  H   H321      1.0  0.50314  0.65841  0.96984  1.0000
  H   H322      1.0  0.47720  0.78511  0.84202  1.0000
  C   C188      1.0  0.47824  0.75955  0.85520  1.0000
  H   H323      1.0  0.38549  0.81137  0.82997  1.0000
  C   C189      1.0  0.50659  0.68566  0.98050  1.0000
  H   H324      1.0  0.41850  0.77812  0.82085  1.0000
  H   H325      1.0  0.40911  0.81913  0.95289  1.0000
  H   H326      1.0  0.47711  0.74522  0.91359  1.0000
  C   C190      1.0  0.41119  0.72462  0.88052  1.0000
  H   H327      1.0  0.56099  0.68673  0.96374  1.0000
  H   H328      1.0  0.65740  0.55857  0.88302  1.0000
  H   H329      1.0  0.42898  0.68861  0.92358  1.0000
  C   C191      1.0  0.46276  0.76347  0.89556  1.0000
  H   H330      1.0  0.37922  0.79585  0.89599  1.0000
  H   H331      1.0  0.47098  0.79000  0.90778  1.0000
  H   H332      1.0  0.46548  0.73901  0.83611  1.0000
  C   C192      1.0  0.39568  0.78578  0.83888  1.0000
  C   C193      1.0  0.53951  0.70149  0.97732  1.0000
  H   H333      1.0  0.45880  0.69138  0.88439  1.0000
  H   H334      1.0  0.45102  0.80071  0.96662  1.0000
  H   H335      1.0  0.50599  0.75070  0.85695  1.0000
  C   C194      1.0  0.41445  0.76113  0.94013  1.0000
  H   H336      1.0  0.41888  0.66771  0.87807  1.0000
  H   H337      1.0  0.38606  0.75613  0.94339  1.0000
  H   H338      1.0  0.42822  0.74009  0.95456  1.0000
  H   H339      1.0  0.41291  0.72282  0.84911  1.0000
  H   H340      1.0  0.38279  0.72143  0.88630  1.0000
  C   C195      1.0  0.43089  0.69161  0.89274  1.0000
  H   H341      1.0  0.55795  0.60960  0.98288  1.0000
  S   S52       1.0  0.66361  0.68938  0.95005  1.0000
  Fe  Fe27      1.0  0.85237  0.15229  0.29440  1.0000
  S   S53       1.0  0.80138  0.17849  0.31287  1.0000
  S   S54       1.0  0.86433  0.09585  0.27248  1.0000
  Fe  Fe28      1.0  0.89268  0.22027  0.30412  1.0000
  S   S55       1.0  0.84478  0.25193  0.32211  1.0000
  S   S56       1.0  0.94545  0.24652  0.30728  1.0000
  Fe  Fe29      1.0  0.83367  0.20767  0.35908  1.0000
  S   S57       1.0  0.82406  0.22779  0.42115  1.0000
  Fe  Fe30      1.0  0.81664  0.22082  0.27428  1.0000
  S   S58       1.0  0.77360  0.24329  0.23625  1.0000
  S   S59       1.0  0.88321  0.17795  0.34312  1.0000
  S   S60       1.0  0.86582  0.19261  0.25352  1.0000
  H   H342      1.0  0.71690  0.18061  0.25048  1.0000
  H   H343      1.0  0.94631  0.16414  0.39422  1.0000
  H   H344      1.0  0.72325  0.35734  0.11458  1.0000
  C   C196      1.0  0.80083  0.03263  0.32851  1.0000
  Fe  Fe31      1.0  0.72054  0.32490  0.03206  1.0000
  S   S61       1.0  0.76262  0.29948  0.06918  1.0000
  H   H345      1.0  0.77875  0.16912  0.23485  1.0000
  C   C197      1.0  0.74050  0.41074  0.13661  1.0000
  H   H346      1.0  0.77818  0.03543  0.34677  1.0000
  H   H347      1.0  0.69821  0.11889  0.16656  1.0000
  H   H348      1.0  0.75063  0.41604  0.06275  1.0000
  H   H349      1.0  0.95320  0.17463  0.27302  1.0000
  C   C198      1.0  0.77138  0.25894  0.18973  1.0000
  C   C199      1.0  0.80093  0.26157  0.16693  1.0000
  C   C200      1.0  0.79765  0.27409  0.13037  1.0000
  C   C201      1.0  0.76486  0.28406  0.11582  1.0000
  C   C202      1.0  0.73533  0.28142  0.13860  1.0000
  C   C203      1.0  0.73863  0.26901  0.17522  1.0000
  H   H350      1.0  0.82636  0.25421  0.17760  1.0000
  H   H351      1.0  0.82083  0.27631  0.11341  1.0000
  H   H352      1.0  0.70987  0.28882  0.12804  1.0000
  H   H353      1.0  0.71553  0.26719  0.19249  1.0000
  H   H354      1.0  0.75141  0.17226  0.19449  1.0000
  C   C204      1.0  0.82016  0.20653  0.46400  1.0000
  H   H355      1.0  0.79384  0.21988  0.03347  1.0000
  H   H356      1.0  0.80493  0.27690  0.00053  1.0000
  H   H357      1.0  0.71140  0.08222  0.19327  1.0000
  H   H358      1.0  0.84682  0.15855  0.16038  1.0000
  C   C205      1.0  0.84572  0.05926  0.29207  1.0000
  C   C206      1.0  0.81676  0.06288  0.31619  1.0000
  C   C207      1.0  0.91504  0.17283  0.47183  1.0000
  H   H359      1.0  0.80632  0.08886  0.32484  1.0000
  H   H360      1.0  0.83817  0.20630  0.02059  1.0000
  H   H361      1.0  0.99202  0.15341  0.39799  1.0000
  H   H362      1.0  0.69793  0.37751  0.15269  1.0000
  H   H363      1.0  0.77783  0.47087  0.06932  1.0000
  N   N15       1.0  0.94643  0.22537  0.44345  1.0000
  H   H364      1.0  0.82342  0.10213  0.17500  1.0000
  H   H365      1.0  0.96235  0.04168  0.29603  1.0000
  H   H366      1.0  0.73398  0.14259  0.27073  1.0000
  C   C208      1.0  0.80831  0.17188  0.46475  1.0000
  C   C209      1.0  0.97894  0.18498  0.27974  1.0000
  C   C210      1.0  0.72500  0.37406  0.14163  1.0000
  H   H367      1.0  0.96638  0.25698  0.39976  1.0000
  S   S62       1.0  0.67923  0.29664  0.99571  1.0000
  C   C211      1.0  0.71463  0.49260  0.99800  1.0000
  H   H368      1.0  0.76939  0.08621  0.14731  1.0000
  H   H369      1.0  0.82997  0.24555  0.05037  1.0000
  C   C212      1.0  0.97277  0.17554  0.39784  1.0000
  H   H370      1.0  0.81635  0.37211  0.04911  1.0000
  H   H371      1.0  0.72071  0.42519  0.12031  1.0000
  C   C213      1.0  0.81144  0.12608  0.19013  1.0000
  C   C214      1.0  0.81982  0.22906  0.02537  1.0000
  H   H372      1.0  0.78894  0.10270  0.25464  1.0000
  H   H373      1.0  0.80197  0.15671  0.43838  1.0000
  C   C215      1.0  0.81820  0.15683  0.16509  1.0000
  H   H374      1.0  0.88136  0.02247  0.26232  1.0000
  H   H375      1.0  0.98030  0.26617  0.46876  1.0000
  N   N16       1.0  0.77579  0.41095  0.11762  1.0000
  C   C216      1.0  0.75471  0.10773  0.16389  1.0000
  C   C217      1.0  0.80101  0.38550  0.13421  1.0000
  H   H376      1.0  0.93192  0.22837  0.38427  1.0000
  H   H377      1.0  0.89513  0.22581  0.46907  1.0000
  C   C218      1.0  0.85907  0.02544  0.28110  1.0000
  H   H378      1.0  0.82500  0.37061  0.18667  1.0000
  H   H379      1.0  0.82432  0.41816  0.06192  1.0000
  H   H380      1.0  0.73995  0.35955  0.16257  1.0000
  H   H381      1.0  0.74119  0.42518  0.16535  1.0000
  C   C219      1.0  0.97634  0.19973  0.43499  1.0000
  H   H382      1.0  0.74039  0.23852  0.01138  1.0000
  H   H383      1.0  0.78830  0.45802  0.15384  1.0000
  H   H384      1.0  0.79211  0.35776  0.12844  1.0000
  H   H385      1.0  0.82692  0.38600  0.12009  1.0000
  N   N17       1.0  0.77370  0.11997  0.20004  1.0000
  C   C220      1.0  0.97302  0.01957  0.27679  1.0000
  H   H386      1.0  0.75367  0.12922  0.14429  1.0000
  H   H387      1.0  0.74338  0.47661  0.10429  1.0000
  H   H388      1.0  0.78504  0.03804  0.23838  1.0000
  H   H389      1.0  0.81866  0.44817  0.11724  1.0000
  C   C221      1.0  0.91428  0.27665  0.41294  1.0000
  H   H390      1.0  0.77438  0.04411  0.19003  1.0000
  C   C222      1.0  0.98240  0.21929  0.29685  1.0000
  S   S63       1.0  0.68636  0.37320  0.04466  1.0000
  C   C223      1.0  0.77104  0.39985  0.07600  1.0000
  H   H391      1.0  0.89745  0.20057  0.42505  1.0000
  C   C224      1.0  0.80812  0.39232  0.17725  1.0000
  H   H392      1.0  0.82243  0.41732  0.18385  1.0000
  H   H393      1.0  0.82733  0.13145  0.21647  1.0000
  H   H394      1.0  0.81693  0.05661  0.20986  1.0000
  C   C225      1.0  0.72664  0.15319  0.24332  1.0000
  H   H395      1.0  0.74721  0.08843  0.24003  1.0000
  H   H396      1.0  0.92500  0.29994  0.42993  1.0000
  H   H397      1.0  0.97879  0.19011  0.37266  1.0000
  H   H398      1.0  0.76039  0.37286  0.07211  1.0000
  H   H399      1.0  0.90818  0.28523  0.38422  1.0000
  C   C226      1.0  0.78842  0.05601  0.21537  1.0000
  C   C227      1.0  0.77370  0.09284  0.22899  1.0000
  C   C228      1.0  0.75863  0.15460  0.21709  1.0000
  H   H400      1.0  0.88928  0.26878  0.42532  1.0000
  H   H401      1.0  0.80570  0.15267  0.13670  1.0000
  C   C229      1.0  0.94117  0.24596  0.40892  1.0000
  H   H402      1.0  0.70472  0.13802  0.23003  1.0000
  H   H403      1.0  0.71017  0.07641  0.14346  1.0000
  H   H404      1.0  0.78393  0.39269  0.19438  1.0000
  C   C230      1.0  0.71650  0.09602  0.16755  1.0000
  C   C231      1.0  0.79018  0.44782  0.12342  1.0000
  C   C232      1.0  0.95666  0.25132  0.47622  1.0000
  C   C233      1.0  0.91257  0.20738  0.45166  1.0000
  H   H405      1.0  0.93567  0.27148  0.48233  1.0000
  H   H406      1.0  0.97990  0.02950  0.24931  1.0000
  H   H407      1.0  0.80989  0.18275  0.17911  1.0000
  H   H408      1.0  0.79729  0.40617  0.02230  1.0000
  H   H409      1.0  0.92561  0.15069  0.45274  1.0000
  C   C234      1.0  0.77210  0.47563  0.10014  1.0000
  C   C235      1.0  0.80434  0.39898  0.05132  1.0000
  H   H410      1.0  0.98065  0.18232  0.45837  1.0000
  C   C236      1.0  0.67843  0.49849  0.99875  1.0000
  H   H411      1.0  0.88824  0.16520  0.47974  1.0000
  H   H412      1.0  0.99868  0.00619  0.32782  1.0000
  H   H413      1.0  0.95071  0.00135  0.27095  1.0000
  S   S64       1.0  0.73355  0.44925  0.99442  1.0000
  Fe  Fe32      1.0  0.70811  0.39452  0.99228  1.0000
  Fe  Fe33      1.0  0.87807  0.13854  0.68995  1.0000
  S   S65       1.0  0.82194  0.15770  0.68973  1.0000
  S   S66       1.0  0.90523  0.08664  0.69965  1.0000
  Fe  Fe34      1.0  0.90537  0.20385  0.65520  1.0000
  S   S67       1.0  0.85190  0.22868  0.65247  1.0000
  S   S68       1.0  0.95286  0.22106  0.62393  1.0000
  Fe  Fe35      1.0  0.84394  0.21077  0.71164  1.0000
  S   S69       1.0  0.82306  0.25294  0.75720  1.0000
  Fe  Fe36      1.0  0.83375  0.17464  0.63112  1.0000
  S   S70       1.0  0.80096  0.15940  0.57841  1.0000
  S   S71       1.0  0.89964  0.19011  0.71549  1.0000
  S   S72       1.0  0.88733  0.15130  0.63017  1.0000
  Fe  Fe37      1.0  0.70253  0.32196  0.94572  1.0000
  S   S73       1.0  0.71124  0.28364  0.89203  1.0000
  H   H414      1.0  0.76500  0.29623  0.72855  1.0000
  H   H415      1.0  0.97491  0.25724  0.53481  1.0000
  H   H416      1.0  0.81150  0.05232  0.57043  1.0000
  H   H417      1.0  0.81066  0.06496  0.62129  1.0000
  H   H418      1.0  0.96921  0.24782  0.70144  1.0000
  H   H419      1.0  0.75163  0.22899  0.56400  1.0000
  C   C237      1.0  0.79220  0.26025  0.79515  1.0000
  C   C238      1.0  0.76830  0.23469  0.80438  1.0000
  C   C239      1.0  0.74383  0.24240  0.83396  1.0000
  C   C240      1.0  0.74299  0.27557  0.85508  1.0000
  C   C241      1.0  0.76697  0.30104  0.84589  1.0000
  C   C242      1.0  0.79129  0.29341  0.81620  1.0000
  H   H420      1.0  0.76847  0.20908  0.78859  1.0000
  H   H421      1.0  0.72532  0.22248  0.84051  1.0000
  H   H422      1.0  0.76650  0.32683  0.86131  1.0000
  H   H423      1.0  0.80943  0.31354  0.80931  1.0000
  H   H424      1.0  0.78951  0.27718  0.66562  1.0000
  C   C243      1.0  0.96399  0.23609  0.51469  1.0000
  C   C244      1.0  0.81081  0.17693  0.53453  1.0000
  C   C245      1.0  0.82395  0.21103  0.53363  1.0000
  C   C246      1.0  0.73144  0.19249  0.69621  1.0000
  H   H425      1.0  0.81162  0.02375  0.76061  1.0000
  H   H426      1.0  0.82988  0.22645  0.55996  1.0000
  H   H427      1.0  0.92574  0.01416  0.69465  1.0000
  C   C247      1.0  0.74217  0.22197  0.98399  1.0000
  H   H428      1.0  0.78688  0.30420  0.92606  1.0000
  C   C248      1.0  0.88390  0.04935  0.71449  1.0000
  C   C249      1.0  0.85154  0.05196  0.73284  1.0000
  H   H429      1.0  0.69758  0.28350  0.64565  1.0000
  H   H430      1.0  0.83864  0.07740  0.73773  1.0000
  C   C250      1.0  0.70152  0.25914  0.66083  1.0000
  H   H431      1.0  0.75570  0.29995  0.64248  1.0000
  H   H432      1.0  0.80447  0.18154  0.97155  1.0000
  H   H433      1.0  0.95669  0.15541  0.66806  1.0000
  H   H434      1.0  0.84176  0.19421  0.94723  1.0000
  H   H435      1.0  0.74189  0.17969  0.72121  1.0000
  H   H436      1.0  0.73773  0.17434  0.67093  1.0000
  H   H437      1.0  0.76786  0.33287  0.70078  1.0000
  H   H438      1.0  0.80647  0.14912  0.91040  1.0000
  H   H439      1.0  0.73901  0.20361  0.62023  1.0000
  N   N18       1.0  0.73997  0.24963  0.66176  1.0000
  H   H440      1.0  0.70279  0.19511  0.70039  1.0000
  C   C251      1.0  0.83638  0.02161  0.74588  1.0000
  H   H441      1.0  0.79262  0.13113  0.50027  1.0000
  C   C252      1.0  0.99265  0.22709  0.64887  1.0000
  H   H442      1.0  0.68590  0.20368  0.64027  1.0000
  C   C253      1.0  0.81693  0.25408  0.92189  1.0000
  H   H443      1.0  0.98348  0.21426  0.51294  1.0000
  H   H444      1.0  0.76922  0.17779  0.91024  1.0000
  C   C254      1.0  0.97946  0.13724  0.66392  1.0000
  H   H445      1.0  0.83669  0.25286  0.49846  1.0000
  H   H446      1.0  0.84509  0.24707  0.91735  1.0000
  H   H447      1.0  0.78035  0.22171  0.62840  1.0000
  C   C255      1.0  0.82764  0.05807  0.59635  1.0000
  C   C256      1.0  0.76089  0.28325  0.66642  1.0000
  H   H448      1.0  0.80880  0.18766  0.88517  1.0000
  H   H449      1.0  0.75225  0.19542  0.98904  1.0000
  H   H450      1.0  0.82851  0.30688  0.95097  1.0000
  C   C257      1.0  0.82781  0.22596  0.49866  1.0000
  C   C258      1.0  0.90058  0.01628  0.70856  1.0000
  H   H451      1.0  0.84277  0.08220  0.59198  1.0000
  H   H452      1.0  0.80337  0.24565  0.89470  1.0000
  H   H453      1.0  0.72286  0.26172  0.58655  1.0000
  H   H454      1.0  0.77741  0.22449  0.69720  1.0000
  C   C259      1.0  0.75231  0.22922  0.62572  1.0000
  C   C260      1.0  0.81440  0.29482  0.92573  1.0000
  H   H455      1.0  0.76979  0.26804  0.58709  1.0000
  C   C261      1.0  0.74864  0.24852  0.58905  1.0000
  H   H456      1.0  0.82670  0.00941  0.66564  1.0000
  H   H457      1.0  0.84633  0.25873  0.98622  1.0000
  H   H458      1.0  0.82666  0.30503  0.90041  1.0000
  H   H459      1.0  0.75648  0.26919  0.96023  1.0000
  H   H460      1.0  0.93065  0.17523  0.49832  1.0000
  H   H461      1.0  0.72596  0.31400  0.70723  1.0000
  C   C262      1.0  0.79822  0.17730  0.91121  1.0000
  C   C263      1.0  0.75407  0.30755  0.70296  1.0000
  C   C264      1.0  0.99344  0.24123  0.68671  1.0000
  H   H462      1.0  0.98592  0.13984  0.72468  1.0000
  C   C265      1.0  0.85341  0.02765  0.60325  1.0000
  C   C266      1.0  0.74862  0.22881  0.69529  1.0000
  H   H463      1.0  0.74096  0.24364  0.72249  1.0000
  H   H464      1.0  0.86870  0.03585  0.62948  1.0000
  H   H465      1.0  0.93943  0.22790  0.52789  1.0000
  H   H466      1.0  0.99300  0.14506  0.63826  1.0000
  C   C267      1.0  0.81269  0.19698  0.94792  1.0000
  N   N19       1.0  0.80237  0.23543  0.95452  1.0000
  S   S74       1.0  0.66670  0.37020  0.95265  1.0000
  H   H467      1.0  0.96872  0.11033  0.65913  1.0000
  H   H468      1.0  0.87275  0.02699  0.57997  1.0000
  H   H469      1.0  0.75169  0.23369  0.92615  1.0000
  C   C268      1.0  0.67668  0.23137  0.64102  1.0000
  H   H470      1.0  0.71519  0.21752  0.97281  1.0000
  C   C269      1.0  0.76326  0.24074  0.95469  1.0000
  H   H471      1.0  0.78999  0.01260  0.63499  1.0000
  S   S75       1.0  0.74506  0.34790  0.98172  1.0000
  H   H472      1.0  0.69166  0.26575  0.69024  1.0000
  H   H473      1.0  0.67029  0.23805  0.61167  1.0000
  C   C270      1.0  0.80303  0.15743  0.49992  1.0000
  C   C271      1.0  0.81857  0.25165  0.99097  1.0000
  Fe  Fe38      1.0  0.89359  0.87829  0.29466  1.0000
  S   S76       1.0  0.88073  0.82481  0.31307  1.0000
  S   S77       1.0  0.94451  0.89540  0.27009  1.0000
  Fe  Fe39      1.0  0.82542  0.91070  0.32383  1.0000
  S   S78       1.0  0.80694  0.85968  0.34486  1.0000
  S   S79       1.0  0.79334  0.96111  0.33205  1.0000
  Fe  Fe40      1.0  0.86170  0.85420  0.36744  1.0000
  S   S80       1.0  0.88119  0.83606  0.42420  1.0000
  Fe  Fe41      1.0  0.82701  0.83462  0.28859  1.0000
  S   S81       1.0  0.79466  0.79078  0.25686  1.0000
  S   S82       1.0  0.87851  0.90694  0.35033  1.0000
  S   S83       1.0  0.84142  0.88635  0.26635  1.0000
  H   H474      1.0  0.97031  0.84661  0.35047  1.0000
  Fe  Fe42      1.0  0.70907  0.73497  0.04136  1.0000
  S   S84       1.0  0.73826  0.77265  0.08481  1.0000
  S   S85       1.0  0.73528  0.69255  0.00252  1.0000
  H   H475      1.0  0.98241  0.91217  0.40568  1.0000
  H   H476      1.0  0.67175  0.81007  0.26188  1.0000
  H   H477      1.0  0.95786  0.88998  0.45944  1.0000
  H   H478      1.0  0.76647  0.86019  0.24671  1.0000
  C   C272      1.0  0.83264  0.86992  0.47353  1.0000
  C   C273      1.0  0.68690  0.56274  0.00291  1.0000
  H   H479      1.0  0.95107  0.81930  0.27427  1.0000
  C   C274      1.0  0.72311  0.55689  0.00257  1.0000
  H   H480      1.0  0.95950  0.90990  0.36135  1.0000
  H   H481      1.0  0.73257  0.84811  0.21477  1.0000
  H   H482      1.0  0.85422  0.96938  0.28543  1.0000
  H   H483      1.0  0.95830  0.75496  0.36950  1.0000
  C   C275      1.0  0.78148  0.78484  0.20811  1.0000
  C   C276      1.0  0.78933  0.80930  0.18193  1.0000
  C   C277      1.0  0.77598  0.80491  0.14444  1.0000
  C   C278      1.0  0.75515  0.77575  0.13226  1.0000
  C   C279      1.0  0.74785  0.75091  0.15823  1.0000
  C   C280      1.0  0.76087  0.75552  0.19589  1.0000
  H   H484      1.0  0.80540  0.83179  0.19062  1.0000
  H   H485      1.0  0.78198  0.82421  0.12460  1.0000
  H   H486      1.0  0.73195  0.72834  0.14940  1.0000
  H   H487      1.0  0.75468  0.73636  0.21581  1.0000
  C   C281      1.0  0.74762  0.90223  0.21469  1.0000
  C   C282      1.0  0.74063  0.86931  0.23623  1.0000
  H   H488      1.0  0.76490  0.92099  0.23151  1.0000
  H   H489      1.0  0.75749  0.89818  0.30273  1.0000
  H   H490      1.0  0.82036  0.87965  0.44866  1.0000
  N   N20       1.0  0.99465  0.83620  0.40406  1.0000
  H   H491      1.0  0.94196  0.78097  0.40994  1.0000
  H   H492      1.0  0.71425  0.80128  0.23997  1.0000
  H   H493      1.0  0.69757  0.84481  0.31502  1.0000
  H   H494      1.0  0.74106  0.83474  0.29988  1.0000
  C   C283      1.0  0.98226  0.83819  0.44463  1.0000
  C   C284      1.0  0.95585  0.78244  0.38265  1.0000
  Fe  Fe43      1.0  0.68396  0.66367  0.00154  1.0000
  C   C285      1.0  0.67898  0.88517  0.25638  1.0000
  C   C286      1.0  0.97669  0.83090  0.27770  1.0000
  H   H495      1.0  0.95476  0.82915  0.44568  1.0000
  H   H496      1.0  0.99734  0.97086  0.29165  1.0000
  C   C287      1.0  0.98041  0.89713  0.37766  1.0000
  H   H497      1.0  0.72319  0.91594  0.20699  1.0000
  N   N21       1.0  0.71520  0.87451  0.26877  1.0000
  H   H498      1.0  0.67789  0.91417  0.25352  1.0000
  C   C288      1.0  0.72955  0.90356  0.29609  1.0000
  C   C289      1.0  0.71038  0.91048  0.33439  1.0000
  C   C290      1.0  0.70031  0.80790  0.26699  1.0000
  H   H499      1.0  0.76175  0.89394  0.18795  1.0000
  H   H500      1.0  0.71687  0.88980  0.35388  1.0000
  C   C291      1.0  0.81426  0.99879  0.31747  1.0000
  H   H501      1.0  0.94344  0.85736  0.39008  1.0000
  H   H502      1.0  0.72938  0.92930  0.28309  1.0000
  S   S86       1.0  0.66764  0.60589  0.00456  1.0000
  H   H503      1.0  0.93935  0.79702  0.36311  1.0000
  C   C292      1.0  0.71436  0.84125  0.28939  1.0000
  H   H504      1.0  0.78233  0.50220  0.10944  1.0000
  C   C293      1.0  0.86253  0.84838  0.46941  1.0000
  C   C294      1.0  0.98074  0.86717  0.27514  1.0000
  H   H505      1.0  0.76486  0.51789  0.99965  1.0000
  H   H506      1.0  0.68168  0.91292  0.33084  1.0000
  H   H507      1.0  0.74056  0.57915  0.00444  1.0000
  H   H508      1.0  0.71970  0.93578  0.34882  1.0000
  C   C295      1.0  0.73682  0.52206  0.00002  1.0000
  C   C296      1.0  0.97101  0.85802  0.38033  1.0000
  C   C297      1.0  0.84366  0.99533  0.29407  1.0000
  H   H509      1.0  0.70451  0.78503  0.28429  1.0000
  C   C298      1.0  0.98179  0.87489  0.46659  1.0000
  H   H510      1.0  0.67675  0.84156  0.20892  1.0000
  S   S87       1.0  0.68882  0.76444  0.99264  1.0000
  H   H511      1.0  0.66866  0.88564  0.19494  1.0000
  C   C299      1.0  0.99286  0.79807  0.38825  1.0000
  H   H512      1.0  0.99651  0.81927  0.46175  1.0000
  Fe  Fe44      1.0  0.83351  0.86012  0.64472  1.0000
  S   S88       1.0  0.88015  0.88760  0.67179  1.0000
  S   S89       1.0  0.81370  0.87641  0.58742  1.0000
  Fe  Fe45      1.0  0.81524  0.82424  0.71938  1.0000
  S   S90       1.0  0.86141  0.84908  0.75033  1.0000
  S   S91       1.0  0.77073  0.79540  0.74742  1.0000
  Fe  Fe46      1.0  0.84610  0.89863  0.72317  1.0000
  S   S92       1.0  0.83372  0.95082  0.75621  1.0000
  Fe  Fe47      1.0  0.89092  0.83548  0.69591  1.0000
  S   S93       1.0  0.94395  0.80817  0.69314  1.0000
  S   S94       1.0  0.79870  0.87469  0.69479  1.0000
  S   S95       1.0  0.84571  0.80698  0.66605  1.0000
  H   H513      1.0  0.75718  0.87084  0.76363  1.0000
  H   H514      1.0  0.87250  0.96701  0.64518  1.0000
  Fe  Fe48      1.0  0.71325  0.72143  0.95387  1.0000
  H   H515      1.0  0.76338  0.84831  0.87985  1.0000
  S   S96       1.0  0.75515  0.73269  0.90991  1.0000
  H   H516      1.0  0.70224  0.54466  0.88130  1.0000
  H   H517      1.0  0.81436  0.97901  0.51079  1.0000
  H   H518      1.0  0.77854  0.62787  0.96745  1.0000
  H   H519      1.0  0.80050  0.62332  0.86420  1.0000
  H   H520      1.0  0.74468  0.84011  0.83432  1.0000
  C   C300      1.0  0.98184  0.83348  0.70156  1.0000
  C   C301      1.0  0.80371  0.87276  0.82425  1.0000
  H   H521      1.0  0.95447  0.88294  0.71342  1.0000
  H   H522      1.0  0.75842  0.56346  0.87413  1.0000
  C   C302      1.0  0.81818  0.87833  0.50987  1.0000
  H   H523      1.0  0.97282  0.83461  0.60356  1.0000
  C   C303      1.0  0.79851  0.96117  0.65403  1.0000
  C   C304      1.0  0.73247  0.65057  0.86970  1.0000
  H   H524      1.0  0.89830  0.96059  0.71638  1.0000
  H   H525      1.0  0.81946  0.94363  0.66386  1.0000
  C   C305      1.0  0.76691  0.77870  0.79307  1.0000
  C   C306      1.0  0.73357  0.76997  0.80610  1.0000
  C   C307      1.0  0.72918  0.75703  0.84222  1.0000
  C   C308      1.0  0.75828  0.75179  0.86547  1.0000
  C   C309      1.0  0.79158  0.76049  0.85240  1.0000
  C   C310      1.0  0.79587  0.77415  0.81669  1.0000
  H   H526      1.0  0.71094  0.77337  0.78813  1.0000
  H   H527      1.0  0.70341  0.75038  0.85166  1.0000
  H   H528      1.0  0.81433  0.75640  0.86998  1.0000
  H   H529      1.0  0.82170  0.78046  0.80708  1.0000
  C   C311      1.0  0.86375  0.84450  0.53847  1.0000
  C   C312      1.0  0.83346  0.86549  0.54248  1.0000
  H   H530      1.0  0.80911  0.57894  0.84701  1.0000
  H   H531      1.0  0.87570  0.83434  0.56329  1.0000
  H   H532      1.0  0.72921  0.68113  0.82023  1.0000
  H   H533      1.0  0.90114  0.81914  0.49923  1.0000
  C   C313      1.0  0.75219  0.90965  0.81324  1.0000
  H   H534      1.0  0.73859  0.58708  0.93369  1.0000
  H   H535      1.0  0.82001  0.83994  0.87053  1.0000
  H   H536      1.0  0.71603  0.89113  0.89980  1.0000
  C   C314      1.0  0.72056  0.65501  0.82847  1.0000
  H   H537      1.0  0.76979  0.92875  0.80070  1.0000
  H   H538      1.0  0.81719  0.89076  0.80592  1.0000
  H   H539      1.0  0.72039  0.63031  0.94120  1.0000
  H   H540      1.0  0.69669  0.88576  0.85252  1.0000
  H   H541      1.0  0.82416  0.93901  0.84286  1.0000
  H   H542      1.0  0.79638  0.84986  0.80432  1.0000
  H   H543      1.0  0.68491  0.60025  0.84733  1.0000
  C   C315      1.0  0.73986  0.61407  0.92385  1.0000
  H   H544      1.0  0.75724  0.92916  0.88777  1.0000
  C   C316      1.0  0.75361  0.58756  0.85876  1.0000
  H   H545      1.0  0.78939  0.96933  0.85679  1.0000
  H   H546      1.0  0.85536  0.93771  0.60823  1.0000
  H   H547      1.0  0.79731  0.60932  0.92448  1.0000
  N   N22       1.0  0.77160  0.89005  0.84248  1.0000
  H   H548      1.0  0.84750  0.95041  0.52849  1.0000
  C   C317      1.0  0.69305  0.60214  0.87776  1.0000
  H   H549      1.0  0.73062  0.92618  0.82649  1.0000
  H   H550      1.0  0.71613  0.66892  0.88860  1.0000
  H   H551      1.0  0.75907  0.66160  0.87260  1.0000
  C   C318      1.0  0.68426  0.56610  0.89243  1.0000
  H   H552      1.0  0.67517  0.62215  0.89258  1.0000
  H   H553      1.0  0.71616  0.86857  0.78836  1.0000
  C   C319      1.0  0.83420  0.97652  0.53361  1.0000
  C   C320      1.0  0.83120  0.85888  0.85178  1.0000
  C   C321      1.0  0.77639  0.62749  0.93599  1.0000
  N   N23       1.0  0.73069  0.61359  0.88216  1.0000
  C   C322      1.0  0.97976  0.86990  0.71087  1.0000
  H   H554      1.0  0.78100  0.65493  0.92890  1.0000
  H   H555      1.0  0.91652  0.94346  0.59899  1.0000
  H   H556      1.0  0.85209  0.84443  0.83498  1.0000
  C   C323      1.0  0.78962  0.60083  0.84634  1.0000
  H   H557      1.0  0.78862  0.60748  0.81627  1.0000
  H   H558      1.0  0.80530  0.95284  0.57562  1.0000
  C   C324      1.0  0.80512  0.94658  0.86564  1.0000
  H   H559      1.0  0.69161  0.65489  0.82601  1.0000
  C   C325      1.0  0.74945  0.86151  0.85704  1.0000
  H   H560      1.0  0.89725  0.96702  0.56237  1.0000
  H   H561      1.0  0.73979  0.57829  0.83194  1.0000
  H   H562      1.0  0.69952  0.84954  0.88147  1.0000
  H   H563      1.0  0.72432  0.90383  0.75919  1.0000
  H   H564      1.0  0.84406  0.88073  0.86912  1.0000
  C   C326      1.0  0.78115  0.91606  0.87527  1.0000
  C   C327      1.0  0.88507  0.98591  0.72080  1.0000
  C   C328      1.0  0.87814  0.83596  0.50210  1.0000
  C   C329      1.0  0.73667  0.88651  0.77949  1.0000
  C   C330      1.0  0.85304  0.98850  0.73968  1.0000
  H   H565      1.0  0.79473  0.89453  0.51264  1.0000
  H   H566      1.0  0.79278  0.90272  0.89942  1.0000
  C   C331      1.0  0.90037  0.96704  0.59349  1.0000
  H   H567      1.0  0.82115  0.95527  0.89097  1.0000
  C   C332      1.0  0.86529  0.96500  0.61449  1.0000
  H   H568      1.0  0.68405  0.56758  0.92393  1.0000
  C   C333      1.0  0.71350  0.87331  0.87348  1.0000
  H   H569      1.0  0.73195  0.63462  0.80780  1.0000
  H   H570      1.0  0.98888  0.83634  0.55629  1.0000
  H   H571      1.0  0.98166  0.87161  0.49756  1.0000
  H   H572      1.0  0.78251  0.94649  0.63186  1.0000
  C   C334      1.0  0.81570  0.97964  0.57242  1.0000
  H   H573      1.0  0.78125  0.96766  0.67889  1.0000
  H   H574      1.0  0.85289  0.99788  0.52997  1.0000
  N   N24       1.0  0.83728  0.99199  0.60679  1.0000
  H   H575      1.0  0.79154  0.99595  0.56994  1.0000
  C   C335      1.0  0.99627  0.82970  0.58529  1.0000
  C   C336      1.0  0.81315  0.99578  0.64068  1.0000
  H   H576      1.0  0.91538  0.99054  0.60462  1.0000
