data_image0
_chemical_formula_structural       HFeHSCHSC7H4C3HCHC2H5CH5CH5C2H4CH3CH2SCH2CSCHNH6CHFeSFeS2FeCS2FeS2C6H4CH2CHCH4CHSH2CH3CH5C2H2CHCH2CHC3NH3CH2FeCH4SCH3CHNCHCHC3H7NHFeSFeS2FeS3NSFeSHCSHC6H6SC2H2C2HC2H3CH3FeHCH2CHC2H4CH2FeCH2CH3CH2CHCH4CH3SC3H7NCHCSHCS2H3C6H9CH5C2HCHC2HCH5C3HCH4CHNH5CHFeHC2HCHCSNH5CH3S2FeSCHS2HC6H6C4SC6H4CH2NH4CH4CFeHCH4CSH3NC8H12NHCH2C2H2FeHS2H3C2HCFeSH4FeS2HC2H3CH5FeH3SCHSFeSC8H4FeSCHCSFeS2C4HFeH4NFeH8CHCH6NHC3H2SH7CFeHNC4S2CH3CH2CFeCH2CH3CH2CH2CH2CH4CH4CHSHCSHFeS2C6H4CH7SFeSHNC6H5CHCHCHC3H5CHNC6SH11C3FeH3C2HSCHCH2SH2CH5SNSH2CHCH2NH2FeSH2S2FeSFeHSCHC6H2CH2CH4CSHC6H6FeC2H2FeS2H4CH2SHC2HNCHC2H7CH4FeC2HCSHCH3SHFe3CS2CSC3HC3H6S2H2C2H4CHCHCHCHCHNHCHCH2CSH4C2SH2CHC3HC4HCH2CH4CNC4HC2SH2CSH3SH7FeCH2CH4SH4Fe2H5CH2CHCSCH2SH4C4FeC4H5C3HCH5CHCH2SHSC2H4FeH2CHSFeHCH4CHCH6SHNCNCSHFe2SH4SC4H4SH3CHCNH2FeH2CHFeSH2CHCHCHC3HCHCSH2CH2SCH3CHCHCH3
_chemical_formula_sum              "H576 Fe48 S96 C336 N24"
_cell_length_a       36.7297
_cell_length_b       24.3349
_cell_length_c       35.5294
_cell_angle_alpha    90.5885
_cell_angle_beta     72.6523
_cell_angle_gamma    90.4652

_space_group_name_H-M_alt    "P 1"
_space_group_IT_number       1

loop_
  _space_group_symop_operation_xyz
  'x, y, z'

loop_
  _atom_site_type_symbol
  _atom_site_label
  _atom_site_symmetry_multiplicity
  _atom_site_fract_x
  _atom_site_fract_y
  _atom_site_fract_z
  _atom_site_occupancy
  H   H1        1.0  0.18359  0.47729  0.39601  1.0000
  Fe  Fe1       1.0  0.09119  0.04545  0.19173  1.0000
  H   H2        1.0  0.04062  0.34015  0.26833  1.0000
  S   S1        1.0  0.10609  0.30455  0.06583  1.0000
  C   C1        1.0  0.12276  0.40974  0.44827  1.0000
  H   H3        1.0  0.08304  0.28709  0.18716  1.0000
  S   S2        1.0  0.13805  0.10740  0.16630  1.0000
  C   C2        1.0  0.11606  0.24935  0.09259  1.0000
  C   C3        1.0  0.15293  0.23938  0.09439  1.0000
  C   C4        1.0  0.15943  0.19562  0.11710  1.0000
  C   C5        1.0  0.12925  0.16134  0.13757  1.0000
  C   C6        1.0  0.09263  0.17082  0.13489  1.0000
  C   C7        1.0  0.08609  0.21470  0.11254  1.0000
  C   C8        1.0  0.23879  0.40176  0.46653  1.0000
  H   H4        1.0  0.18787  0.18853  0.11904  1.0000
  H   H5        1.0  0.06929  0.14463  0.15012  1.0000
  H   H6        1.0  0.05782  0.22146  0.11018  1.0000
  H   H7        1.0  0.23468  0.41466  0.49753  1.0000
  C   C9        1.0  0.08326  0.26563  0.21450  1.0000
  C   C10       1.0  0.29812  0.49771  0.49774  1.0000
  C   C11       1.0  0.26564  0.52435  0.52211  1.0000
  H   H8        1.0  0.07614  0.18635  0.03691  1.0000
  C   C12       1.0  0.04491  0.23661  0.23425  1.0000
  H   H9        1.0  0.08397  0.11692  0.50357  1.0000
  C   C13       1.0  0.22590  0.44640  0.44264  1.0000
  C   C14       1.0  0.04594  0.50911  0.44963  1.0000
  H   H10       1.0  0.14613  0.50919  0.43265  1.0000
  H   H11       1.0  0.04595  0.16509  0.51740  1.0000
  H   H12       1.0  0.34092  0.49915  0.44117  1.0000
  H   H13       1.0  0.23542  0.43305  0.41110  1.0000
  H   H14       1.0  0.04355  0.20422  0.33463  1.0000
  C   C15       1.0  0.02109  0.47259  0.47545  1.0000
  H   H15       1.0  0.13290  0.07689  0.51397  1.0000
  H   H16       1.0  0.05385  0.50170  0.41814  1.0000
  H   H17       1.0  0.10364  0.44121  0.46622  1.0000
  H   H18       1.0  0.02939  0.34093  0.20726  1.0000
  H   H19       1.0  0.02656  0.04366  0.35701  1.0000
  C   C16       1.0  0.17667  0.49805  0.42540  1.0000
  H   H20       1.0  0.22465  0.36154  0.46577  1.0000
  H   H21       1.0  0.12953  0.12003  0.06302  1.0000
  H   H22       1.0  0.26995  0.39515  0.45338  1.0000
  H   H23       1.0  0.10910  0.02761  0.08167  1.0000
  H   H24       1.0  0.17624  0.26603  0.07903  1.0000
  C   C17       1.0  0.31634  0.51957  0.46057  1.0000
  C   C18       1.0  0.12099  0.09522  0.04054  1.0000
  H   H25       1.0  0.12645  0.41802  0.41665  1.0000
  H   H26       1.0  0.09182  0.29432  0.23477  1.0000
  H   H27       1.0  0.08983  0.10137  0.04661  1.0000
  H   H28       1.0  0.24320  0.48350  0.44451  1.0000
  C   C19       1.0  0.06639  0.14165  0.52861  1.0000
  H   H29       1.0  0.15707  0.38530  0.48515  1.0000
  H   H30       1.0  0.10776  0.36955  0.45507  1.0000
  H   H31       1.0  0.04856  0.21209  0.25914  1.0000
  C   C20       1.0  0.17420  0.48550  0.49593  1.0000
  H   H32       1.0  0.03117  0.04159  0.40476  1.0000
  H   H33       1.0  0.17924  0.45645  0.51775  1.0000
  S   S3        1.0  0.03110  0.05480  0.18980  1.0000
  C   C21       1.0  0.13318  0.50598  0.51365  1.0000
  H   H34       1.0  0.04146  0.20542  0.21267  1.0000
  H   H35       1.0  0.02867  0.46873  0.04578  1.0000
  C   C22       1.0  0.16181  0.40636  0.45636  1.0000
  S   S4        1.0  0.31454  0.43698  0.51456  1.0000
  C   C23       1.0  0.12498  0.03443  0.05008  1.0000
  H   H36       1.0  0.10601  0.23407  0.20566  1.0000
  N   N1        1.0  0.18380  0.45951  0.45547  1.0000
  H   H37       1.0  0.17854  0.37693  0.43359  1.0000
  H   H38       1.0  0.03465  0.12010  0.29816  1.0000
  H   H39       1.0  0.02662  0.28545  0.30225  1.0000
  H   H40       1.0  0.11229  0.47173  0.52016  1.0000
  H   H41       1.0  0.09197  0.06231  0.35950  1.0000
  H   H42       1.0  0.19325  0.52113  0.49572  1.0000
  C   C24       1.0  0.12970  0.03833  0.53079  1.0000
  H   H43       1.0  0.20222  0.11840  0.92882  1.0000
  Fe  Fe2       1.0  0.23234  0.38249  0.97348  1.0000
  S   S5        1.0  0.29218  0.40753  0.97276  1.0000
  Fe  Fe3       1.0  0.19216  0.30619  0.92877  1.0000
  S   S6        1.0  0.13496  0.34136  0.95976  1.0000
  S   S7        1.0  0.20115  0.23917  0.88200  1.0000
  Fe  Fe4       1.0  0.16406  0.42319  0.95141  1.0000
  C   C25       1.0  0.12956  0.08491  0.96851  1.0000
  S   S8        1.0  0.22016  0.38910  0.91539  1.0000
  S   S9        1.0  0.20920  0.29573  0.98400  1.0000
  Fe  Fe5       1.0  0.04977  0.08215  0.80032  1.0000
  S   S10       1.0  0.05744  0.11302  0.85816  1.0000
  S   S11       1.0  0.06891  0.11270  0.73783  1.0000
  C   C26       1.0  0.16073  0.20728  0.87371  1.0000
  C   C27       1.0  0.12452  0.21334  0.90075  1.0000
  C   C28       1.0  0.09322  0.18424  0.89543  1.0000
  C   C29       1.0  0.09742  0.15072  0.86207  1.0000
  C   C30       1.0  0.13338  0.14582  0.83425  1.0000
  C   C31       1.0  0.16506  0.17343  0.84040  1.0000
  H   H44       1.0  0.12078  0.23950  0.92619  1.0000
  H   H45       1.0  0.06555  0.18784  0.91717  1.0000
  H   H46       1.0  0.13698  0.11973  0.80857  1.0000
  H   H47       1.0  0.19298  0.16855  0.81926  1.0000
  C   C32       1.0  0.04362  0.10505  0.56265  1.0000
  H   H48       1.0  0.02757  0.38471  0.98589  1.0000
  H   H49       1.0  0.07909  0.46064  0.87289  1.0000
  C   C33       1.0  0.30161  0.47225  0.99124  1.0000
  H   H50       1.0  0.33284  0.26245  0.79496  1.0000
  C   C34       1.0  0.21150  0.13079  0.95464  1.0000
  H   H51       1.0  0.32131  0.19439  0.78162  1.0000
  H   H52       1.0  0.08188  0.34486  0.90436  1.0000
  H   H53       1.0  0.11528  0.12654  0.57323  1.0000
  H   H54       1.0  0.09434  0.44921  0.00351  1.0000
  C   C35       1.0  0.03904  0.04405  0.61781  1.0000
  H   H55       1.0  0.11357  0.40791  0.85599  1.0000
  S   S12       1.0  0.13938  0.49652  0.93004  1.0000
  H   H56       1.0  0.32963  0.10588  0.78755  1.0000
  H   H57       1.0  0.24374  0.48746  0.02629  1.0000
  C   C36       1.0  0.14786  0.02847  0.95402  1.0000
  H   H58       1.0  0.08419  0.17248  0.53827  1.0000
  H   H59       1.0  0.02605  0.46612  0.94501  1.0000
  H   H60       1.0  0.05776  0.13521  0.65610  1.0000
  C   C37       1.0  0.06797  0.38554  0.90854  1.0000
  H   H61       1.0  0.02122  0.07501  0.63804  1.0000
  H   H62       1.0  0.21364  0.17628  0.95544  1.0000
  H   H63       1.0  0.06813  0.40081  0.84715  1.0000
  H   H64       1.0  0.13540  0.11083  0.94160  1.0000
  H   H65       1.0  0.09814  0.17680  0.63389  1.0000
  C   C38       1.0  0.07516  0.15197  0.62744  1.0000
  C   C39       1.0  0.08248  0.41545  0.86877  1.0000
  H   H66       1.0  0.29419  0.47630  0.90306  1.0000
  H   H67       1.0  0.24079  0.11485  0.94992  1.0000
  C   C40       1.0  0.27253  0.50352  0.01661  1.0000
  H   H68       1.0  0.33393  0.52376  0.89342  1.0000
  C   C41       1.0  0.07838  0.48233  0.99599  1.0000
  H   H69       1.0  0.08047  0.40753  0.92946  1.0000
  H   H70       1.0  0.31376  0.16751  0.85465  1.0000
  C   C42       1.0  0.18499  0.10855  0.99394  1.0000
  H   H71       1.0  0.05785  0.18055  0.61581  1.0000
  C   C43       1.0  0.04123  0.49340  0.01991  1.0000
  C   C44       1.0  0.33434  0.19964  0.83895  1.0000
  C   C45       1.0  0.33902  0.49333  0.97954  1.0000
  N   N2        1.0  0.14279  0.11443  0.99972  1.0000
  H   H72       1.0  0.02344  0.13220  0.58443  1.0000
  H   H73       1.0  0.28790  0.23210  0.81965  1.0000
  H   H74       1.0  0.25124  0.50770  0.55087  1.0000
  C   C46       1.0  0.31878  0.22305  0.80655  1.0000
  H   H75       1.0  0.06024  0.29385  0.95658  1.0000
  H   H76       1.0  0.17033  0.03271  0.92524  1.0000
  Fe  Fe6       1.0  0.15338  0.33658  0.01439  1.0000
  C   C47       1.0  0.09353  0.10603  0.59768  1.0000
  H   H77       1.0  0.14881  0.03968  0.54987  1.0000
  H   H78       1.0  0.21722  0.52505  0.92085  1.0000
  H   H79       1.0  0.07916  0.16924  0.98615  1.0000
  H   H80       1.0  0.32425  0.48642  0.85405  1.0000
  S   S13       1.0  0.17768  0.42239  0.00882  1.0000
  C   C48       1.0  0.02917  0.29890  0.96992  1.0000
  H   H81       1.0  0.10999  0.07957  0.61220  1.0000
  H   H82       1.0  0.15056  0.19190  0.96842  1.0000
  H   H83       1.0  0.09803  0.07890  0.97883  1.0000
  C   C49       1.0  0.08818  0.02598  0.55548  1.0000
  H   H84       1.0  0.04764  0.27863  0.89256  1.0000
  N   N3        1.0  0.06658  0.07111  0.58262  1.0000
  C   C50       1.0  0.31057  0.50780  0.88246  1.0000
  H   H85       1.0  0.24786  0.51495  0.94982  1.0000
  C   C51       1.0  0.13513  0.17511  0.99789  1.0000
  H   H86       1.0  0.19324  0.06537  0.99612  1.0000
  C   C52       1.0  0.02784  0.29772  0.87864  1.0000
  C   C53       1.0  0.09442  0.51337  0.96209  1.0000
  C   C54       1.0  0.09297  0.19155  0.00561  1.0000
  H   H87       1.0  0.19302  0.13019  0.01821  1.0000
  H   H88       1.0  0.04333  0.30720  0.84741  1.0000
  H   H89       1.0  0.09181  0.23603  0.99951  1.0000
  H   H90       1.0  0.02530  0.07836  0.55016  1.0000
  H   H91       1.0  0.14637  0.19866  0.01912  1.0000
  H   H92       1.0  0.33137  0.23358  0.86098  1.0000
  H   H93       1.0  0.33967  0.15835  0.90777  1.0000
  N   N4        1.0  0.02517  0.38162  0.92576  1.0000
  H   H94       1.0  0.02296  0.28874  0.00165  1.0000
  Fe  Fe7       1.0  0.19738  0.69336  0.47029  1.0000
  S   S14       1.0  0.25782  0.65984  0.45821  1.0000
  Fe  Fe8       1.0  0.15369  0.78134  0.43893  1.0000
  S   S15       1.0  0.09671  0.74914  0.47466  1.0000
  S   S16       1.0  0.15811  0.85794  0.40187  1.0000
  Fe  Fe9       1.0  0.12141  0.66550  0.45703  1.0000
  S   S17       1.0  0.09312  0.59836  0.43137  1.0000
  S   S18       1.0  0.17946  0.78063  0.48912  1.0000
  S   S19       1.0  0.17650  0.69816  0.41698  1.0000
  N   N5        1.0  0.32774  0.81636  0.17119  1.0000
  S   S20       1.0  0.09767  0.95913  0.16816  1.0000
  Fe  Fe10      1.0  0.07527  0.93268  0.23120  1.0000
  S   S21       1.0  0.09304  0.85446  0.25498  1.0000
  H   H95       1.0  0.31013  0.70204  0.51339  1.0000
  C   C55       1.0  0.02937  0.77064  0.16094  1.0000
  S   S22       1.0  0.02872  0.93969  0.11062  1.0000
  H   H96       1.0  0.03909  0.64778  0.14959  1.0000
  C   C56       1.0  0.14105  0.85562  0.36039  1.0000
  C   C57       1.0  0.14552  0.90195  0.33614  1.0000
  C   C58       1.0  0.13120  0.90195  0.30355  1.0000
  C   C59       1.0  0.11225  0.85558  0.29503  1.0000
  C   C60       1.0  0.10824  0.80901  0.31895  1.0000
  C   C61       1.0  0.12241  0.80906  0.35165  1.0000
  H   H97       1.0  0.16022  0.93790  0.34255  1.0000
  H   H98       1.0  0.13511  0.93759  0.28478  1.0000
  H   H99       1.0  0.09387  0.77282  0.31237  1.0000
  H   H100      1.0  0.11892  0.77309  0.37008  1.0000
  H   H101      1.0  0.06192  0.59977  0.51659  1.0000
  H   H102      1.0  0.24473  0.81377  0.20055  1.0000
  S   S23       1.0  0.14328  0.65576  0.50924  1.0000
  C   C62       1.0  0.27069  0.59533  0.47296  1.0000
  C   C63       1.0  0.03459  0.70087  0.09047  1.0000
  H   H103      1.0  0.18961  0.57786  0.39799  1.0000
  H   H104      1.0  0.11154  0.00682  0.03298  1.0000
  C   C64       1.0  0.34848  0.63768  0.51957  1.0000
  C   C65       1.0  0.33838  0.76790  0.10380  1.0000
  H   H105      1.0  0.29813  0.77587  0.22585  1.0000
  C   C66       1.0  0.06086  0.55486  0.46439  1.0000
  C   C67       1.0  0.30266  0.56805  0.44828  1.0000
  H   H106      1.0  0.30340  0.94176  0.14085  1.0000
  H   H107      1.0  0.23010  0.54728  0.40666  1.0000
  H   H108      1.0  0.19279  0.57751  0.44698  1.0000
  C   C68       1.0  0.30072  0.81763  0.21259  1.0000
  H   H109      1.0  0.14006  0.00429  0.50922  1.0000
  H   H110      1.0  0.31181  0.84500  0.23197  1.0000
  H   H111      1.0  0.03080  0.73704  0.07293  1.0000
  Fe  Fe11      1.0  0.12347  0.74334  0.52372  1.0000
  H   H112      1.0  0.35022  0.72785  0.52696  1.0000
  C   C69       1.0  0.25996  0.83820  0.21768  1.0000
  H   H113      1.0  0.09211  0.00345  0.32966  1.0000
  H   H114      1.0  0.28447  0.79130  0.14341  1.0000
  C   C70       1.0  0.25216  0.57317  0.50995  1.0000
  H   H115      1.0  0.25982  0.88255  0.21084  1.0000
  C   C71       1.0  0.34127  0.69679  0.50841  1.0000
  C   C72       1.0  0.03927  0.94226  0.44451  1.0000
  H   H116      1.0  0.04575  0.61200  0.07717  1.0000
  H   H117      1.0  0.06108  0.70918  0.09869  1.0000
  H   H118      1.0  0.05568  0.93392  0.32471  1.0000
  H   H119      1.0  0.12559  0.53664  0.49456  1.0000
  C   C73       1.0  0.05059  0.56438  0.50507  1.0000
  H   H120      1.0  0.24297  0.83409  0.24918  1.0000
  H   H121      1.0  0.30599  0.73661  0.16038  1.0000
  Fe  Fe12      1.0  0.03646  0.96656  0.16928  1.0000
  C   C74       1.0  0.31221  0.77767  0.14614  1.0000
  H   H122      1.0  0.31724  0.58495  0.41964  1.0000
  H   H123      1.0  0.05198  0.78756  0.13544  1.0000
  C   C75       1.0  0.04382  0.65098  0.06202  1.0000
  H   H124      1.0  0.02275  0.64633  0.04547  1.0000
  H   H125      1.0  0.06424  0.92234  0.45023  1.0000
  H   H126      1.0  0.25804  0.57972  0.04912  1.0000
  C   C76       1.0  0.02500  0.93856  0.34073  1.0000
  H   H127      1.0  0.06594  0.91017  0.38571  1.0000
  H   H128      1.0  0.02276  0.87098  0.04724  1.0000
  C   C77       1.0  0.03796  0.01815  0.37668  1.0000
  H   H129      1.0  0.22789  0.59426  0.52949  1.0000
  C   C78       1.0  0.08185  0.01906  0.36028  1.0000
  H   H130      1.0  0.04443  0.98680  0.44650  1.0000
  H   H131      1.0  0.32195  0.74665  0.08620  1.0000
  H   H132      1.0  0.27766  0.87909  0.14420  1.0000
  H   H133      1.0  0.33633  0.60911  0.50194  1.0000
  C   C79       1.0  0.30664  0.89695  0.13451  1.0000
  H   H134      1.0  0.04164  0.73886  0.17561  1.0000
  H   H135      1.0  0.31833  0.89351  0.10190  1.0000
  H   H136      1.0  0.09558  0.99602  0.37911  1.0000
  S   S24       1.0  0.07497  0.01851  0.25505  1.0000
  C   C80       1.0  0.03689  0.92307  0.40381  1.0000
  C   C81       1.0  0.19891  0.55291  0.41944  1.0000
  C   C82       1.0  0.33531  0.87365  0.15450  1.0000
  H   H137      1.0  0.07188  0.65772  0.03960  1.0000
  H   H138      1.0  0.34963  0.80672  0.08863  1.0000
  H   H139      1.0  0.02061  0.84890  0.35072  1.0000
  H   H140      1.0  0.15484  0.02245  0.04651  1.0000
  H   H141      1.0  0.02077  0.88360  0.40924  1.0000
  H   H142      1.0  0.33741  0.90351  0.17775  1.0000
  H   H143      1.0  0.01988  0.80532  0.18216  1.0000
  N   N6        1.0  0.01928  0.96210  0.38157  1.0000
  C   C83       1.0  0.02605  0.52754  0.53092  1.0000
  H   H144      1.0  0.03170  0.98744  0.91282  1.0000
  C   C84       1.0  0.23358  0.54766  0.93790  1.0000
  S   S25       1.0  0.08585  0.77095  0.58390  1.0000
  H   H145      1.0  0.08323  0.86835  0.71742  1.0000
  C   C85       1.0  0.07362  0.55634  0.95268  1.0000
  S   S26       1.0  0.11602  0.99083  0.66727  1.0000
  S   S27       1.0  0.05650  0.99328  0.78170  1.0000
  H   H146      1.0  0.04267  0.67023  0.77439  1.0000
  H   H147      1.0  0.04079  0.82589  0.85691  1.0000
  H   H148      1.0  0.08576  0.69247  0.71013  1.0000
  C   C86       1.0  0.09410  0.83592  0.60243  1.0000
  C   C87       1.0  0.06368  0.86295  0.62956  1.0000
  C   C88       1.0  0.07001  0.91110  0.64890  1.0000
  C   C89       1.0  0.10685  0.93273  0.64121  1.0000
  C   C90       1.0  0.13700  0.90730  0.61260  1.0000
  C   C91       1.0  0.13068  0.85898  0.59325  1.0000
  H   H149      1.0  0.12590  0.00101  0.94803  1.0000
  H   H150      1.0  0.04651  0.93066  0.67045  1.0000
  H   H151      1.0  0.16556  0.92406  0.60619  1.0000
  H   H152      1.0  0.15436  0.83848  0.57237  1.0000
  H   H153      1.0  0.27229  0.63254  0.96010  1.0000
  H   H154      1.0  0.08593  0.58036  0.92643  1.0000
  H   H155      1.0  0.21877  0.59219  0.99504  1.0000
  H   H156      1.0  0.05992  0.81334  0.77753  1.0000
  H   H157      1.0  0.12163  0.83119  0.72537  1.0000
  C   C92       1.0  0.05126  0.93194  0.94876  1.0000
  H   H158      1.0  0.20039  0.65755  0.87152  1.0000
  H   H159      1.0  0.30302  0.58204  0.85292  1.0000
  H   H160      1.0  0.02546  0.84835  0.70963  1.0000
  H   H161      1.0  0.18454  0.54259  0.99021  1.0000
  H   H162      1.0  0.18706  0.60628  0.96573  1.0000
  C   C93       1.0  0.02004  0.53540  0.00996  1.0000
  C   C94       1.0  0.02436  0.70010  0.79496  1.0000
  H   H163      1.0  0.02304  0.90276  0.82138  1.0000
  C   C95       1.0  0.03640  0.56736  0.97659  1.0000
  H   H164      1.0  0.02012  0.59977  0.96869  1.0000
  C   C96       1.0  0.28842  0.60740  0.93428  1.0000
  C   C97       1.0  0.28478  0.55401  0.87546  1.0000
  H   H165      1.0  0.07586  0.68181  0.66535  1.0000
  C   C98       1.0  0.32222  0.64358  0.91113  1.0000
  H   H166      1.0  0.04111  0.72179  0.81199  1.0000
  H   H167      1.0  0.31257  0.68262  0.90153  1.0000
  H   H168      1.0  0.23094  0.66211  0.92401  1.0000
  H   H169      1.0  0.08326  0.75435  0.75351  1.0000
  H   H170      1.0  0.04749  0.88880  0.95905  1.0000
  C   C99       1.0  0.06675  0.79026  0.74905  1.0000
  C   C100      1.0  0.09457  0.82631  0.71773  1.0000
  C   C101      1.0  0.31792  0.57746  0.01705  1.0000
  H   H171      1.0  0.05066  0.76827  0.67613  1.0000
  C   C102      1.0  0.06189  0.68936  0.69733  1.0000
  H   H172      1.0  0.09068  0.98869  0.57260  1.0000
  H   H173      1.0  0.10197  0.80774  0.68779  1.0000
  H   H174      1.0  0.02355  0.91817  0.90388  1.0000
  H   H175      1.0  0.15949  0.00650  0.97488  1.0000
  C   C103      1.0  0.34715  0.54591  0.99213  1.0000
  H   H176      1.0  0.05112  0.96003  0.97357  1.0000
  N   N7        1.0  0.26257  0.58575  0.91159  1.0000
  H   H177      1.0  0.08009  0.93451  0.92702  1.0000
  H   H178      1.0  0.18802  0.59631  0.89950  1.0000
  H   H179      1.0  0.30034  0.57300  0.94688  1.0000
  H   H180      1.0  0.03521  0.84583  0.63624  1.0000
  H   H181      1.0  0.22369  0.59506  0.85171  1.0000
  C   C104      1.0  0.21226  0.61898  0.87939  1.0000
  H   H182      1.0  0.02531  0.96814  0.58930  1.0000
  Fe  Fe13      1.0  0.06910  0.02366  0.71949  1.0000
  H   H183      1.0  0.33028  0.63156  0.55049  1.0000
  C   C105      1.0  0.24357  0.63372  0.89878  1.0000
  C   C106      1.0  0.03775  0.74191  0.70214  1.0000
  H   H184      1.0  0.26493  0.65902  0.87689  1.0000
  C   C107      1.0  0.20469  0.57463  0.97402  1.0000
  H   H185      1.0  0.05495  0.02249  0.63536  1.0000
  C   C108      1.0  0.02147  0.94828  0.92817  1.0000
  S   S28       1.0  0.32604  0.64521  0.03130  1.0000
  N   N8        1.0  0.03037  0.77357  0.74039  1.0000
  H   H186      1.0  0.34165  0.62179  0.88554  1.0000
  H   H187      1.0  0.33944  0.65497  0.93105  1.0000
  H   H188      1.0  0.04374  0.65323  0.70967  1.0000
  H   H189      1.0  0.33950  0.52733  0.56390  1.0000
  H   H190      1.0  0.26510  0.53387  0.86097  1.0000
  C   C109      1.0  0.28072  0.55572  0.02963  1.0000
  H   H191      1.0  0.07240  0.01195  0.53475  1.0000
  H   H192      1.0  0.13074  0.52703  0.54219  1.0000
  H   H193      1.0  0.01838  0.53471  0.56242  1.0000
  S   S29       1.0  0.39270  0.31627  0.47133  1.0000
  S   S30       1.0  0.41176  0.43766  0.43028  1.0000
  Fe  Fe14      1.0  0.43357  0.35183  0.41667  1.0000
  S   S31       1.0  0.45330  0.32111  0.35377  1.0000
  C   C110      1.0  0.66174  0.41140  0.44030  1.0000
  H   H194      1.0  0.50912  0.20316  0.45632  1.0000
  S   S32       1.0  0.53405  0.04886  0.30124  1.0000
  S   S33       1.0  0.42647  0.07228  0.31621  1.0000
  H   H195      1.0  0.66411  0.45147  0.09779  1.0000
  C   C111      1.0  0.44535  0.25178  0.34461  1.0000
  C   C112      1.0  0.40977  0.22692  0.36116  1.0000
  C   C113      1.0  0.40388  0.17192  0.35183  1.0000
  C   C114      1.0  0.43366  0.14160  0.32642  1.0000
  C   C115      1.0  0.46915  0.16662  0.30994  1.0000
  C   C116      1.0  0.47492  0.22159  0.31892  1.0000
  H   H196      1.0  0.51676  0.08524  0.39311  1.0000
  H   H197      1.0  0.40500  0.11433  0.42305  1.0000
  H   H198      1.0  0.49209  0.14377  0.28993  1.0000
  H   H199      1.0  0.50244  0.24077  0.30602  1.0000
  H   H200      1.0  0.65074  0.48475  0.38233  1.0000
  H   H201      1.0  0.46687  0.14103  0.50074  1.0000
  C   C117      1.0  0.63310  0.51306  0.40497  1.0000
  C   C118      1.0  0.48598  0.09648  0.40328  1.0000
  C   C119      1.0  0.44418  0.17172  0.43988  1.0000
  C   C120      1.0  0.47330  0.10956  0.47660  1.0000
  S   S34       1.0  0.60435  0.10274  0.20574  1.0000
  C   C121      1.0  0.60704  0.16070  0.08238  1.0000
  C   C122      1.0  0.62811  0.18844  0.10363  1.0000
  C   C123      1.0  0.62770  0.16955  0.14109  1.0000
  C   C124      1.0  0.60591  0.12330  0.15772  1.0000
  C   C125      1.0  0.58517  0.09528  0.13622  1.0000
  C   C126      1.0  0.58597  0.11370  0.09858  1.0000
  H   H202      1.0  0.64465  0.22447  0.09129  1.0000
  H   H203      1.0  0.64401  0.19121  0.15745  1.0000
  H   H204      1.0  0.56869  0.05921  0.14846  1.0000
  H   H205      1.0  0.37630  0.15274  0.36445  1.0000
  C   C127      1.0  0.67057  0.47638  0.51159  1.0000
  H   H206      1.0  0.60998  0.48513  0.52260  1.0000
  H   H207      1.0  0.67026  0.51842  0.44117  1.0000
  N   N9        1.0  0.47855  0.13679  0.43736  1.0000
  H   H208      1.0  0.44784  0.19383  0.41192  1.0000
  H   H209      1.0  0.56974  0.09185  0.08224  1.0000
  H   H210      1.0  0.46710  0.15631  0.17514  1.0000
  H   H211      1.0  0.44288  0.32914  0.24318  1.0000
  C   C128      1.0  0.63999  0.50630  0.44551  1.0000
  H   H212      1.0  0.67711  0.51941  0.50173  1.0000
  H   H213      1.0  0.54920  0.23217  0.38913  1.0000
  H   H214      1.0  0.44344  0.20010  0.21707  1.0000
  H   H215      1.0  0.58968  0.29929  0.21251  1.0000
  C   C129      1.0  0.46385  0.04123  0.41064  1.0000
  Fe  Fe15      1.0  0.45583  0.44651  0.46171  1.0000
  H   H216      1.0  0.49175  0.34791  0.23791  1.0000
  C   C130      1.0  0.51250  0.17507  0.43052  1.0000
  H   H217      1.0  0.57004  0.23186  0.22176  1.0000
  H   H218      1.0  0.39737  0.11938  0.47620  1.0000
  H   H219      1.0  0.44086  0.20413  0.46305  1.0000
  H   H220      1.0  0.54101  0.29143  0.24134  1.0000
  C   C131      1.0  0.59236  0.43251  0.46315  1.0000
  S   S35       1.0  0.48090  0.36356  0.44363  1.0000
  H   H221      1.0  0.48020  0.11598  0.37746  1.0000
  H   H222      1.0  0.38671  0.25028  0.38068  1.0000
  H   H223      1.0  0.47276  0.28054  0.25428  1.0000
  N   N10       1.0  0.51463  0.25342  0.17674  1.0000
  C   C132      1.0  0.51728  0.23729  0.13481  1.0000
  C   C133      1.0  0.50639  0.20168  0.20101  1.0000
  C   C134      1.0  0.55266  0.27765  0.17686  1.0000
  C   C135      1.0  0.48337  0.29542  0.19029  1.0000
  C   C136      1.0  0.53222  0.28199  0.10319  1.0000
  C   C137      1.0  0.46811  0.17285  0.20399  1.0000
  C   C138      1.0  0.56332  0.27475  0.21567  1.0000
  C   C139      1.0  0.47276  0.31414  0.23375  1.0000
  H   H224      1.0  0.53621  0.20111  0.12528  1.0000
  H   H225      1.0  0.48900  0.22416  0.13232  1.0000
  H   H226      1.0  0.50652  0.20907  0.23173  1.0000
  H   H227      1.0  0.52953  0.17110  0.18918  1.0000
  H   H228      1.0  0.57637  0.25642  0.15468  1.0000
  H   H229      1.0  0.55494  0.32152  0.16770  1.0000
  H   H230      1.0  0.49127  0.33374  0.17287  1.0000
  H   H231      1.0  0.45675  0.28190  0.18392  1.0000
  H   H232      1.0  0.53251  0.26484  0.07399  1.0000
  H   H233      1.0  0.51375  0.31880  0.10847  1.0000
  H   H234      1.0  0.56204  0.29436  0.10033  1.0000
  H   H235      1.0  0.46480  0.13708  0.22400  1.0000
  N   N11       1.0  0.63165  0.45022  0.46412  1.0000
  H   H236      1.0  0.49996  0.24475  0.39692  1.0000
  C   C140      1.0  0.40558  0.14182  0.44795  1.0000
  H   H237      1.0  0.52325  0.18722  0.36634  1.0000
  H   H238      1.0  0.62243  0.51303  0.07731  1.0000
  C   C141      1.0  0.66099  0.35223  0.45558  1.0000
  C   C142      1.0  0.52122  0.21145  0.39347  1.0000
  H   H239      1.0  0.49836  0.05016  0.50690  1.0000
  H   H240      1.0  0.38309  0.17304  0.45019  1.0000
  Fe  Fe16      1.0  0.43929  0.33281  0.49969  1.0000
  H   H241      1.0  0.54407  0.37785  0.48749  1.0000
  S   S36       1.0  0.60479  0.18464  0.03640  1.0000
  S   S37       1.0  0.56494  0.44975  0.04795  1.0000
  H   H242      1.0  0.59341  0.41544  0.43362  1.0000
  H   H243      1.0  0.65953  0.40694  0.40988  1.0000
  H   H244      1.0  0.53907  0.15153  0.42747  1.0000
  C   C143      1.0  0.63253  0.45609  0.50617  1.0000
  C   C144      1.0  0.65466  0.02947  0.50694  1.0000
  H   H245      1.0  0.44825  0.08177  0.48467  1.0000
  C   C145      1.0  0.50880  0.51882  0.51521  1.0000
  Fe  Fe17      1.0  0.37494  0.40455  0.48751  1.0000
  S   S38       1.0  0.46304  0.26158  0.52657  1.0000
  H   H246      1.0  0.51905  0.04797  0.45443  1.0000
  H   H247      1.0  0.53068  0.10323  0.48356  1.0000
  H   H248      1.0  0.60256  0.50820  0.40673  1.0000
  H   H249      1.0  0.66020  0.07200  0.49549  1.0000
  Fe  Fe18      1.0  0.56271  0.03629  0.23634  1.0000
  S   S39       1.0  0.64109  0.34073  0.04590  1.0000
  S   S40       1.0  0.41824  0.41806  0.52049  1.0000
  H   H250      1.0  0.57314  0.46863  0.46757  1.0000
  C   C146      1.0  0.50758  0.07588  0.48001  1.0000
  C   C147      1.0  0.67722  0.47934  0.07277  1.0000
  H   H251      1.0  0.43706  0.04111  0.43516  1.0000
  H   H252      1.0  0.64108  0.32597  0.44506  1.0000
  H   H253      1.0  0.68025  0.45495  0.04554  1.0000
  C   C148      1.0  0.57055  0.39068  0.49430  1.0000
  H   H254      1.0  0.65393  0.34955  0.48797  1.0000
  H   H255      1.0  0.48901  0.48474  0.52320  1.0000
  H   H256      1.0  0.58696  0.35304  0.49482  1.0000
  H   H257      1.0  0.45601  0.02969  0.38367  1.0000
  H   H258      1.0  0.56128  0.40969  0.52419  1.0000
  Fe  Fe19      1.0  0.48077  0.02690  0.28642  1.0000
  H   H259      1.0  0.62538  0.41718  0.52268  1.0000
  H   H260      1.0  0.66716  0.02621  0.53151  1.0000
  H   H261      1.0  0.55836  0.17130  0.98428  1.0000
  S   S41       1.0  0.45347  0.05921  0.85296  1.0000
  C   C149      1.0  0.66785  0.23617  0.82771  1.0000
  H   H262      1.0  0.55948  0.27745  0.62239  1.0000
  S   S42       1.0  0.51362  0.16094  0.77776  1.0000
  Fe  Fe20      1.0  0.50172  0.15339  0.71927  1.0000
  S   S43       1.0  0.47673  0.22965  0.70000  1.0000
  C   C150      1.0  0.54584  0.15206  0.96237  1.0000
  C   C151      1.0  0.66475  0.26887  0.70505  1.0000
  C   C152      1.0  0.46691  0.25441  0.57492  1.0000
  C   C153      1.0  0.48284  0.20595  0.58432  1.0000
  C   C154      1.0  0.48616  0.19789  0.62239  1.0000
  C   C155      1.0  0.47352  0.23831  0.65154  1.0000
  C   C156      1.0  0.45799  0.28706  0.64206  1.0000
  C   C157      1.0  0.45467  0.29513  0.60394  1.0000
  H   H263      1.0  0.49241  0.17420  0.56212  1.0000
  H   H264      1.0  0.49815  0.16018  0.62926  1.0000
  H   H265      1.0  0.44817  0.31861  0.66439  1.0000
  H   H266      1.0  0.44236  0.33259  0.59713  1.0000
  Fe  Fe21      1.0  0.64568  0.33025  0.93552  1.0000
  S   S44       1.0  0.59187  0.31454  0.98432  1.0000
  C   C158      1.0  0.39129  0.18316  0.86004  1.0000
  H   H267      1.0  0.43173  0.27031  0.81459  1.0000
  C   C159      1.0  0.40060  0.20747  0.79143  1.0000
  S   S45       1.0  0.65936  0.40931  0.96229  1.0000
  Fe  Fe22      1.0  0.56791  0.11687  0.74852  1.0000
  S   S46       1.0  0.62410  0.13883  0.75883  1.0000
  S   S47       1.0  0.55865  0.11555  0.68848  1.0000
  C   C160      1.0  0.63695  0.26859  0.84840  1.0000
  C   C161      1.0  0.60089  0.25812  0.84379  1.0000
  C   C162      1.0  0.59584  0.21565  0.81855  1.0000
  C   C163      1.0  0.62724  0.18520  0.79633  1.0000
  H   H268      1.0  0.65626  0.18442  0.90537  1.0000
  Fe  Fe23      1.0  0.62917  0.26757  0.01250  1.0000
  H   H269      1.0  0.57711  0.28410  0.85882  1.0000
  H   H270      1.0  0.56801  0.20825  0.81510  1.0000
  H   H271      1.0  0.52790  0.23608  0.95817  1.0000
  H   H272      1.0  0.61521  0.20433  0.94414  1.0000
  N   N12       1.0  0.37456  0.17732  0.82614  1.0000
  Fe  Fe24      1.0  0.48830  0.07669  0.79043  1.0000
  H   H273      1.0  0.59306  0.47712  0.96497  1.0000
  H   H274      1.0  0.65509  0.26945  0.73766  1.0000
  H   H275      1.0  0.59778  0.39886  0.74947  1.0000
  H   H276      1.0  0.51867  0.13397  0.98112  1.0000
  H   H277      1.0  0.53966  0.35814  0.75199  1.0000
  H   H278      1.0  0.42856  0.18606  0.78047  1.0000
  H   H279      1.0  0.63305  0.35988  0.66334  1.0000
  H   H280      1.0  0.54439  0.30822  0.68786  1.0000
  C   C164      1.0  0.66303  0.19476  0.80177  1.0000
  H   H281      1.0  0.39107  0.22686  0.86970  1.0000
  C   C165      1.0  0.63158  0.16822  0.92910  1.0000
  H   H282      1.0  0.51743  0.29119  0.75461  1.0000
  H   H283      1.0  0.36176  0.46926  0.96019  1.0000
  H   H284      1.0  0.59790  0.30181  0.76222  1.0000
  H   H285      1.0  0.50765  0.18687  0.93159  1.0000
  H   H286      1.0  0.62617  0.09652  0.89483  1.0000
  H   H287      1.0  0.53012  0.06619  0.01736  1.0000
  N   N13       1.0  0.57126  0.10779  0.93854  1.0000
  H   H288      1.0  0.55642  0.21089  0.91278  1.0000
  C   C166      1.0  0.60749  0.13064  0.91052  1.0000
  C   C167      1.0  0.54949  0.09344  0.87545  1.0000
  C   C168      1.0  0.53381  0.19838  0.93944  1.0000
  H   H289      1.0  0.57537  0.24317  0.74985  1.0000
  H   H290      1.0  0.64576  0.26400  0.65438  1.0000
  S   S48       1.0  0.54346  0.03257  0.76482  1.0000
  H   H291      1.0  0.66813  0.47633  0.54353  1.0000
  H   H292      1.0  0.64360  0.14599  0.94971  1.0000
  H   H293      1.0  0.40411  0.10008  0.81005  1.0000
  H   H294      1.0  0.36656  0.05633  0.77418  1.0000
  H   H295      1.0  0.42084  0.28950  0.77081  1.0000
  H   H296      1.0  0.60314  0.24613  0.62216  1.0000
  H   H297      1.0  0.42185  0.17055  0.85073  1.0000
  C   C169      1.0  0.37479  0.11690  0.81597  1.0000
  Fe  Fe25      1.0  0.52877  0.03489  0.70793  1.0000
  H   H298      1.0  0.35653  0.09292  0.84113  1.0000
  N   N14       1.0  0.59815  0.29765  0.70083  1.0000
  C   C170      1.0  0.56977  0.28087  0.67952  1.0000
  C   C171      1.0  0.57950  0.28802  0.74418  1.0000
  C   C172      1.0  0.63210  0.26005  0.68666  1.0000
  C   C173      1.0  0.60949  0.35700  0.69154  1.0000
  S   S49       1.0  0.47086  0.07284  0.73511  1.0000
  S   S50       1.0  0.64525  0.32949  0.87186  1.0000
  C   C174      1.0  0.40936  0.26790  0.79937  1.0000
  H   H299      1.0  0.51975  0.06693  0.93420  1.0000
  H   H300      1.0  0.55862  0.23870  0.68828  1.0000
  H   H301      1.0  0.53890  0.13589  0.87617  1.0000
  C   C175      1.0  0.55022  0.03854  0.99619  1.0000
  H   H302      1.0  0.53314  0.31587  0.79471  1.0000
  H   H303      1.0  0.62279  0.21623  0.69160  1.0000
  C   C176      1.0  0.58433  0.28167  0.63405  1.0000
  Fe  Fe26      1.0  0.60832  0.38877  0.01334  1.0000
  C   C177      1.0  0.58280  0.07084  0.96694  1.0000
  H   H304      1.0  0.59693  0.09468  0.98556  1.0000
  H   H305      1.0  0.60195  0.15504  0.88673  1.0000
  C   C178      1.0  0.57073  0.50556  0.97939  1.0000
  H   H306      1.0  0.59912  0.32066  0.62262  1.0000
  H   H307      1.0  0.38370  0.29025  0.81711  1.0000
  H   H308      1.0  0.58557  0.38072  0.68644  1.0000
  C   C179      1.0  0.54023  0.31528  0.76203  1.0000
  H   H309      1.0  0.52788  0.51227  0.56683  1.0000
  H   H310      1.0  0.38241  0.16426  0.92188  1.0000
  C   C180      1.0  0.55005  0.07297  0.91628  1.0000
  H   H311      1.0  0.57805  0.09012  0.85327  1.0000
  H   H312      1.0  0.60425  0.04015  0.95058  1.0000
  C   C181      1.0  0.62209  0.39030  0.72286  1.0000
  H   H313      1.0  0.53006  0.06665  0.86460  1.0000
  H   H314      1.0  0.56247  0.03091  0.91069  1.0000
  C   C182      1.0  0.55130  0.50000  0.01950  1.0000
  H   H315      1.0  0.38316  0.51053  0.57453  1.0000
  H   H316      1.0  0.37643  0.10608  0.89372  1.0000
  H   H317      1.0  0.63308  0.52479  0.00934  1.0000
  H   H318      1.0  0.37623  0.12270  0.75314  1.0000
  C   C183      1.0  0.37082  0.15084  0.89771  1.0000
  H   H319      1.0  0.63333  0.43086  0.71035  1.0000
  H   H320      1.0  0.68157  0.50984  0.99701  1.0000
  H   H321      1.0  0.38926  0.20737  0.76577  1.0000
  H   H322      1.0  0.64494  0.37038  0.73210  1.0000
  C   C184      1.0  0.36091  0.10080  0.78054  1.0000
  H   H323      1.0  0.68129  0.30658  0.69351  1.0000
  S   S51       1.0  0.68243  0.27830  0.96136  1.0000
  H   H324      1.0  0.59433  0.65968  0.27599  1.0000
  C   C185      1.0  0.55730  0.57740  0.52889  1.0000
  S   S52       1.0  0.42811  0.85614  0.06564  1.0000
  H   H325      1.0  0.36252  0.74056  0.10344  1.0000
  Fe  Fe27      1.0  0.51871  0.93188  0.23288  1.0000
  S   S53       1.0  0.51303  0.85565  0.19757  1.0000
  S   S54       1.0  0.48550  0.93709  0.29710  1.0000
  C   C186      1.0  0.45330  0.85582  0.10093  1.0000
  C   C187      1.0  0.47224  0.80900  0.10759  1.0000
  C   C188      1.0  0.49069  0.80971  0.13711  1.0000
  C   C189      1.0  0.49052  0.85721  0.16001  1.0000
  C   C190      1.0  0.47163  0.90405  0.15327  1.0000
  C   C191      1.0  0.45299  0.90323  0.12392  1.0000
  H   H326      1.0  0.47251  0.77220  0.09015  1.0000
  H   H327      1.0  0.50518  0.77328  0.14220  1.0000
  H   H328      1.0  0.47118  0.94076  0.17082  1.0000
  H   H329      1.0  0.43828  0.93953  0.11901  1.0000
  C   C192      1.0  0.53176  0.74956  0.37577  1.0000
  H   H330      1.0  0.59325  0.87963  0.49410  1.0000
  H   H331      1.0  0.40416  0.56343  0.44060  1.0000
  H   H332      1.0  0.63543  0.63413  0.08485  1.0000
  H   H333      1.0  0.64079  0.86910  0.52600  1.0000
  H   H334      1.0  0.64137  0.55556  0.39447  1.0000
  H   H335      1.0  0.59474  0.73834  0.23478  1.0000
  H   H336      1.0  0.58248  0.57804  0.06983  1.0000
  S   S55       1.0  0.57535  0.94706  0.24412  1.0000
  Fe  Fe28      1.0  0.54118  0.95828  0.30788  1.0000
  S   S56       1.0  0.54574  0.92717  0.36672  1.0000
  H   H337      1.0  0.42413  0.62138  0.41168  1.0000
  N   N15       1.0  0.67183  0.92846  0.48342  1.0000
  C   C193      1.0  0.63182  0.80622  0.39018  1.0000
  C   C194      1.0  0.63844  0.82904  0.35253  1.0000
  C   C195      1.0  0.61266  0.86675  0.34492  1.0000
  C   C196      1.0  0.57983  0.88160  0.37492  1.0000
  C   C197      1.0  0.57340  0.85917  0.41270  1.0000
  C   C198      1.0  0.59909  0.82124  0.42023  1.0000
  H   H338      1.0  0.38658  0.79220  0.14357  1.0000
  H   H339      1.0  0.61825  0.88438  0.31590  1.0000
  H   H340      1.0  0.54803  0.87043  0.43606  1.0000
  H   H341      1.0  0.59348  0.80328  0.44913  1.0000
  H   H342      1.0  0.36884  0.81559  0.23230  1.0000
  C   C199      1.0  0.59870  0.91654  0.51022  1.0000
  H   H343      1.0  0.57996  0.80722  0.22738  1.0000
  C   C200      1.0  0.41490  0.63558  0.47426  1.0000
  H   H344      1.0  0.58054  0.65043  0.06284  1.0000
  C   C201      1.0  0.38436  0.82236  0.20075  1.0000
  H   H345      1.0  0.51638  0.76716  0.40514  1.0000
  C   C202      1.0  0.51351  0.54640  0.47974  1.0000
  C   C203      1.0  0.57150  0.66720  0.30411  1.0000
  C   C204      1.0  0.67044  0.89372  0.44839  1.0000
  H   H346      1.0  0.59601  0.95362  0.49345  1.0000
  H   H347      1.0  0.54266  0.61200  0.44208  1.0000
  H   H348      1.0  0.51049  0.67356  0.31450  1.0000
  H   H349      1.0  0.52947  0.70421  0.37862  1.0000
  H   H350      1.0  0.64761  0.54930  0.10505  1.0000
  C   C205      1.0  0.63795  0.91245  0.51756  1.0000
  H   H351      1.0  0.66715  0.84933  0.45636  1.0000
  N   N16       1.0  0.53281  0.75632  0.30266  1.0000
  C   C206      1.0  0.50885  0.77837  0.27832  1.0000
  C   C207      1.0  0.57052  0.78647  0.28979  1.0000
  C   C208      1.0  0.51294  0.77032  0.34529  1.0000
  C   C209      1.0  0.53665  0.69491  0.29622  1.0000
  C   C210      1.0  0.46695  0.75878  0.28941  1.0000
  C   C211      1.0  0.59283  0.78136  0.24562  1.0000
  S   S57       1.0  0.62317  0.74082  0.51717  1.0000
  H   H352      1.0  0.50848  0.82411  0.27926  1.0000
  H   H353      1.0  0.52140  0.76697  0.24669  1.0000
  H   H354      1.0  0.59006  0.77372  0.30645  1.0000
  H   H355      1.0  0.56608  0.83128  0.29642  1.0000
  H   H356      1.0  0.50958  0.81579  0.34924  1.0000
  H   H357      1.0  0.48366  0.75274  0.35496  1.0000
  H   H358      1.0  0.56183  0.76277  0.36933  1.0000
  H   H359      1.0  0.53875  0.68452  0.26501  1.0000
  H   H360      1.0  0.44926  0.77954  0.31661  1.0000
  H   H361      1.0  0.45482  0.77071  0.26549  1.0000
  H   H362      1.0  0.50681  0.53269  0.06868  1.0000
  C   C212      1.0  0.56099  0.60609  0.49407  1.0000
  C   C213      1.0  0.65115  0.52972  0.07575  1.0000
  C   C214      1.0  0.63830  0.62071  0.05405  1.0000
  Fe  Fe29      1.0  0.66650  0.72789  0.45800  1.0000
  H   H363      1.0  0.56281  0.62582  0.31675  1.0000
  H   H364      1.0  0.58371  0.68895  0.32499  1.0000
  H   H365      1.0  0.58140  0.63941  0.48559  1.0000
  C   C215      1.0  0.40326  0.60888  0.43997  1.0000
  C   C216      1.0  0.59737  0.61282  0.05159  1.0000
  H   H366      1.0  0.64509  0.90427  0.43891  1.0000
  S   S58       1.0  0.42943  0.69448  0.03504  1.0000
  C   C217      1.0  0.53909  0.59056  0.46950  1.0000
  H   H367      1.0  0.62236  0.79701  0.24088  1.0000
  C   C218      1.0  0.36499  0.79243  0.17321  1.0000
  H   H368      1.0  0.36361  0.87524  0.13164  1.0000
  H   H369      1.0  0.46414  0.71355  0.29246  1.0000
  S   S59       1.0  0.66540  0.75970  0.39832  1.0000
  H   H370      1.0  0.38803  0.86697  0.19462  1.0000
  H   H371      1.0  0.44449  0.62184  0.47082  1.0000
  C   C219      1.0  0.67177  0.98845  0.47280  1.0000
  H   H372      1.0  0.65562  0.99485  0.45116  1.0000
  H   H373      1.0  0.66383  0.81778  0.32916  1.0000
  H   H374      1.0  0.41749  0.68061  0.46882  1.0000
  H   H375      1.0  0.41335  0.80514  0.19577  1.0000
  H   H376      1.0  0.37485  0.62257  0.43908  1.0000
  S   S60       1.0  0.67276  0.63721  0.46598  1.0000
  N   N17       1.0  0.66386  0.57116  0.04303  1.0000
  S   S61       1.0  0.50849  0.02023  0.22103  1.0000
  H   H377      1.0  0.35525  0.70528  0.47678  1.0000
  H   H378      1.0  0.48256  0.00755  0.41465  1.0000
  C   C220      1.0  0.52199  0.53684  0.03767  1.0000
  H   H379      1.0  0.38050  0.53827  0.50211  1.0000
  C   C221      1.0  0.39129  0.56306  0.52306  1.0000
  H   H380      1.0  0.36117  0.74858  0.18248  1.0000
  H   H381      1.0  0.42126  0.54891  0.51692  1.0000
  N   N18       1.0  0.38939  0.62356  0.51526  1.0000
  H   H382      1.0  0.62251  0.53816  0.46538  1.0000
  H   H383      1.0  0.46455  0.63782  0.52305  1.0000
  Fe  Fe30      1.0  0.63380  0.65201  0.52712  1.0000
  S   S62       1.0  0.48891  0.52538  0.44694  1.0000
  H   H384      1.0  0.65096  0.65695  0.03584  1.0000
  H   H385      1.0  0.62327  0.02488  0.51893  1.0000
  S   S63       1.0  0.42264  0.67649  0.94461  1.0000
  S   S64       1.0  0.47312  0.78045  0.96339  1.0000
  Fe  Fe31      1.0  0.42349  0.76845  0.93980  1.0000
  S   S65       1.0  0.42034  0.80498  0.88252  1.0000
  Fe  Fe32      1.0  0.46920  0.68911  0.97298  1.0000
  H   H386      1.0  0.50740  0.91165  0.77141  1.0000
  S   S66       1.0  0.52334  0.64063  0.94831  1.0000
  C   C222      1.0  0.51186  0.87162  0.75561  1.0000
  H   H387      1.0  0.40756  0.70147  0.53402  1.0000
  C   C223      1.0  0.42713  0.87643  0.87609  1.0000
  C   C224      1.0  0.42745  0.89951  0.83995  1.0000
  C   C225      1.0  0.43595  0.95545  0.83258  1.0000
  C   C226      1.0  0.44268  0.98912  0.86192  1.0000
  C   C227      1.0  0.44094  0.96663  0.89863  1.0000
  C   C228      1.0  0.43374  0.91016  0.90553  1.0000
  H   H388      1.0  0.42191  0.87375  0.81725  1.0000
  H   H389      1.0  0.43700  0.97254  0.80428  1.0000
  C   C229      1.0  0.66134  0.54463  0.00541  1.0000
  H   H390      1.0  0.43331  0.89273  0.93357  1.0000
  H   H391      1.0  0.66371  0.62545  0.97545  1.0000
  C   C230      1.0  0.59387  0.80257  0.73120  1.0000
  H   H392      1.0  0.36262  0.57601  0.58753  1.0000
  H   H393      1.0  0.44896  0.66962  0.57055  1.0000
  H   H394      1.0  0.49011  0.60801  0.03019  1.0000
  H   H395      1.0  0.44591  0.99261  0.92152  1.0000
  C   C231      1.0  0.51252  0.57952  0.01593  1.0000
  S   S67       1.0  0.52912  0.95961  0.66996  1.0000
  H   H396      1.0  0.61809  0.77515  0.71649  1.0000
  C   C232      1.0  0.63603  0.85976  0.60853  1.0000
  C   C233      1.0  0.63901  0.90661  0.63090  1.0000
  C   C234      1.0  0.60642  0.93741  0.65040  1.0000
  C   C235      1.0  0.57067  0.92140  0.64757  1.0000
  C   C236      1.0  0.56762  0.87395  0.62592  1.0000
  C   C237      1.0  0.60011  0.84314  0.60659  1.0000
  H   H397      1.0  0.54839  0.95381  0.83313  1.0000
  H   H398      1.0  0.60901  0.97383  0.66716  1.0000
  H   H399      1.0  0.53999  0.86115  0.62386  1.0000
  H   H400      1.0  0.59734  0.80684  0.58990  1.0000
  H   H401      1.0  0.50727  0.91200  0.83610  1.0000
  H   H402      1.0  0.53831  0.87401  0.73066  1.0000
  Fe  Fe33      1.0  0.38290  0.68877  0.00560  1.0000
  C   C238      1.0  0.51125  0.82330  0.78372  1.0000
  C   C239      1.0  0.53265  0.58583  0.97603  1.0000
  H   H403      1.0  0.57087  0.89681  0.77742  1.0000
  H   H404      1.0  0.37594  0.56209  0.98239  1.0000
  Fe  Fe34      1.0  0.67355  0.75556  0.53968  1.0000
  S   S68       1.0  0.58786  0.59194  0.55719  1.0000
  S   S69       1.0  0.68109  0.66737  0.55397  1.0000
  H   H405      1.0  0.60586  0.84465  0.72990  1.0000
  H   H406      1.0  0.58926  0.86699  0.81291  1.0000
  H   H407      1.0  0.48790  0.86654  0.74277  1.0000
  H   H408      1.0  0.59691  0.60678  0.02073  1.0000
  C   C240      1.0  0.53697  0.91117  0.83730  1.0000
  H   H409      1.0  0.57593  0.91767  0.53901  1.0000
  H   H410      1.0  0.50753  0.78487  0.76793  1.0000
  S   S70       1.0  0.37987  0.78022  0.99850  1.0000
  H   H411      1.0  0.57728  0.55330  0.92698  1.0000
  C   C241      1.0  0.56173  0.54872  0.95787  1.0000
  C   C242      1.0  0.56228  0.87309  0.80522  1.0000
  H   H412      1.0  0.53845  0.70207  0.82891  1.0000
  N   N19       1.0  0.54471  0.81831  0.79999  1.0000
  C   C243      1.0  0.53121  0.79146  0.84004  1.0000
  H   H413      1.0  0.53682  0.89820  0.86722  1.0000
  C   C244      1.0  0.57522  0.78223  0.77361  1.0000
  C   C245      1.0  0.51539  0.73235  0.84091  1.0000
  H   H414      1.0  0.55456  0.79056  0.85416  1.0000
  H   H415      1.0  0.50768  0.81550  0.86049  1.0000
  H   H416      1.0  0.48407  0.82718  0.80791  1.0000
  H   H417      1.0  0.59851  0.77545  0.78724  1.0000
  H   H418      1.0  0.56367  0.74076  0.77005  1.0000
  H   H419      1.0  0.50143  0.72062  0.87211  1.0000
  H   H420      1.0  0.49340  0.72877  0.82535  1.0000
  C   C246      1.0  0.36767  0.54365  0.56457  1.0000
  H   H421      1.0  0.38110  0.66070  0.57332  1.0000
  H   H422      1.0  0.57376  0.79959  0.71334  1.0000
  H   H423      1.0  0.66671  0.91960  0.63266  1.0000
  H   H424      1.0  0.53442  0.01135  0.98119  1.0000
  Fe  Fe35      1.0  0.42958  0.78518  0.02319  1.0000
  C   C247      1.0  0.53075  0.53440  0.53982  1.0000
  C   C248      1.0  0.40304  0.65803  0.54401  1.0000
  H   H425      1.0  0.63639  0.93700  0.54447  1.0000
  C   C249      1.0  0.44068  0.63948  0.55082  1.0000
  S   S71       1.0  0.67782  0.82503  0.58134  1.0000
  H   H426      1.0  0.43764  0.59907  0.56565  1.0000
  C   C250      1.0  0.67080  0.58173  0.96865  1.0000
  H   H427      1.0  0.56274  0.01158  0.01413  1.0000
  H   H428      1.0  0.65353  0.56819  0.94929  1.0000
  H   H429      1.0  0.94201  0.16694  0.26187  1.0000
  S   S72       1.0  0.93133  0.38313  0.46902  1.0000
  H   H430      1.0  0.94889  0.26490  0.26902  1.0000
  Fe  Fe36      1.0  0.95235  0.29647  0.45233  1.0000
  Fe  Fe37      1.0  0.95259  0.37109  0.52139  1.0000
  Fe  Fe38      1.0  0.87748  0.34310  0.50648  1.0000
  C   C251      1.0  0.83117  0.47066  0.47342  1.0000
  S   S73       1.0  0.81693  0.37580  0.51833  1.0000
  S   S74       1.0  0.96738  0.05283  0.30354  1.0000
  C   C252      1.0  0.01118  0.48175  0.51614  1.0000
  S   S75       1.0  0.99088  0.27190  0.39180  1.0000
  C   C253      1.0  0.77094  0.46642  0.52489  1.0000
  C   C254      1.0  0.98516  0.20700  0.37151  1.0000
  C   C255      1.0  0.00155  0.28183  0.17902  1.0000
  H   H431      1.0  0.97290  0.22822  0.29714  1.0000
  C   C256      1.0  0.97524  0.11085  0.33040  1.0000
  C   C257      1.0  0.94487  0.13228  0.36096  1.0000
  C   C258      1.0  0.94977  0.18024  0.38144  1.0000
  H   H432      1.0  0.85782  0.45187  0.45693  1.0000
  H   H433      1.0  0.69105  0.42838  0.43536  1.0000
  H   H434      1.0  0.91716  0.11255  0.36816  1.0000
  H   H435      1.0  0.92582  0.19755  0.40393  1.0000
  H   H436      1.0  0.89870  0.51367  0.48328  1.0000
  H   H437      1.0  0.97097  0.27566  0.18125  1.0000
  S   S76       1.0  0.97857  0.28875  0.50167  1.0000
  S   S77       1.0  0.89661  0.25701  0.48536  1.0000
  H   H438      1.0  0.95893  0.31808  0.32230  1.0000
  H   H439      1.0  0.97001  0.19080  0.21497  1.0000
  C   C259      1.0  0.97485  0.24000  0.26644  1.0000
  C   C260      1.0  0.80601  0.44212  0.50452  1.0000
  H   H440      1.0  0.70586  0.49066  0.07485  1.0000
  H   H441      1.0  0.99175  0.15482  0.24718  1.0000
  H   H442      1.0  0.93864  0.50054  0.50004  1.0000
  H   H443      1.0  0.97996  0.33612  0.22773  1.0000
  C   C261      1.0  0.76152  0.51931  0.51495  1.0000
  H   H444      1.0  0.00981  0.43722  0.46388  1.0000
  C   C262      1.0  0.98276  0.34435  0.30495  1.0000
  H   H445      1.0  0.99181  0.36962  0.32686  1.0000
  C   C263      1.0  0.97002  0.18550  0.24577  1.0000
  H   H446      1.0  0.96667  0.05204  0.42330  1.0000
  C   C264      1.0  0.00580  0.31023  0.21646  1.0000
  H   H447      1.0  0.97240  0.37311  0.28652  1.0000
  C   C265      1.0  0.82154  0.52318  0.46312  1.0000
  H   H448      1.0  0.69477  0.44928  0.49658  1.0000
  N   N20       1.0  0.01060  0.27357  0.24856  1.0000
  H   H449      1.0  0.69013  0.33467  0.44438  1.0000
  C   C266      1.0  0.01098  0.13650  0.32142  1.0000
  H   H450      1.0  0.80364  0.43474  0.03209  1.0000
  C   C267      1.0  0.01594  0.18418  0.34209  1.0000
  H   H451      1.0  0.01620  0.24204  0.17239  1.0000
  H   H452      1.0  0.01499  0.30785  0.15295  1.0000
  C   C268      1.0  0.01721  0.31012  0.28065  1.0000
  S   S78       1.0  0.98771  0.08535  0.80385  1.0000
  H   H453      1.0  0.86529  0.11444  0.70088  1.0000
  H   H454      1.0  0.83919  0.19563  0.68801  1.0000
  H   H455      1.0  0.88784  0.21136  0.67599  1.0000
  H   H456      1.0  0.68746  0.17146  0.78471  1.0000
  C   C269      1.0  0.89688  0.26657  0.78148  1.0000
  C   C270      1.0  0.00998  0.43963  0.92984  1.0000
  S   S79       1.0  0.97955  0.43742  0.54905  1.0000
  H   H457      1.0  0.88010  0.45710  0.53831  1.0000
  H   H458      1.0  0.75124  0.44457  0.54893  1.0000
  C   C271      1.0  0.86769  0.48572  0.56322  1.0000
  H   H459      1.0  0.97979  0.04934  0.90873  1.0000
  C   C272      1.0  0.97303  0.22463  0.64957  1.0000
  C   C273      1.0  0.76951  0.44554  0.99280  1.0000
  C   C274      1.0  0.00639  0.34903  0.90015  1.0000
  H   H460      1.0  0.98542  0.26213  0.65710  1.0000
  C   C275      1.0  0.94114  0.17627  0.60818  1.0000
  C   C276      1.0  0.93959  0.12890  0.63087  1.0000
  C   C277      1.0  0.95426  0.12963  0.66319  1.0000
  C   C278      1.0  0.79657  0.46213  0.01154  1.0000
  H   H461      1.0  0.85754  0.08228  0.74740  1.0000
  C   C279      1.0  0.95853  0.22387  0.61718  1.0000
  H   H462      1.0  0.92590  0.09212  0.62416  1.0000
  H   H463      1.0  0.82379  0.29836  0.69381  1.0000
  C   C280      1.0  0.85943  0.22570  0.69433  1.0000
  H   H464      1.0  0.95972  0.26063  0.59992  1.0000
  H   H465      1.0  0.91920  0.29803  0.78064  1.0000
  H   H466      1.0  0.98434  0.35658  0.98095  1.0000
  H   H467      1.0  0.88115  0.30927  0.73636  1.0000
  C   C281      1.0  0.76090  0.48104  0.96595  1.0000
  N   N21       1.0  0.85804  0.22647  0.73721  1.0000
  C   C282      1.0  0.88851  0.26622  0.74134  1.0000
  C   C283      1.0  0.78400  0.21562  0.76156  1.0000
  C   C284      1.0  0.86755  0.17026  0.74935  1.0000
  C   C285      1.0  0.82022  0.24627  0.76387  1.0000
  H   H468      1.0  0.87155  0.27777  0.80630  1.0000
  C   C286      1.0  0.97063  0.17776  0.67289  1.0000
  C   C287      1.0  0.85123  0.11987  0.73302  1.0000
  S   S80       1.0  0.89773  0.33594  0.56007  1.0000
  H   H469      1.0  0.91614  0.25777  0.71847  1.0000
  H   H470      1.0  0.74081  0.46826  0.95064  1.0000
  C   C288      1.0  0.01570  0.35790  0.96667  1.0000
  S   S81       1.0  0.74755  0.38008  0.00357  1.0000
  H   H471      1.0  0.89904  0.16391  0.73971  1.0000
  H   H472      1.0  0.85850  0.16666  0.78209  1.0000
  H   H473      1.0  0.81962  0.24363  0.79528  1.0000
  S   S82       1.0  0.91858  0.17604  0.57091  1.0000
  H   H474      1.0  0.97724  0.33562  0.91769  1.0000
  H   H475      1.0  0.75944  0.24430  0.77029  1.0000
  H   H476      1.0  0.90860  0.22682  0.78747  1.0000
  H   H477      1.0  0.82000  0.12149  0.73889  1.0000
  H   H478      1.0  0.95166  0.09362  0.68144  1.0000
  H   H479      1.0  0.78506  0.20164  0.73160  1.0000
  H   H480      1.0  0.69593  0.24494  0.83032  1.0000
  Fe  Fe39      1.0  0.92184  0.25419  0.53582  1.0000
  C   C289      1.0  0.81413  0.51427  0.00440  1.0000
  H   H481      1.0  0.87496  0.31123  0.67558  1.0000
  H   H482      1.0  0.81613  0.29095  0.76003  1.0000
  C   C290      1.0  0.85183  0.28092  0.67723  1.0000
  H   H483      1.0  0.01714  0.05347  0.95431  1.0000
  H   H484      1.0  0.77752  0.18017  0.78199  1.0000
  H   H485      1.0  0.85141  0.27387  0.64637  1.0000
  H   H486      1.0  0.99893  0.06697  0.00506  1.0000
  S   S83       1.0  0.98423  0.18282  0.71634  1.0000
  H   H487      1.0  0.96839  0.07617  0.97419  1.0000
  H   H488      1.0  0.96164  0.44212  0.98452  1.0000
  H   H489      1.0  0.95864  0.48939  0.94795  1.0000
  H   H490      1.0  0.86324  0.46150  0.59057  1.0000
  Fe  Fe40      1.0  0.69155  0.35634  0.99251  1.0000
  Fe  Fe41      1.0  0.00715  0.10905  0.74016  1.0000
  H   H491      1.0  0.01432  0.45857  0.90043  1.0000
  H   H492      1.0  0.94876  0.41844  0.94137  1.0000
  H   H493      1.0  0.92026  0.51794  0.56982  1.0000
  H   H494      1.0  0.83911  0.49902  0.56253  1.0000
  H   H495      1.0  0.00225  0.37567  0.87643  1.0000
  C   C291      1.0  0.96724  0.44678  0.95222  1.0000
  H   H496      1.0  0.68491  0.23393  0.69622  1.0000
  H   H497      1.0  0.01323  0.26864  0.95727  1.0000
  C   C292      1.0  0.99094  0.04988  0.97947  1.0000
  H   H498      1.0  0.00669  0.26538  0.87731  1.0000
  C   C293      1.0  0.70454  0.58896  0.03704  1.0000
  S   S84       1.0  0.77751  0.61594  0.47181  1.0000
  C   C294      1.0  0.70505  0.89876  0.41107  1.0000
  H   H499      1.0  0.84992  0.67133  0.50218  1.0000
  H   H500      1.0  0.95882  0.67098  0.20408  1.0000
  S   S85       1.0  0.89575  0.78453  0.09043  1.0000
  H   H501      1.0  0.70800  0.86906  0.49952  1.0000
  H   H502      1.0  0.93624  0.59652  0.44490  1.0000
  H   H503      1.0  0.70132  0.00273  0.45742  1.0000
  H   H504      1.0  0.97750  0.00512  0.45781  1.0000
  C   C295      1.0  0.99639  0.86683  0.07092  1.0000
  C   C296      1.0  0.93294  0.82711  0.09616  1.0000
  C   C297      1.0  0.96738  0.83204  0.06602  1.0000
  C   C298      1.0  0.99167  0.89575  0.10644  1.0000
  Fe  Fe42      1.0  0.01513  0.02140  0.25145  1.0000
  C   C299      1.0  0.95755  0.89004  0.13698  1.0000
  C   C300      1.0  0.92810  0.85626  0.13164  1.0000
  C   C301      1.0  0.92177  0.53431  0.49253  1.0000
  C   C302      1.0  0.87399  0.64186  0.49291  1.0000
  H   H505      1.0  0.95357  0.91243  0.16437  1.0000
  H   H506      1.0  0.90152  0.85260  0.15511  1.0000
  H   H507      1.0  0.69740  0.65395  0.08241  1.0000
  H   H508      1.0  0.01369  0.96706  0.32263  1.0000
  H   H509      1.0  0.96206  0.97899  0.37884  1.0000
  C   C303      1.0  0.71307  0.61493  0.07325  1.0000
  C   C304      1.0  0.92758  0.67685  0.14486  1.0000
  C   C305      1.0  0.97672  0.96709  0.40093  1.0000
  H   H510      1.0  0.74403  0.62503  0.06517  1.0000
  C   C306      1.0  0.96310  0.00937  0.43480  1.0000
  H   H511      1.0  0.97636  0.57343  0.46021  1.0000
  H   H512      1.0  0.96314  0.71455  0.09238  1.0000
  H   H513      1.0  0.73356  0.92120  0.46763  1.0000
  H   H514      1.0  0.91951  0.71454  0.16310  1.0000
  H   H515      1.0  0.71346  0.94202  0.40350  1.0000
  C   C307      1.0  0.78686  0.54804  0.48404  1.0000
  H   H516      1.0  0.70693  0.58630  0.09845  1.0000
  C   C308      1.0  0.96637  0.68214  0.11300  1.0000
  H   H517      1.0  0.69762  0.88021  0.38559  1.0000
  H   H518      1.0  0.87299  0.62196  0.46497  1.0000
  S   S86       1.0  0.71658  0.74927  0.47954  1.0000
  H   H519      1.0  0.01119  0.87074  0.30707  1.0000
  S   S87       1.0  0.88436  0.63764  0.04855  1.0000
  C   C309      1.0  0.99511  0.74913  0.14827  1.0000
  C   C310      1.0  0.00670  0.88170  0.33855  1.0000
  H   H520      1.0  0.97011  0.74920  0.17496  1.0000
  H   H521      1.0  0.97149  0.80950  0.03876  1.0000
  H   H522      1.0  0.00265  0.60770  0.13886  1.0000
  H   H523      1.0  0.96416  0.92668  0.41266  1.0000
  Fe  Fe43      1.0  0.90789  0.72384  0.03941  1.0000
  H   H524      1.0  0.95610  0.53004  0.43111  1.0000
  H   H525      1.0  0.84895  0.56814  0.52062  1.0000
  C   C311      1.0  0.00829  0.64806  0.15125  1.0000
  H   H526      1.0  0.89997  0.66744  0.48748  1.0000
  S   S88       1.0  0.97266  0.54562  0.03848  1.0000
  Fe  Fe44      1.0  0.71976  0.65901  0.49196  1.0000
  H   H527      1.0  0.92641  0.64005  0.16329  1.0000
  C   C312      1.0  0.94892  0.56102  0.45538  1.0000
  H   H528      1.0  0.97547  0.88142  0.35297  1.0000
  H   H529      1.0  0.72974  0.87510  0.41410  1.0000
  H   H530      1.0  0.84113  0.54477  0.43887  1.0000
  H   H531      1.0  0.93204  0.00343  0.44922  1.0000
  C   C313      1.0  0.98612  0.64860  0.19580  1.0000
  H   H532      1.0  0.90519  0.67073  0.12993  1.0000
  C   C314      1.0  0.70787  0.91379  0.49311  1.0000
  H   H533      1.0  0.94626  0.63729  0.50653  1.0000
  H   H534      1.0  0.00442  0.66478  0.21332  1.0000
  H   H535      1.0  0.97919  0.60557  0.20571  1.0000
  H   H536      1.0  0.96995  0.64272  0.09619  1.0000
  H   H537      1.0  0.01312  0.93029  0.46819  1.0000
  H   H538      1.0  0.98848  0.78122  0.12939  1.0000
  S   S89       1.0  0.01417  0.93360  0.23083  1.0000
  H   H539      1.0  0.72486  0.98805  0.51949  1.0000
  N   N22       1.0  0.00065  0.69453  0.12683  1.0000
  C   C315      1.0  0.71584  0.94511  0.52769  1.0000
  N   N23       1.0  0.90519  0.57093  0.52808  1.0000
  C   C316      1.0  0.86953  0.59895  0.52559  1.0000
  S   S90       1.0  0.93418  0.61318  0.95556  1.0000
  H   H540      1.0  0.72426  0.55389  0.02713  1.0000
  Fe  Fe45      1.0  0.99540  0.99814  0.78242  1.0000
  Fe  Fe46      1.0  0.95242  0.70170  0.95386  1.0000
  S   S91       1.0  0.99756  0.74024  0.90348  1.0000
  H   H541      1.0  0.91634  0.62920  0.59684  1.0000
  H   H542      1.0  0.98931  0.97338  0.01085  1.0000
  H   H543      1.0  0.98279  0.71797  0.76501  1.0000
  H   H544      1.0  0.94601  0.68021  0.56712  1.0000
  S   S92       1.0  0.95066  0.93476  0.81102  1.0000
  C   C317      1.0  0.98335  0.79537  0.87989  1.0000
  C   C318      1.0  0.94523  0.80295  0.88145  1.0000
  C   C319      1.0  0.93532  0.84614  0.86045  1.0000
  C   C320      1.0  0.96334  0.88245  0.83858  1.0000
  H   H545      1.0  0.01039  0.72855  0.69749  1.0000
  H   H546      1.0  0.99012  0.02237  0.59623  1.0000
  H   H547      1.0  0.92354  0.77470  0.89790  1.0000
  H   H548      1.0  0.90591  0.85118  0.86100  1.0000
  S   S93       1.0  0.96785  0.69768  0.01014  1.0000
  H   H549      1.0  0.92213  0.84385  0.00411  1.0000
  H   H550      1.0  0.92687  0.98314  0.95004  1.0000
  H   H551      1.0  0.96691  0.79409  0.70904  1.0000
  C   C321      1.0  0.95464  0.96786  0.93043  1.0000
  H   H552      1.0  0.69162  0.94406  0.55507  1.0000
  C   C322      1.0  0.96913  0.89492  0.97041  1.0000
  N   N24       1.0  0.98074  0.95177  0.95430  1.0000
  H   H553      1.0  0.00875  0.85455  0.76128  1.0000
  H   H554      1.0  0.90700  0.89587  0.97739  1.0000
  Fe  Fe47      1.0  0.94391  0.61257  0.01498  1.0000
  H   H555      1.0  0.97518  0.86388  0.94608  1.0000
  H   H556      1.0  0.99378  0.98326  0.63699  1.0000
  C   C323      1.0  0.92687  0.88739  0.99475  1.0000
  H   H557      1.0  0.91921  0.91232  0.02226  1.0000
  Fe  Fe48      1.0  0.87585  0.64486  0.98867  1.0000
  S   S94       1.0  0.89369  0.73438  0.98257  1.0000
  H   H558      1.0  0.70152  0.57891  0.95182  1.0000
  H   H559      1.0  0.87941  0.55904  0.59107  1.0000
  C   C324      1.0  0.89429  0.53494  0.56420  1.0000
  H   H560      1.0  0.98882  0.76939  0.79834  1.0000
  C   C325      1.0  0.96850  0.81913  0.73472  1.0000
  H   H561      1.0  0.94575  0.99445  0.00598  1.0000
  C   C326      1.0  0.00120  0.87547  0.83809  1.0000
  H   H562      1.0  0.94733  0.93132  0.91488  1.0000
  C   C327      1.0  0.97637  0.99042  0.98880  1.0000
  C   C328      1.0  0.80492  0.55022  0.97821  1.0000
  C   C329      1.0  0.00981  0.82576  0.73654  1.0000
  H   H563      1.0  0.94912  0.80202  0.76236  1.0000
  C   C330      1.0  0.00493  0.74118  0.77438  1.0000
  H   H564      1.0  0.98601  0.88211  0.98999  1.0000
  C   C331      1.0  0.01126  0.83166  0.85816  1.0000
  S   S95       1.0  0.82363  0.61793  0.97102  1.0000
  H   H565      1.0  0.77174  0.56045  0.93798  1.0000
  H   H566      1.0  0.95727  0.86050  0.73139  1.0000
  C   C332      1.0  0.01076  0.00222  0.60885  1.0000
  H   H567      1.0  0.74005  0.92504  0.53477  1.0000
  H   H568      1.0  0.00195  0.67635  0.81686  1.0000
  S   S96       1.0  0.00823  0.02197  0.71880  1.0000
  C   C333      1.0  0.77863  0.53309  0.95864  1.0000
  H   H569      1.0  0.85334  0.61809  0.55422  1.0000
  H   H570      1.0  0.99265  0.99414  0.87281  1.0000
  H   H571      1.0  0.96040  0.58852  0.53546  1.0000
  C   C334      1.0  0.96963  0.01118  0.89797  1.0000
  H   H572      1.0  0.71367  0.61946  0.01280  1.0000
  C   C335      1.0  0.93502  0.61115  0.53285  1.0000
  H   H573      1.0  0.89732  0.67571  0.56765  1.0000
  C   C336      1.0  0.92230  0.65093  0.56835  1.0000
  H   H574      1.0  0.83433  0.52696  0.01963  1.0000
  H   H575      1.0  0.94612  0.02264  0.88587  1.0000
  H   H576      1.0  0.73499  0.53825  0.53157  1.0000
