data_image0
_chemical_formula_structural       FeSHFeS2H3CH3SH7C6H2C2HC3HCHCH2SH3C2NH3CHCFeHFeHSCHCHCHCHC2H3SH3CH2FeHSNCSH2C6H19C3HCNH2CH6C2HC3H5C2HCH2CHCH3SHCHC3HSH4CHSH2CHFeCFeS2HSH2C2HC6H12CH7CHCHC2HSH3CH2CH2FeS2HSHSC6HSH2SH5FeHNC4NC3H9C2HFeH4CH3FeCH2SCH2CHCHCHCHCHC3H6CSH2CFeCS2HSCFeS2HSHFeSHFeS2FeHCH5C6H6C6H2SHNCHC2HNH7CH2CH2CH9SH3CH2CHFeCH4CHCHC2H2C3HC2H3CH5NHCH2CHFeH4SFeS2FeCSCHSFeS2HSC6H3CH3C6H6NCSC3HCHCH3CH7CSHCH5CH3CFeHNHCH5CH2SCSFeC3HFeCHC2HSNCH4CNHFeS2CHSC2FeSHCSH2S2H2FeC6H4C6H3CHCH4CHCH4FeHCNC3H2NH3SH2CH6FeHCHCSHCH2C2H2CH3CHCH9SHCFeSHFeS2CSHFeSFeS2FeS2H2C6H4C6H4C2H3NC8H20FeH4SH2SHC3HCHSFeHCH7FeSFeH2C7H2CH3CHSCHCHC2HSCH2CH2CH2SN2H5C2H6SH3C3HCSCSCH3CHCH4FeHCS2NHNC2H3C6H2FeH2FeHCHCH2CSHSC3HCH3CH5CH2FeH3CH3C2HCSCHCHCH2CH2CH3SCSH2FeS2NHCH2C2SH3CHC6H9CH3C2H2CH3CH2CHCHFeH4CNH2SC3HC2HCHCH5CSH2CSH3C2FeC2HNHNH4C2FeS2CHFeSHC6H4C2H2NC6HCH16CFeHS3H5
_chemical_formula_sum              "Fe48 S96 H576 C336 N24"
_cell_length_a       44.6843
_cell_length_b       29.667
_cell_length_c       37.0293
_cell_angle_alpha    90.3432
_cell_angle_beta     90.3633
_cell_angle_gamma    89.2672

_space_group_name_H-M_alt    "P 1"
_space_group_IT_number       1

loop_
  _space_group_symop_operation_xyz
  'x, y, z'

loop_
  _atom_site_type_symbol
  _atom_site_label
  _atom_site_symmetry_multiplicity
  _atom_site_fract_x
  _atom_site_fract_y
  _atom_site_fract_z
  _atom_site_occupancy
  Fe  Fe1       1.0  0.00530  0.05509  0.30133  1.0000
  S   S1        1.0  0.01662  0.12916  0.30969  1.0000
  H   H1        1.0  0.30860  0.23763  0.44668  1.0000
  Fe  Fe2       1.0  0.08380  0.29361  0.46571  1.0000
  S   S2        1.0  0.10174  0.35275  0.43470  1.0000
  S   S3        1.0  0.07303  0.22102  0.44973  1.0000
  H   H2        1.0  0.09006  0.03079  0.31757  1.0000
  H   H3        1.0  0.02627  0.09661  0.38345  1.0000
  H   H4        1.0  0.00406  0.18252  0.17768  1.0000
  C   C1        1.0  0.13003  0.17576  0.33985  1.0000
  H   H5        1.0  0.28229  0.30332  0.40980  1.0000
  H   H6        1.0  0.24299  0.41451  0.46206  1.0000
  H   H7        1.0  0.07912  0.10091  0.23668  1.0000
  S   S4        1.0  0.00757  0.03599  0.24269  1.0000
  H   H8        1.0  0.04876  0.13368  0.43732  1.0000
  H   H9        1.0  0.15129  0.04694  0.26305  1.0000
  H   H10       1.0  0.12959  0.19949  0.36323  1.0000
  H   H11       1.0  0.13081  0.01109  0.29316  1.0000
  H   H12       1.0  0.15634  0.06971  0.34284  1.0000
  H   H13       1.0  0.11757  0.13373  0.27370  1.0000
  H   H14       1.0  0.06472  0.06805  0.27236  1.0000
  C   C2        1.0  0.02981  0.15521  0.34980  1.0000
  C   C3        1.0  0.03856  0.20059  0.34865  1.0000
  C   C4        1.0  0.05094  0.22186  0.37934  1.0000
  C   C5        1.0  0.05489  0.19775  0.41139  1.0000
  C   C6        1.0  0.04578  0.15255  0.41260  1.0000
  C   C7        1.0  0.03306  0.13144  0.38209  1.0000
  H   H15       1.0  0.03632  0.21924  0.32378  1.0000
  H   H16       1.0  0.05806  0.25654  0.37802  1.0000
  C   C8        1.0  0.08564  0.08202  0.26137  1.0000
  C   C9        1.0  0.01219  0.47520  0.46871  1.0000
  H   H17       1.0  0.10053  0.05404  0.25276  1.0000
  C   C10       1.0  0.27289  0.36280  0.48251  1.0000
  C   C11       1.0  0.14473  0.07731  0.31683  1.0000
  C   C12       1.0  0.09289  0.05891  0.33701  1.0000
  H   H18       1.0  0.12665  0.11995  0.37585  1.0000
  C   C13       1.0  0.11470  0.13167  0.35109  1.0000
  H   H19       1.0  0.29292  0.38192  0.47768  1.0000
  C   C14       1.0  0.10223  0.03730  0.37320  1.0000
  H   H20       1.0  0.15871  0.10412  0.30498  1.0000
  H   H21       1.0  0.08228  0.13982  0.29529  1.0000
  S   S5        1.0  0.04877  0.46132  0.45463  1.0000
  H   H22       1.0  0.09184  0.14137  0.36005  1.0000
  H   H23       1.0  0.04499  0.07780  0.00164  1.0000
  H   H24       1.0  0.99466  0.04578  0.09185  1.0000
  C   C15       1.0  0.10027  0.11475  0.28863  1.0000
  C   C16       1.0  0.00684  0.01403  0.08484  1.0000
  N   N1        1.0  0.11330  0.09473  0.32284  1.0000
  H   H25       1.0  0.10026  0.06155  0.39603  1.0000
  H   H26       1.0  0.12510  0.02246  0.37220  1.0000
  H   H27       1.0  0.11791  0.19300  0.31753  1.0000
  C   C17       1.0  0.14881  0.03616  0.29155  1.0000
  H   H28       1.0  0.15382  0.17033  0.33263  1.0000
  C   C18       1.0  0.28925  0.26904  0.40055  1.0000
  Fe  Fe3       1.0  0.13570  0.35873  0.47982  1.0000
  H   H29       1.0  0.06988  0.07308  0.34050  1.0000
  Fe  Fe4       1.0  0.07167  0.39549  0.47035  1.0000
  H   H30       1.0  0.27046  0.24561  0.40514  1.0000
  S   S6        1.0  0.18322  0.38237  0.46891  1.0000
  C   C19       1.0  0.02803  0.00533  0.11707  1.0000
  H   H31       1.0  0.01589  0.00771  0.14305  1.0000
  C   C20       1.0  0.24454  0.38119  0.47372  1.0000
  H   H32       1.0  0.04506  0.03227  0.11792  1.0000
  C   C21       1.0  0.21822  0.35702  0.48007  1.0000
  H   H33       1.0  0.29298  0.27182  0.37119  1.0000
  C   C22       1.0  0.22050  0.31400  0.49516  1.0000
  H   H34       1.0  0.16939  0.01726  0.29962  1.0000
  C   C23       1.0  0.27518  0.31984  0.49763  1.0000
  C   C24       1.0  0.32248  0.17961  0.39381  1.0000
  H   H35       1.0  0.00409  0.22969  0.20762  1.0000
  H   H36       1.0  0.99277  0.41222  0.45236  1.0000
  H   H37       1.0  0.31139  0.16586  0.41816  1.0000
  S   S7        1.0  0.05105  0.33618  0.49757  1.0000
  H   H38       1.0  0.02110  0.02203  0.06113  1.0000
  H   H39       1.0  0.30380  0.18647  0.37448  1.0000
  H   H40       1.0  0.08667  0.00939  0.37914  1.0000
  C   C25       1.0  0.31736  0.25392  0.42200  1.0000
  H   H41       1.0  0.99189  0.21117  0.28264  1.0000
  H   H42       1.0  0.99218  0.15580  0.23850  1.0000
  Fe  Fe5       1.0  0.08827  0.34378  0.53795  1.0000
  H   H43       1.0  0.28499  0.08842  0.89650  1.0000
  S   S8        1.0  0.07708  0.33610  0.59706  1.0000
  N   N2        1.0  0.18871  0.36571  0.60603  1.0000
  C   C26       1.0  0.01619  0.23613  0.88367  1.0000
  S   S9        1.0  0.03713  0.48148  0.80521  1.0000
  H   H44       1.0  0.05976  0.23593  0.85587  1.0000
  H   H45       1.0  0.02962  0.16055  0.95274  1.0000
  C   C27       1.0  0.07444  0.38346  0.62586  1.0000
  C   C28       1.0  0.05745  0.38069  0.65748  1.0000
  C   C29       1.0  0.05561  0.41741  0.68157  1.0000
  C   C30       1.0  0.07158  0.45661  0.67475  1.0000
  C   C31       1.0  0.08874  0.45929  0.64320  1.0000
  C   C32       1.0  0.08972  0.42314  0.61848  1.0000
  H   H46       1.0  0.23907  0.37697  0.55508  1.0000
  H   H47       1.0  0.04259  0.41479  0.70600  1.0000
  H   H48       1.0  0.17479  0.43968  0.53325  1.0000
  H   H49       1.0  0.10282  0.42560  0.59417  1.0000
  H   H50       1.0  0.00329  0.26156  0.89956  1.0000
  H   H51       1.0  0.21108  0.42745  0.62230  1.0000
  H   H52       1.0  0.17853  0.36166  0.54864  1.0000
  H   H53       1.0  0.20045  0.29496  0.50001  1.0000
  H   H54       1.0  0.00157  0.37958  0.53722  1.0000
  H   H55       1.0  0.17688  0.45739  0.66460  1.0000
  H   H56       1.0  0.04132  0.08518  0.87035  1.0000
  H   H57       1.0  0.14470  0.35145  0.62773  1.0000
  H   H58       1.0  0.14994  0.38727  0.57436  1.0000
  H   H59       1.0  0.99403  0.10688  0.98769  1.0000
  H   H60       1.0  0.20924  0.43501  0.55730  1.0000
  H   H61       1.0  0.00040  0.32784  0.56145  1.0000
  H   H62       1.0  0.04279  0.10242  0.91643  1.0000
  H   H63       1.0  0.26292  0.34101  0.58036  1.0000
  H   H64       1.0  0.04409  0.29038  0.86483  1.0000
  C   C33       1.0  0.03932  0.01527  0.97271  1.0000
  C   C34       1.0  0.02534  0.46059  0.57598  1.0000
  C   C35       1.0  0.21664  0.33858  0.59746  1.0000
  H   H65       1.0  0.02188  0.15800  0.84993  1.0000
  C   C36       1.0  0.16668  0.33416  0.62319  1.0000
  N   N3        1.0  0.01609  0.19090  0.90202  1.0000
  H   H66       1.0  0.21195  0.31220  0.57675  1.0000
  H   H67       1.0  0.05734  0.19450  0.93325  1.0000
  C   C37       1.0  0.24349  0.36464  0.58276  1.0000
  H   H68       1.0  0.15517  0.29832  0.57270  1.0000
  H   H69       1.0  0.26212  0.02127  0.91522  1.0000
  H   H70       1.0  0.31341  0.09285  0.86223  1.0000
  H   H71       1.0  0.20932  0.38640  0.65644  1.0000
  H   H72       1.0  0.17471  0.32331  0.65040  1.0000
  H   H73       1.0  0.25080  0.39241  0.60072  1.0000
  C   C38       1.0  0.19626  0.40145  0.63365  1.0000
  C   C39       1.0  0.02987  0.05775  0.98545  1.0000
  H   H74       1.0  0.17656  0.45896  0.57866  1.0000
  C   C40       1.0  0.03029  0.10726  0.89076  1.0000
  C   C41       1.0  0.17474  0.38484  0.57198  1.0000
  C   C42       1.0  0.04726  0.25604  0.87626  1.0000
  H   H75       1.0  0.03660  0.48529  0.55838  1.0000
  H   H76       1.0  0.13903  0.27551  0.61253  1.0000
  H   H77       1.0  0.22466  0.32023  0.62195  1.0000
  H   H78       1.0  0.17792  0.26567  0.60385  1.0000
  H   H79       1.0  0.04575  0.34993  0.66348  1.0000
  C   C43       1.0  0.03125  0.15663  0.87784  1.0000
  C   C44       1.0  0.03277  0.19240  0.93755  1.0000
  H   H80       1.0  0.03061  0.46972  0.60430  1.0000
  C   C45       1.0  0.15955  0.29104  0.60150  1.0000
  H   H81       1.0  0.15250  0.43687  0.62971  1.0000
  H   H82       1.0  0.10149  0.48922  0.63796  1.0000
  C   C46       1.0  0.16915  0.42652  0.65039  1.0000
  H   H83       1.0  0.15792  0.40540  0.67080  1.0000
  C   C47       1.0  0.00097  0.07437  0.97747  1.0000
  H   H84       1.0  0.05539  0.16442  0.87483  1.0000
  H   H85       1.0  0.06095  0.25982  0.90110  1.0000
  H   H86       1.0  0.03609  0.22674  0.98950  1.0000
  S   S10       1.0  0.10681  0.40564  0.51299  1.0000
  H   H87       1.0  0.03547  0.42722  0.56941  1.0000
  C   C48       1.0  0.30406  0.07062  0.88329  1.0000
  H   H88       1.0  0.29573  0.04097  0.86830  1.0000
  C   C49       1.0  0.18477  0.43216  0.56014  1.0000
  C   C50       1.0  0.29867  0.01821  0.95617  1.0000
  C   C51       1.0  0.24887  0.29549  0.50375  1.0000
  H   H89       1.0  0.29564  0.05296  0.96721  1.0000
  S   S11       1.0  0.11992  0.29714  0.50853  1.0000
  H   H90       1.0  0.02952  0.26462  0.95300  1.0000
  H   H91       1.0  0.99384  0.45279  0.64079  1.0000
  H   H92       1.0  0.00717  0.09479  0.89378  1.0000
  H   H93       1.0  0.00688  0.38476  0.60733  1.0000
  C   C52       1.0  0.02374  0.23098  0.96359  1.0000
  H   H94       1.0  0.00460  0.23447  0.85704  1.0000
  S   S12       1.0  0.31021  0.29491  0.50921  1.0000
  H   H95       1.0  0.99963  0.23064  0.97005  1.0000
  H   H96       1.0  0.25045  0.26217  0.51538  1.0000
  C   C53       1.0  0.26816  0.00374  0.94053  1.0000
  H   H97       1.0  0.25038  0.01177  0.96050  1.0000
  Fe  Fe6       1.0  0.02802  0.97091  0.26095  1.0000
  C   C54       1.0  0.27528  0.84512  0.09092  1.0000
  Fe  Fe7       1.0  0.07647  0.84539  0.03531  1.0000
  S   S13       1.0  0.05236  0.83116  0.08777  1.0000
  S   S14       1.0  0.11384  0.89455  0.02984  1.0000
  H   H98       1.0  0.01664  0.50425  0.37911  1.0000
  S   S15       1.0  0.06924  0.95163  0.22914  1.0000
  H   H99       1.0  0.99400  0.56295  0.33130  1.0000
  H   H100      1.0  0.04059  0.97305  0.11497  1.0000
  C   C55       1.0  0.00291  0.93541  0.06438  1.0000
  C   C56       1.0  0.99518  0.52368  0.37924  1.0000
  H   H101      1.0  0.99486  0.68521  0.30361  1.0000
  C   C57       1.0  0.05717  0.86594  0.12632  1.0000
  C   C58       1.0  0.03618  0.86396  0.15431  1.0000
  C   C59       1.0  0.03929  0.89093  0.18547  1.0000
  C   C60       1.0  0.06385  0.91936  0.18932  1.0000
  C   C61       1.0  0.08494  0.92122  0.16142  1.0000
  C   C62       1.0  0.08142  0.89506  0.12982  1.0000
  H   H102      1.0  0.29235  0.80060  0.13240  1.0000
  H   H103      1.0  0.02309  0.88879  0.20691  1.0000
  H   H104      1.0  0.10408  0.94295  0.16421  1.0000
  H   H105      1.0  0.09784  0.89666  0.10859  1.0000
  H   H106      1.0  0.29606  0.85876  0.14230  1.0000
  H   H107      1.0  0.02006  0.62532  0.45644  1.0000
  H   H108      1.0  0.02451  0.54179  0.48628  1.0000
  H   H109      1.0  0.02065  0.94401  0.04457  1.0000
  H   H110      1.0  0.99534  0.62538  0.29881  1.0000
  H   H111      1.0  0.01747  0.84135  0.15188  1.0000
  H   H112      1.0  0.25018  0.93908  0.00423  1.0000
  H   H113      1.0  0.25684  0.82035  0.09167  1.0000
  C   C63       1.0  0.00620  0.51888  0.48174  1.0000
  H   H114      1.0  0.26473  0.87850  0.09663  1.0000
  H   H115      1.0  0.99496  0.94176  0.14690  1.0000
  H   H116      1.0  0.28341  0.84527  0.06287  1.0000
  H   H117      1.0  0.03245  0.58905  0.42085  1.0000
  H   H118      1.0  0.32140  0.79857  0.03565  1.0000
  H   H119      1.0  0.30972  0.92167  0.10586  1.0000
  H   H120      1.0  0.29690  0.76630  0.06431  1.0000
  C   C64       1.0  0.29898  0.83326  0.12032  1.0000
  H   H121      1.0  0.02392  0.57627  0.35988  1.0000
  C   C65       1.0  0.01961  0.62050  0.42666  1.0000
  H   H122      1.0  0.01527  0.92078  0.08764  1.0000
  C   C66       1.0  0.32050  0.77330  0.05745  1.0000
  C   C67       1.0  0.99948  0.56925  0.36020  1.0000
  H   H123      1.0  0.03096  0.64993  0.41493  1.0000
  S   S16       1.0  0.02918  0.99199  0.31960  1.0000
  H   H124      1.0  0.01718  0.65411  0.35758  1.0000
  H   H125      1.0  0.99760  0.86506  0.04838  1.0000
  H   H126      1.0  0.32494  0.79356  0.17932  1.0000
  C   C68       1.0  0.99248  0.65081  0.35513  1.0000
  H   H127      1.0  0.19964  0.90530  0.00042  1.0000
  H   H128      1.0  0.01309  0.69568  0.66443  1.0000
  C   C69       1.0  0.01964  0.98958  0.95177  1.0000
  H   H129      1.0  0.29038  0.81227  0.97391  1.0000
  H   H130      1.0  0.06869  0.55361  0.63676  1.0000
  Fe  Fe8       1.0  0.07326  0.82619  0.95338  1.0000
  S   S17       1.0  0.05385  0.79192  0.90302  1.0000
  S   S18       1.0  0.10927  0.87688  0.94245  1.0000
  H   H131      1.0  0.18312  0.64972  0.86160  1.0000
  S   S19       1.0  0.01418  0.57248  0.76084  1.0000
  H   H132      1.0  0.02677  0.95694  0.94153  1.0000
  S   S20       1.0  0.02954  0.58379  0.86973  1.0000
  C   C70       1.0  0.04626  0.73410  0.89466  1.0000
  C   C71       1.0  0.03915  0.72017  0.85926  1.0000
  C   C72       1.0  0.03362  0.67447  0.85113  1.0000
  C   C73       1.0  0.03513  0.64211  0.87843  1.0000
  C   C74       1.0  0.04218  0.65608  0.91384  1.0000
  C   C75       1.0  0.04761  0.70179  0.92199  1.0000
  H   H133      1.0  0.03790  0.74494  0.83796  1.0000
  S   S21       1.0  0.18050  0.81365  0.98211  1.0000
  H   H134      1.0  0.14017  0.80684  0.86376  1.0000
  H   H135      1.0  0.05261  0.71205  0.94942  1.0000
  S   S22       1.0  0.04798  0.87352  0.99033  1.0000
  H   H136      1.0  0.23980  0.77831  0.97077  1.0000
  H   H137      1.0  0.09969  0.61515  0.87841  1.0000
  H   H138      1.0  0.13703  0.60651  0.86437  1.0000
  H   H139      1.0  0.21165  0.63803  0.89455  1.0000
  H   H140      1.0  0.12820  0.61188  0.91177  1.0000
  Fe  Fe9       1.0  0.01373  0.54769  0.81830  1.0000
  H   H141      1.0  0.99776  0.54892  0.62266  1.0000
  N   N4        1.0  0.14567  0.70133  0.90644  1.0000
  C   C76       1.0  0.15557  0.74488  0.88949  1.0000
  C   C77       1.0  0.17366  0.67538  0.91675  1.0000
  C   C78       1.0  0.12860  0.71361  0.94016  1.0000
  C   C79       1.0  0.12600  0.67651  0.87979  1.0000
  N   N5        1.0  0.04413  0.61647  0.62937  1.0000
  C   C80       1.0  0.00801  0.55430  0.64960  1.0000
  C   C81       1.0  0.11812  0.67449  0.96391  1.0000
  C   C82       1.0  0.12315  0.62489  0.88454  1.0000
  H   H142      1.0  0.06447  0.67195  0.65866  1.0000
  H   H143      1.0  0.05626  0.61765  0.57288  1.0000
  H   H144      1.0  0.16863  0.64321  0.93023  1.0000
  H   H145      1.0  0.18675  0.69473  0.93728  1.0000
  H   H146      1.0  0.14229  0.73611  0.95776  1.0000
  H   H147      1.0  0.10791  0.73303  0.93339  1.0000
  H   H148      1.0  0.10293  0.69117  0.87981  1.0000
  H   H149      1.0  0.13433  0.68140  0.85181  1.0000
  H   H150      1.0  0.11948  0.58099  0.63464  1.0000
  C   C83       1.0  0.01896  0.60304  0.65388  1.0000
  C   C84       1.0  0.19503  0.66376  0.88538  1.0000
  H   H151      1.0  0.03167  0.73404  0.63568  1.0000
  Fe  Fe10      1.0  0.08589  0.92105  0.98342  1.0000
  H   H152      1.0  0.03913  0.56762  0.58564  1.0000
  H   H153      1.0  0.13683  0.65329  0.97418  1.0000
  H   H154      1.0  0.10113  0.65383  0.94987  1.0000
  H   H155      1.0  0.04323  0.63136  0.93519  1.0000
  C   C85       1.0  0.05068  0.66610  0.63386  1.0000
  H   H156      1.0  0.11283  0.76336  0.86212  1.0000
  H   H157      1.0  0.12023  0.79405  0.90358  1.0000
  H   H158      1.0  0.01186  0.65689  0.56168  1.0000
  Fe  Fe11      1.0  0.13378  0.84546  0.98946  1.0000
  C   C86       1.0  0.07159  0.59026  0.64142  1.0000
  H   H159      1.0  0.26762  0.96664  0.93618  1.0000
  H   H160      1.0  0.10075  0.59468  0.59347  1.0000
  S   S23       1.0  0.09826  0.79338  0.99908  1.0000
  C   C87       1.0  0.03813  0.60475  0.59031  1.0000
  H   H161      1.0  0.10760  0.63781  0.62753  1.0000
  H   H162      1.0  0.06431  0.67836  0.61092  1.0000
  C   C88       1.0  0.00879  0.62288  0.57339  1.0000
  H   H163      1.0  0.16800  0.73825  0.86405  1.0000
  C   C89       1.0  0.32366  0.97528  0.90644  1.0000
  H   H164      1.0  0.02822  0.66427  0.82379  1.0000
  C   C90       1.0  0.10127  0.60223  0.62282  1.0000
  H   H165      1.0  0.30227  0.97434  0.89122  1.0000
  C   C91       1.0  0.27388  0.87810  0.98910  1.0000
  H   H166      1.0  0.17138  0.76306  0.90780  1.0000
  C   C92       1.0  0.21612  0.83952  0.98523  1.0000
  H   H167      1.0  0.07530  0.59427  0.67111  1.0000
  C   C93       1.0  0.24201  0.81348  0.97804  1.0000
  C   C94       1.0  0.13047  0.77867  0.87925  1.0000
  C   C95       1.0  0.27075  0.83262  0.97988  1.0000
  H   H168      1.0  0.00147  0.59964  0.55151  1.0000
  H   H169      1.0  0.00661  0.69444  0.61616  1.0000
  H   H170      1.0  0.20794  0.69371  0.87718  1.0000
  H   H171      1.0  0.10680  0.68892  0.98807  1.0000
  H   H172      1.0  0.02535  0.60837  0.68275  1.0000
  H   H173      1.0  0.99886  0.62436  0.64989  1.0000
  C   C96       1.0  0.02371  0.69881  0.63752  1.0000
  S   S24       1.0  0.07617  0.99635  0.98223  1.0000
  H   H174      1.0  0.02578  0.52884  0.65445  1.0000
  H   H175      1.0  0.30221  0.99659  0.98033  1.0000
  C   C97       1.0  0.24804  0.90399  0.99671  1.0000
  Fe  Fe12      1.0  0.03421  0.50438  0.74746  1.0000
  C   C98       1.0  0.21932  0.88493  0.99466  1.0000
  S   S25       1.0  0.07080  0.50257  0.70518  1.0000
  S   S26       1.0  0.30932  0.90447  0.99171  1.0000
  H   H176      1.0  0.32395  0.94350  0.92234  1.0000
  S   S27       1.0  0.62431  0.21025  0.03343  1.0000
  C   C99       1.0  0.46804  0.07436  0.08306  1.0000
  Fe  Fe13      1.0  0.58608  0.16539  0.04824  1.0000
  S   S28       1.0  0.55907  0.17275  0.09957  1.0000
  S   S29       1.0  0.61061  0.10204  0.03310  1.0000
  H   H177      1.0  0.35134  0.15178  0.35056  1.0000
  S   S30       1.0  0.48476  0.05260  0.26652  1.0000
  H   H178      1.0  0.38333  0.19516  0.41248  1.0000
  Fe  Fe14      1.0  0.48417  0.02919  0.32444  1.0000
  S   S31       1.0  0.46889  0.06328  0.37724  1.0000
  H   H179      1.0  0.47115  0.08784  0.05541  1.0000
  Fe  Fe15      1.0  0.41705  0.30106  0.46846  1.0000
  S   S32       1.0  0.37996  0.35097  0.45585  1.0000
  S   S33       1.0  0.43785  0.26875  0.41779  1.0000
  Fe  Fe16      1.0  0.52809  0.01362  0.26219  1.0000
  H   H180      1.0  0.46015  0.01216  0.05601  1.0000
  C   C100      1.0  0.44994  0.49313  0.48261  1.0000
  H   H181      1.0  0.62786  0.16376  0.10865  1.0000
  H   H182      1.0  0.52919  0.43198  0.41646  1.0000
  H   H183      1.0  0.59379  0.08929  0.10865  1.0000
  H   H184      1.0  0.47129  0.43046  0.49664  1.0000
  H   H185      1.0  0.47414  0.03502  0.15550  1.0000
  C   C101      1.0  0.44638  0.21138  0.40723  1.0000
  C   C102      1.0  0.45561  0.20016  0.37198  1.0000
  C   C103      1.0  0.46247  0.15512  0.36221  1.0000
  C   C104      1.0  0.46026  0.12069  0.38768  1.0000
  C   C105      1.0  0.45091  0.13194  0.42291  1.0000
  C   C106      1.0  0.44403  0.17696  0.43267  1.0000
  H   H186      1.0  0.45752  0.22643  0.35204  1.0000
  H   H187      1.0  0.46963  0.14705  0.33504  1.0000
  H   H188      1.0  0.44923  0.10567  0.44289  1.0000
  H   H189      1.0  0.43722  0.18503  0.45996  1.0000
  H   H190      1.0  0.52217  0.05115  0.12224  1.0000
  H   H191      1.0  0.43586  0.40392  0.43020  1.0000
  C   C107      1.0  0.55988  0.13107  0.13350  1.0000
  C   C108      1.0  0.54117  0.13622  0.16359  1.0000
  C   C109      1.0  0.54258  0.10528  0.19224  1.0000
  C   C110      1.0  0.56314  0.06937  0.19126  1.0000
  C   C111      1.0  0.58133  0.06357  0.16078  1.0000
  C   C112      1.0  0.57948  0.09395  0.13178  1.0000
  H   H192      1.0  0.52584  0.16469  0.16506  1.0000
  H   H193      1.0  0.52850  0.11011  0.21564  1.0000
  S   S34       1.0  0.56814  0.03308  0.22851  1.0000
  H   H194      1.0  0.50922  0.00947  0.03110  1.0000
  N   N6        1.0  0.49489  0.38908  0.39382  1.0000
  C   C113      1.0  0.47179  0.42682  0.39454  1.0000
  H   H195      1.0  0.54374  0.38585  0.39220  1.0000
  C   C114      1.0  0.49273  0.36379  0.42887  1.0000
  C   C115      1.0  0.48814  0.35858  0.36204  1.0000
  H   H196      1.0  0.47009  0.34960  0.43213  1.0000
  N   N7        1.0  0.33872  0.22248  0.40271  1.0000
  H   H197      1.0  0.56490  0.00562  0.08125  1.0000
  H   H198      1.0  0.36943  0.22272  0.35757  1.0000
  H   H199      1.0  0.45313  0.00905  0.10228  1.0000
  H   H200      1.0  0.32757  0.11192  0.37156  1.0000
  H   H201      1.0  0.37549  0.24585  0.43587  1.0000
  H   H202      1.0  0.37904  0.29548  0.39038  1.0000
  H   H203      1.0  0.48470  0.09018  0.10117  1.0000
  C   C116      1.0  0.51411  0.32327  0.43414  1.0000
  H   H204      1.0  0.43182  0.38496  0.38378  1.0000
  H   H205      1.0  0.47979  0.37891  0.33877  1.0000
  C   C117      1.0  0.51429  0.32930  0.34717  1.0000
  H   H206      1.0  0.45974  0.01254  0.48472  1.0000
  H   H207      1.0  0.49624  0.38704  0.45212  1.0000
  C   C118      1.0  0.35000  0.24263  0.36809  1.0000
  H   H208      1.0  0.56370  0.00923  0.03317  1.0000
  H   H209      1.0  0.62531  0.14920  0.15429  1.0000
  H   H210      1.0  0.53799  0.33234  0.43216  1.0000
  H   H211      1.0  0.47129  0.44522  0.36844  1.0000
  H   H212      1.0  0.33292  0.24086  0.34616  1.0000
  H   H213      1.0  0.46954  0.33541  0.36877  1.0000
  H   H214      1.0  0.59698  0.03547  0.15972  1.0000
  H   H215      1.0  0.50558  0.29556  0.33961  1.0000
  H   H216      1.0  0.53306  0.32311  0.36606  1.0000
  S   S35       1.0  0.41295  0.47228  0.48310  1.0000
  H   H217      1.0  0.36020  0.13028  0.39507  1.0000
  H   H218      1.0  0.52326  0.42518  0.33324  1.0000
  H   H219      1.0  0.62810  0.24298  0.12165  1.0000
  C   C119      1.0  0.51990  0.01650  0.05767  1.0000
  H   H220      1.0  0.34203  0.31555  0.37747  1.0000
  H   H221      1.0  0.51087  0.30983  0.46179  1.0000
  C   C120      1.0  0.34184  0.14165  0.37685  1.0000
  H   H222      1.0  0.50688  0.02248  0.18131  1.0000
  Fe  Fe17      1.0  0.64745  0.14709  0.01359  1.0000
  C   C121      1.0  0.52518  0.41084  0.39188  1.0000
  H   H223      1.0  0.44588  0.08562  0.09339  1.0000
  H   H224      1.0  0.65343  0.18837  0.21857  1.0000
  H   H225      1.0  0.52270  0.05378  0.05845  1.0000
  H   H226      1.0  0.42406  0.44235  0.39640  1.0000
  C   C122      1.0  0.43916  0.41298  0.40152  1.0000
  H   H227      1.0  0.55420  0.44953  0.35709  1.0000
  C   C123      1.0  0.36525  0.21359  0.42713  1.0000
  H   H228      1.0  0.50852  0.29525  0.41539  1.0000
  C   C124      1.0  0.51410  0.01596  0.12347  1.0000
  C   C125      1.0  0.36055  0.29180  0.37065  1.0000
  H   H229      1.0  0.52299  0.34381  0.32178  1.0000
  H   H230      1.0  0.50301  0.43763  0.01059  1.0000
  C   C126      1.0  0.35896  0.18718  0.46202  1.0000
  C   C127      1.0  0.50383  0.48044  0.48341  1.0000
  C   C128      1.0  0.63701  0.17220  0.13592  1.0000
  H   H231      1.0  0.38042  0.18211  0.47686  1.0000
  C   C129      1.0  0.49398  0.01226  0.15696  1.0000
  C   C130      1.0  0.46961  0.02226  0.08269  1.0000
  H   H232      1.0  0.35000  0.15317  0.45662  1.0000
  H   H233      1.0  0.60166  0.21938  0.15164  1.0000
  H   H234      1.0  0.64313  0.07982  0.15341  1.0000
  C   C131      1.0  0.62592  0.22033  0.14522  1.0000
  H   H235      1.0  0.47765  0.45265  0.41526  1.0000
  H   H236      1.0  0.51793  0.47414  0.36220  1.0000
  H   H237      1.0  0.63762  0.23497  0.16887  1.0000
  H   H238      1.0  0.45435  0.00354  0.43800  1.0000
  H   H239      1.0  0.36937  0.30210  0.34401  1.0000
  N   N8        1.0  0.50023  0.00143  0.08807  1.0000
  H   H240      1.0  0.65015  0.13105  0.20238  1.0000
  C   C132      1.0  0.53005  0.44145  0.35896  1.0000
  H   H241      1.0  0.52273  0.45760  0.48650  1.0000
  H   H242      1.0  0.32884  0.28432  0.43280  1.0000
  C   C133      1.0  0.47464  0.46477  0.48875  1.0000
  H   H243      1.0  0.34386  0.20613  0.48050  1.0000
  Fe  Fe18      1.0  0.40416  0.39820  0.49370  1.0000
  H   H244      1.0  0.37810  0.03377  0.00100  1.0000
  H   H245      1.0  0.33908  0.04563  0.00438  1.0000
  H   H246      1.0  0.52170  0.40666  0.59868  1.0000
  H   H247      1.0  0.51708  0.10100  0.97439  1.0000
  S   S36       1.0  0.57012  0.05174  0.94974  1.0000
  Fe  Fe19      1.0  0.60289  0.21281  0.97821  1.0000
  S   S37       1.0  0.60578  0.27805  0.94633  1.0000
  S   S38       1.0  0.62816  0.15162  0.95759  1.0000
  Fe  Fe20      1.0  0.50204  0.43733  0.82360  1.0000
  C   C134      1.0  0.53272  0.03549  0.95707  1.0000
  S   S39       1.0  0.50034  0.37462  0.85893  1.0000
  C   C135      1.0  0.57985  0.16397  0.78905  1.0000
  H   H248      1.0  0.43366  0.45252  0.91496  1.0000
  S   S40       1.0  0.50659  0.44090  0.76306  1.0000
  Fe  Fe21      1.0  0.41485  0.32703  0.54970  1.0000
  S   S41       1.0  0.37733  0.37682  0.54173  1.0000
  S   S42       1.0  0.43814  0.31872  0.60388  1.0000
  H   H249      1.0  0.37379  0.00956  0.93815  1.0000
  S   S43       1.0  0.44238  0.35031  0.50315  1.0000
  C   C136      1.0  0.43219  0.43274  0.68856  1.0000
  C   C137      1.0  0.45134  0.39560  0.69386  1.0000
  C   C138      1.0  0.45275  0.36069  0.66794  1.0000
  C   C139      1.0  0.43519  0.36267  0.63637  1.0000
  C   C140      1.0  0.41611  0.39988  0.63114  1.0000
  C   C141      1.0  0.41451  0.43456  0.65716  1.0000
  H   H250      1.0  0.46470  0.39332  0.71815  1.0000
  H   H251      1.0  0.46751  0.33204  0.67235  1.0000
  H   H252      1.0  0.40248  0.40207  0.60716  1.0000
  C   C142      1.0  0.53017  0.39804  0.97517  1.0000
  H   H253      1.0  0.53147  0.27975  0.79904  1.0000
  H   H254      1.0  0.48897  0.38540  0.57728  1.0000
  H   H255      1.0  0.52356  0.44496  0.91098  1.0000
  C   C143      1.0  0.57595  0.30575  0.92360  1.0000
  C   C144      1.0  0.54630  0.29209  0.92724  1.0000
  C   C145      1.0  0.52341  0.31367  0.90723  1.0000
  C   C146      1.0  0.52989  0.34938  0.88384  1.0000
  C   C147      1.0  0.55944  0.36363  0.88076  1.0000
  C   C148      1.0  0.58236  0.34183  0.90056  1.0000
  H   H256      1.0  0.54108  0.26468  0.94518  1.0000
  H   H257      1.0  0.50054  0.30262  0.90985  1.0000
  H   H258      1.0  0.56469  0.39105  0.86283  1.0000
  H   H259      1.0  0.60526  0.35263  0.89769  1.0000
  H   H260      1.0  0.56534  0.17634  0.76662  1.0000
  H   H261      1.0  0.46398  0.07819  0.97890  1.0000
  N   N9        1.0  0.55878  0.18980  0.85146  1.0000
  C   C149      1.0  0.53071  0.18248  0.87317  1.0000
  S   S44       1.0  0.45807  0.47526  0.82424  1.0000
  C   C150      1.0  0.58495  0.18668  0.87736  1.0000
  C   C151      1.0  0.56082  0.15358  0.82270  1.0000
  C   C152      1.0  0.52980  0.13849  0.89520  1.0000
  H   H262      1.0  0.55809  0.26226  0.85795  1.0000
  C   C153      1.0  0.48084  0.05359  0.97109  1.0000
  H   H263      1.0  0.50985  0.42743  0.55475  1.0000
  C   C154      1.0  0.50223  0.41646  0.58164  1.0000
  H   H264      1.0  0.51055  0.18195  0.85538  1.0000
  H   H265      1.0  0.51187  0.37567  0.96616  1.0000
  H   H266      1.0  0.54704  0.40058  0.95353  1.0000
  C   C155      1.0  0.55678  0.23674  0.83598  1.0000
  H   H267      1.0  0.58782  0.15174  0.88775  1.0000
  H   H268      1.0  0.56948  0.12141  0.83444  1.0000
  H   H269      1.0  0.53802  0.14601  0.81208  1.0000
  H   H270      1.0  0.54528  0.13969  0.91871  1.0000
  H   H271      1.0  0.50870  0.25310  0.83157  1.0000
  H   H272      1.0  0.53485  0.10812  0.87864  1.0000
  H   H273      1.0  0.46141  0.43652  0.97229  1.0000
  C   C156      1.0  0.52427  0.46789  0.66370  1.0000
  S   S45       1.0  0.56242  0.17380  0.99473  1.0000
  H   H274      1.0  0.52694  0.21090  0.89250  1.0000
  C   C157      1.0  0.48208  0.45209  0.60027  1.0000
  H   H275      1.0  0.52337  0.22097  0.79352  1.0000
  H   H276      1.0  0.57600  0.24454  0.81853  1.0000
  H   H277      1.0  0.35094  0.06084  0.89739  1.0000
  H   H278      1.0  0.59012  0.13201  0.77898  1.0000
  H   H279      1.0  0.54734  0.46512  0.67492  1.0000
  C   C158      1.0  0.47244  0.00907  0.96334  1.0000
  H   H280      1.0  0.59842  0.18755  0.79351  1.0000
  H   H281      1.0  0.62443  0.17463  0.84322  1.0000
  H   H282      1.0  0.51082  0.48703  0.68383  1.0000
  C   C159      1.0  0.51093  0.06660  0.96852  1.0000
  Fe  Fe22      1.0  0.58919  0.11239  0.97883  1.0000
  H   H283      1.0  0.39957  0.46304  0.65284  1.0000
  N   N10       1.0  0.50217  0.47206  0.95916  1.0000
  H   H284      1.0  0.47942  0.41666  0.93275  1.0000
  C   C160      1.0  0.52832  0.24758  0.81373  1.0000
  H   H285      1.0  0.46173  0.45566  0.58297  1.0000
  H   H286      1.0  0.50698  0.13436  0.90634  1.0000
  H   H287      1.0  0.58065  0.20824  0.90155  1.0000
  H   H288      1.0  0.61622  0.23443  0.85186  1.0000
  H   H289      1.0  0.63204  0.19977  0.88579  1.0000
  C   C161      1.0  0.61584  0.19983  0.86290  1.0000
  H   H290      1.0  0.51563  0.43317  0.66113  1.0000
  H   H291      1.0  0.47415  0.43686  0.62571  1.0000
  S   S46       1.0  0.39330  0.27228  0.51628  1.0000
  C   C162      1.0  0.35313  0.00901  0.95463  1.0000
  S   S47       1.0  0.43001  0.47779  0.72004  1.0000
  Fe  Fe23      1.0  0.46480  0.48319  0.76450  1.0000
  C   C163      1.0  0.47393  0.44801  0.94822  1.0000
  C   C164      1.0  0.32882  0.05907  0.91102  1.0000
  C   C165      1.0  0.51816  0.44456  0.98763  1.0000
  H   H292      1.0  0.54236  0.47531  0.60991  1.0000
  Fe  Fe24      1.0  0.35711  0.32441  0.50519  1.0000
  C   C166      1.0  0.45182  0.47508  0.92430  1.0000
  H   H293      1.0  0.56679  0.47398  0.95058  1.0000
  C   C167      1.0  0.52130  0.47736  0.92611  1.0000
  C   C168      1.0  0.52537  0.49257  0.62715  1.0000
  H   H294      1.0  0.54150  0.38106  0.99827  1.0000
  S   S48       1.0  0.52936  0.49928  0.83285  1.0000
  N   N11       1.0  0.49588  0.49740  0.60758  1.0000
  C   C169      1.0  0.55306  0.49574  0.93260  1.0000
  H   H295      1.0  0.46266  0.48831  0.89992  1.0000
  H   H296      1.0  0.56488  0.49671  0.90630  1.0000
  H   H297      1.0  0.36253  0.07798  0.97434  1.0000
  H   H298      1.0  0.32926  0.08821  0.93004  1.0000
  C   C170      1.0  0.35795  0.04401  0.98513  1.0000
  N   N12       1.0  0.32551  0.01565  0.93140  1.0000
  H   H299      1.0  0.53715  0.46355  0.99964  1.0000
  Fe  Fe25      1.0  0.50496  0.93266  0.30467  1.0000
  S   S49       1.0  0.45950  0.96539  0.31065  1.0000
  S   S50       1.0  0.51100  0.85954  0.32300  1.0000
  C   C171      1.0  0.33886  0.78630  0.09125  1.0000
  H   H300      1.0  0.43590  0.56089  0.46959  1.0000
  S   S51       1.0  0.50716  0.94841  0.24535  1.0000
  C   C172      1.0  0.33974  0.86838  0.08361  1.0000
  C   C173      1.0  0.47621  0.83963  0.46886  1.0000
  Fe  Fe26      1.0  0.41295  0.85210  0.02841  1.0000
  S   S52       1.0  0.42886  0.83584  0.08519  1.0000
  H   H301      1.0  0.46396  0.93967  0.04473  1.0000
  C   C174      1.0  0.44443  0.87277  0.38535  1.0000
  S   S53       1.0  0.54510  0.54153  0.46133  1.0000
  H   H302      1.0  0.42126  0.86791  0.37514  1.0000
  H   H303      1.0  0.34655  0.86829  0.15611  1.0000
  S   S54       1.0  0.57811  0.77768  0.46075  1.0000
  S   S55       1.0  0.60058  0.64461  0.45377  1.0000
  H   H304      1.0  0.48689  0.97718  0.16155  1.0000
  H   H305      1.0  0.50259  0.93411  0.03034  1.0000
  Fe  Fe27      1.0  0.46393  0.98582  0.25265  1.0000
  C   C175      1.0  0.53181  0.83670  0.35971  1.0000
  C   C176      1.0  0.52775  0.79122  0.36887  1.0000
  C   C177      1.0  0.54211  0.77231  0.39934  1.0000
  C   C178      1.0  0.56067  0.79882  0.42104  1.0000
  C   C179      1.0  0.56525  0.84406  0.41148  1.0000
  C   C180      1.0  0.55105  0.86289  0.38087  1.0000
  H   H306      1.0  0.51297  0.77066  0.35262  1.0000
  H   H307      1.0  0.53841  0.73747  0.40634  1.0000
  H   H308      1.0  0.57972  0.86477  0.42801  1.0000
  H   H309      1.0  0.55466  0.89775  0.37391  1.0000
  C   C181      1.0  0.42919  0.94329  0.17520  1.0000
  C   C182      1.0  0.44526  0.90282  0.17934  1.0000
  C   C183      1.0  0.44528  0.87032  0.15142  1.0000
  C   C184      1.0  0.42988  0.87846  0.11889  1.0000
  C   C185      1.0  0.41449  0.91945  0.11458  1.0000
  C   C186      1.0  0.41379  0.95136  0.14275  1.0000
  H   H310      1.0  0.45711  0.89610  0.20434  1.0000
  H   H311      1.0  0.45722  0.83870  0.15515  1.0000
  H   H312      1.0  0.40255  0.92643  0.08995  1.0000
  C   C187      1.0  0.45124  0.98774  0.46465  1.0000
  H   H313      1.0  0.47004  0.55556  0.01497  1.0000
  C   C188      1.0  0.48415  0.55474  0.47008  1.0000
  H   H314      1.0  0.49772  0.85518  0.41899  1.0000
  H   H315      1.0  0.53084  0.98254  0.40004  1.0000
  H   H316      1.0  0.36304  0.78499  0.08375  1.0000
  H   H317      1.0  0.48085  0.94063  0.10931  1.0000
  C   C189      1.0  0.44354  0.90431  0.41862  1.0000
  H   H318      1.0  0.48962  0.94836  0.48402  1.0000
  C   C190      1.0  0.49100  0.94244  0.40772  1.0000
  H   H319      1.0  0.36405  0.86609  0.07738  1.0000
  H   H320      1.0  0.45368  0.83888  0.39177  1.0000
  H   H321      1.0  0.48336  0.50208  0.03066  1.0000
  H   H322      1.0  0.62131  0.71921  0.35372  1.0000
  Fe  Fe28      1.0  0.58119  0.70547  0.48227  1.0000
  H   H323      1.0  0.48764  0.58936  0.46227  1.0000
  C   C191      1.0  0.34839  0.79899  0.17100  1.0000
  N   N13       1.0  0.47352  0.91577  0.43485  1.0000
  C   C192      1.0  0.50872  0.52539  0.47381  1.0000
  C   C193      1.0  0.47382  0.51980  0.00689  1.0000
  C   C194      1.0  0.48680  0.92859  0.05280  1.0000
  H   H324      1.0  0.34857  0.92670  0.11937  1.0000
  H   H325      1.0  0.51863  0.93413  0.09665  1.0000
  N   N14       1.0  0.33133  0.83100  0.10885  1.0000
  H   H326      1.0  0.37515  0.83662  0.13416  1.0000
  H   H327      1.0  0.45729  0.88747  0.36295  1.0000
  H   H328      1.0  0.45489  0.82705  0.45748  1.0000
  S   S56       1.0  0.42735  0.98427  0.20995  1.0000
  H   H329      1.0  0.51301  0.88252  0.45707  1.0000
  H   H330      1.0  0.36097  0.80985  0.19547  1.0000
  C   C195      1.0  0.46832  0.94238  0.46905  1.0000
  H   H331      1.0  0.35892  0.76671  0.16220  1.0000
  H   H332      1.0  0.47659  0.96760  0.39355  1.0000
  H   H333      1.0  0.42870  0.88893  0.43903  1.0000
  H   H334      1.0  0.48571  0.89155  0.05685  1.0000
  H   H335      1.0  0.62060  0.72829  0.41899  1.0000
  H   H336      1.0  0.40136  0.98261  0.13935  1.0000
  Fe  Fe29      1.0  0.56695  0.60418  0.48462  1.0000
  H   H337      1.0  0.60605  0.77340  0.36372  1.0000
  C   C196      1.0  0.49721  0.95084  0.08848  1.0000
  H   H338      1.0  0.65806  0.70100  0.46274  1.0000
  C   C197      1.0  0.49139  0.87381  0.44390  1.0000
  S   S57       1.0  0.38915  0.91711  0.01826  1.0000
  H   H339      1.0  0.33702  0.94063  0.07468  1.0000
  C   C198      1.0  0.51846  0.96753  0.42280  1.0000
  H   H340      1.0  0.49926  0.92021  0.38557  1.0000
  H   H341      1.0  0.55154  0.95870  0.05404  1.0000
  C   C199      1.0  0.35110  0.83578  0.14193  1.0000
  C   C200      1.0  0.62699  0.75277  0.36504  1.0000
  H   H342      1.0  0.43150  0.93555  0.40987  1.0000
  H   H343      1.0  0.47267  0.85339  0.49641  1.0000
  C   C201      1.0  0.45485  0.53850  0.47410  1.0000
  H   H344      1.0  0.53429  0.94474  0.43713  1.0000
  H   H345      1.0  0.45486  0.92263  0.48837  1.0000
  H   H346      1.0  0.63456  0.78395  0.41626  1.0000
  C   C202      1.0  0.33319  0.91679  0.09718  1.0000
  H   H347      1.0  0.49136  0.80980  0.47182  1.0000
  C   C203      1.0  0.63725  0.74934  0.40484  1.0000
  H   H348      1.0  0.42685  0.98329  0.46875  1.0000
  H   H349      1.0  0.64367  0.76944  0.34780  1.0000
  H   H350      1.0  0.51172  0.99598  0.44068  1.0000
  H   H351      1.0  0.64261  0.77590  0.47804  1.0000
  H   H352      1.0  0.45160  0.50567  0.00035  1.0000
  H   H353      1.0  0.32998  0.74154  0.04598  1.0000
  H   H354      1.0  0.32886  0.86518  0.05695  1.0000
  H   H355      1.0  0.33548  0.75805  0.11026  1.0000
  H   H356      1.0  0.53458  0.99554  0.12953  1.0000
  S   S58       1.0  0.52970  0.99496  0.32134  1.0000
  H   H357      1.0  0.65314  0.66250  0.40703  1.0000
  C   C204      1.0  0.55173  0.99588  0.05700  1.0000
  Fe  Fe30      1.0  0.41859  0.92284  0.97014  1.0000
  S   S59       1.0  0.44475  0.85935  0.98182  1.0000
  H   H358      1.0  0.37118  0.96932  0.88926  1.0000
  Fe  Fe31      1.0  0.40891  0.82371  0.94942  1.0000
  S   S60       1.0  0.41489  0.77596  0.90101  1.0000
  S   S61       1.0  0.38475  0.88872  0.93450  1.0000
  C   C205      1.0  0.51399  0.56827  0.57392  1.0000
  S   S62       1.0  0.48763  0.54990  0.77176  1.0000
  H   H359      1.0  0.34512  0.93955  0.86199  1.0000
  Fe  Fe32      1.0  0.48550  0.53777  0.83158  1.0000
  S   S63       1.0  0.48163  0.58545  0.88035  1.0000
  Fe  Fe33      1.0  0.35712  0.87769  0.98404  1.0000
  S   S64       1.0  0.61318  0.69948  0.52955  1.0000
  S   S65       1.0  0.43418  0.99498  0.96489  1.0000
  Fe  Fe34      1.0  0.57818  0.65524  0.55418  1.0000
  S   S66       1.0  0.55762  0.66400  0.60969  1.0000
  S   S67       1.0  0.59814  0.59155  0.53133  1.0000
  H   H360      1.0  0.48576  0.55416  0.64327  1.0000
  H   H361      1.0  0.50688  0.58723  0.54947  1.0000
  C   C206      1.0  0.56504  0.56113  0.70123  1.0000
  C   C207      1.0  0.58878  0.56579  0.67690  1.0000
  C   C208      1.0  0.58628  0.59550  0.64745  1.0000
  C   C209      1.0  0.56030  0.62169  0.64283  1.0000
  C   C210      1.0  0.53642  0.61644  0.66675  1.0000
  C   C211      1.0  0.53854  0.58569  0.69537  1.0000
  H   H362      1.0  0.60933  0.54679  0.68108  1.0000
  H   H363      1.0  0.60488  0.59949  0.62922  1.0000
  H   H364      1.0  0.51620  0.63642  0.66316  1.0000
  H   H365      1.0  0.51992  0.58199  0.71334  1.0000
  C   C212      1.0  0.43334  0.72271  0.89627  1.0000
  C   C213      1.0  0.45098  0.70388  0.92379  1.0000
  C   C214      1.0  0.46547  0.66181  0.91843  1.0000
  C   C215      1.0  0.46240  0.63795  0.88566  1.0000
  C   C216      1.0  0.44465  0.65664  0.85822  1.0000
  C   C217      1.0  0.43040  0.69888  0.86344  1.0000
  H   H366      1.0  0.45355  0.72182  0.94911  1.0000
  H   H367      1.0  0.47917  0.64774  0.93985  1.0000
  H   H368      1.0  0.44168  0.63840  0.83310  1.0000
  H   H369      1.0  0.41669  0.71303  0.84204  1.0000
  C   C218      1.0  0.50129  0.52013  0.57199  1.0000
  C   C219      1.0  0.49439  0.97750  0.95329  1.0000
  H   H370      1.0  0.55250  0.53079  0.94312  1.0000
  H   H371      1.0  0.51040  0.50099  0.90683  1.0000
  H   H372      1.0  0.43270  0.51315  0.60021  1.0000
  N   N15       1.0  0.53146  0.68479  0.78196  1.0000
  C   C220      1.0  0.53722  0.70514  0.74531  1.0000
  C   C221      1.0  0.49948  0.66909  0.78150  1.0000
  C   C222      1.0  0.55226  0.64463  0.78613  1.0000
  C   C223      1.0  0.53738  0.71990  0.81075  1.0000
  C   C224      1.0  0.56992  0.71748  0.73704  1.0000
  C   C225      1.0  0.47543  0.70625  0.77587  1.0000
  C   C226      1.0  0.55022  0.61777  0.82138  1.0000
  C   C227      1.0  0.52239  0.71306  0.84798  1.0000
  H   H373      1.0  0.52987  0.68194  0.72327  1.0000
  H   H374      1.0  0.52387  0.73672  0.74159  1.0000
  H   H375      1.0  0.49351  0.65097  0.80639  1.0000
  H   H376      1.0  0.49623  0.64386  0.75949  1.0000
  H   H377      1.0  0.54884  0.62037  0.76351  1.0000
  H   H378      1.0  0.57606  0.65483  0.78474  1.0000
  H   H379      1.0  0.56189  0.72309  0.81554  1.0000
  H   H380      1.0  0.52961  0.75370  0.80128  1.0000
  H   H381      1.0  0.57032  0.73821  0.71214  1.0000
  H   H382      1.0  0.58034  0.73743  0.75905  1.0000
  H   H383      1.0  0.58368  0.68688  0.73111  1.0000
  H   H384      1.0  0.45297  0.69165  0.78024  1.0000
  H   H385      1.0  0.47780  0.73467  0.79516  1.0000
  H   H386      1.0  0.47545  0.71910  0.74780  1.0000
  H   H387      1.0  0.55805  0.63769  0.84495  1.0000
  H   H388      1.0  0.56546  0.58796  0.81934  1.0000
  H   H389      1.0  0.52761  0.60447  0.82616  1.0000
  H   H390      1.0  0.53856  0.72175  0.86976  1.0000
  H   H391      1.0  0.51483  0.67858  0.85363  1.0000
  H   H392      1.0  0.50316  0.73678  0.85158  1.0000
  Fe  Fe35      1.0  0.52924  0.50718  0.77243  1.0000
  H   H393      1.0  0.53884  0.56733  0.57523  1.0000
  H   H394      1.0  0.50559  0.58835  0.59704  1.0000
  H   H395      1.0  0.54108  0.96662  0.94081  1.0000
  H   H396      1.0  0.51606  0.53510  0.98352  1.0000
  S   S68       1.0  0.37906  0.81107  0.99740  1.0000
  H   H397      1.0  0.48815  0.94316  0.94713  1.0000
  H   H398      1.0  0.45038  0.56655  0.59099  1.0000
  S   S69       1.0  0.56968  0.52622  0.73951  1.0000
  H   H399      1.0  0.53500  0.52627  0.63282  1.0000
  C   C228      1.0  0.44569  0.54124  0.61207  1.0000
  C   C229      1.0  0.49524  0.51829  0.97433  1.0000
  C   C230      1.0  0.52435  0.99087  0.94969  1.0000
  H   H400      1.0  0.51786  0.50047  0.55590  1.0000
  C   C231      1.0  0.47460  0.52449  0.63090  1.0000
  H   H401      1.0  0.48562  0.54067  0.95303  1.0000
  S   S70       1.0  0.54496  0.66564  0.50895  1.0000
  Fe  Fe36      1.0  0.63060  0.63640  0.50249  1.0000
  H   H402      1.0  0.46732  0.50432  0.65446  1.0000
  C   C232      1.0  0.34835  0.97130  0.87754  1.0000
  H   H403      1.0  0.43112  0.55797  0.63248  1.0000
  H   H404      1.0  0.48089  0.52050  0.55456  1.0000
  H   H405      1.0  0.35293  0.97527  0.96766  1.0000
  H   H406      1.0  0.44108  0.50353  0.93904  1.0000
  H   H407      1.0  0.34702  0.99936  0.85793  1.0000
  H   H408      1.0  0.75661  0.10479  0.04579  1.0000
  H   H409      1.0  0.72509  0.22281  0.08765  1.0000
  Fe  Fe37      1.0  0.91573  0.17397  0.04513  1.0000
  S   S71       1.0  0.93131  0.17063  0.10318  1.0000
  Fe  Fe38      1.0  0.96388  0.00197  0.25005  1.0000
  H   H410      1.0  0.72987  0.20226  0.13258  1.0000
  H   H411      1.0  0.97512  0.05791  0.18264  1.0000
  C   C233      1.0  0.95593  0.25110  0.30455  1.0000
  C   C234      1.0  0.93051  0.11874  0.12582  1.0000
  C   C235      1.0  0.90352  0.09651  0.13147  1.0000
  C   C236      1.0  0.90221  0.06116  0.15660  1.0000
  C   C237      1.0  0.92782  0.04809  0.17622  1.0000
  C   C238      1.0  0.95506  0.06863  0.16885  1.0000
  C   C239      1.0  0.95638  0.10386  0.14384  1.0000
  H   H412      1.0  0.88334  0.10817  0.11794  1.0000
  H   H413      1.0  0.88106  0.04517  0.16182  1.0000
  C   C240      1.0  0.97179  0.22916  0.27178  1.0000
  H   H414      1.0  0.94734  0.09753  0.24887  1.0000
  H   H415      1.0  0.70179  0.11199  0.12014  1.0000
  H   H416      1.0  0.92213  0.17448  0.18628  1.0000
  C   C241      1.0  0.97428  0.17405  0.22316  1.0000
  H   H417      1.0  0.96304  0.14736  0.20759  1.0000
  S   S72       1.0  0.95307  0.17670  0.00522  1.0000
  C   C242      1.0  0.98839  0.44579  0.46282  1.0000
  H   H418      1.0  0.97732  0.12085  0.13949  1.0000
  C   C243      1.0  0.92804  0.11944  0.25646  1.0000
  H   H419      1.0  0.93626  0.03870  0.07073  1.0000
  C   C244      1.0  0.68412  0.17352  0.17357  1.0000
  C   C245      1.0  0.95872  0.46089  0.46818  1.0000
  H   H420      1.0  0.94034  0.43860  0.46215  1.0000
  S   S73       1.0  0.69534  0.12726  0.02965  1.0000
  C   C246      1.0  0.78438  0.14794  0.01375  1.0000
  H   H421      1.0  0.80518  0.13383  0.02396  1.0000
  H   H422      1.0  0.97286  0.22043  0.17671  1.0000
  C   C247      1.0  0.91050  0.20225  0.20048  1.0000
  H   H423      1.0  0.67819  0.23255  0.11703  1.0000
  H   H424      1.0  0.67432  0.19127  0.08256  1.0000
  C   C248      1.0  0.68388  0.19700  0.11001  1.0000
  H   H425      1.0  0.91899  0.17964  0.28731  1.0000
  H   H426      1.0  0.90447  0.22653  0.17878  1.0000
  S   S74       1.0  0.89211  0.23451  0.02178  1.0000
  N   N16       1.0  0.67049  0.16483  0.13681  1.0000
  N   N17       1.0  0.95314  0.19783  0.24875  1.0000
  H   H427      1.0  0.66707  0.11188  0.09659  1.0000
  H   H428      1.0  0.67195  0.04628  0.13371  1.0000
  H   H429      1.0  0.70662  0.15702  0.17552  1.0000
  H   H430      1.0  0.95452  0.15389  0.29537  1.0000
  H   H431      1.0  0.93995  0.25605  0.21649  1.0000
  C   C249      1.0  0.71835  0.19580  0.10651  1.0000
  C   C250      1.0  0.92983  0.22603  0.22933  1.0000
  H   H432      1.0  0.94949  0.22576  0.32492  1.0000
  H   H433      1.0  0.91315  0.12396  0.23284  1.0000
  H   H434      1.0  0.88953  0.18939  0.21237  1.0000
  H   H435      1.0  0.91372  0.24098  0.24891  1.0000
  H   H436      1.0  0.72684  0.16395  0.09440  1.0000
  H   H437      1.0  0.68792  0.21035  0.17720  1.0000
  S   S75       1.0  0.88828  0.12370  0.01409  1.0000
  H   H438      1.0  0.93615  0.27166  0.29653  1.0000
  H   H439      1.0  0.91519  0.10051  0.27685  1.0000
  H   H440      1.0  0.96546  0.06697  0.04600  1.0000
  C   C251      1.0  0.95036  0.03757  0.04622  1.0000
  C   C252      1.0  0.93866  0.16414  0.27344  1.0000
  C   C253      1.0  0.66739  0.07872  0.14794  1.0000
  H   H441      1.0  0.97182  0.27414  0.31834  1.0000
  C   C254      1.0  0.67739  0.11757  0.12370  1.0000
  S   S76       1.0  0.95954  0.02589  0.30741  1.0000
  C   C255      1.0  0.75676  0.13155  0.02608  1.0000
  S   S77       1.0  0.92506  0.00738  0.21061  1.0000
  C   C256      1.0  0.66579  0.15908  0.20689  1.0000
  H   H442      1.0  0.68153  0.14777  0.22845  1.0000
  H   H443      1.0  0.88632  0.01676  0.31029  1.0000
  H   H444      1.0  0.93516  0.04166  0.02257  1.0000
  C   C257      1.0  0.72943  0.14912  0.01286  1.0000
  H   H445      1.0  0.98058  0.25742  0.25552  1.0000
  C   C258      1.0  0.98947  0.20408  0.19499  1.0000
  H   H446      1.0  0.68039  0.07772  0.17353  1.0000
  H   H447      1.0  0.95790  0.00071  0.11938  1.0000
  H   H448      1.0  0.97032  0.36364  0.61018  1.0000
  H   H449      1.0  0.84675  0.31099  0.85146  1.0000
  Fe  Fe39      1.0  0.86709  0.18466  0.98728  1.0000
  H   H450      1.0  0.90249  0.37417  0.91122  1.0000
  C   C259      1.0  0.98478  0.38519  0.59326  1.0000
  S   S78       1.0  0.95057  0.29761  0.96364  1.0000
  S   S79       1.0  0.90132  0.18635  0.94259  1.0000
  N   N18       1.0  0.84856  0.32472  0.90923  1.0000
  H   H451      1.0  0.96383  0.48810  0.62837  1.0000
  N   N19       1.0  0.97214  0.43241  0.59097  1.0000
  C   C260      1.0  0.84853  0.24646  0.87744  1.0000
  C   C261      1.0  0.81564  0.31797  0.91600  1.0000
  H   H452      1.0  0.85504  0.37096  0.97401  1.0000
  H   H453      1.0  0.94161  0.45169  0.67543  1.0000
  H   H454      1.0  0.94207  0.15805  0.88447  1.0000
  C   C262      1.0  0.95592  0.32102  0.92031  1.0000
  C   C263      1.0  0.94693  0.29887  0.88867  1.0000
  C   C264      1.0  0.95255  0.31829  0.85475  1.0000
  C   C265      1.0  0.96670  0.36030  0.85216  1.0000
  C   C266      1.0  0.78497  0.18215  0.98793  1.0000
  C   C267      1.0  0.96997  0.36297  0.91770  1.0000
  H   H455      1.0  0.93601  0.26665  0.89032  1.0000
  H   H456      1.0  0.94593  0.30078  0.83033  1.0000
  Fe  Fe40      1.0  0.92473  0.13009  0.97258  1.0000
  H   H457      1.0  0.75778  0.22639  0.95492  1.0000
  H   H458      1.0  0.77744  0.33705  0.94866  1.0000
  Fe  Fe41      1.0  0.99080  0.45376  0.79699  1.0000
  H   H459      1.0  0.81090  0.33073  0.97422  1.0000
  C   C268      1.0  0.85705  0.29671  0.87649  1.0000
  H   H460      1.0  0.91526  0.48100  0.60501  1.0000
  C   C269      1.0  0.99098  0.00674  0.94301  1.0000
  H   H461      1.0  0.85800  0.27739  0.95227  1.0000
  H   H462      1.0  0.83957  0.38327  0.87604  1.0000
  C   C270      1.0  0.92246  0.47449  0.57683  1.0000
  S   S80       1.0  0.94544  0.06977  0.94386  1.0000
  H   H463      1.0  0.84692  0.39696  0.92123  1.0000
  S   S81       1.0  0.97390  0.38281  0.80886  1.0000
  C   C271      1.0  0.80187  0.34363  0.94823  1.0000
  C   C272      1.0  0.97103  0.45208  0.62856  1.0000
  C   C273      1.0  0.85384  0.37334  0.89957  1.0000
  H   H464      1.0  0.89322  0.37025  0.86367  1.0000
  C   C274      1.0  0.94140  0.43079  0.57388  1.0000
  H   H465      1.0  0.92797  0.40280  0.58494  1.0000
  H   H466      1.0  0.70919  0.19754  0.97691  1.0000
  H   H467      1.0  0.88841  0.42211  0.88742  1.0000
  C   C275      1.0  0.97519  0.38268  0.88384  1.0000
  H   H468      1.0  0.97694  0.38041  0.94203  1.0000
  H   H469      1.0  0.86116  0.22767  0.85629  1.0000
  H   H470      1.0  0.97220  0.20610  0.92392  1.0000
  H   H471      1.0  0.96163  0.19794  0.85799  1.0000
  H   H472      1.0  0.94304  0.42289  0.54448  1.0000
  C   C276      1.0  0.86719  0.30900  0.94104  1.0000
  H   H473      1.0  0.80231  0.32691  0.89146  1.0000
  H   H474      1.0  0.80436  0.38061  0.94638  1.0000
  Fe  Fe42      1.0  0.92718  0.23270  0.97858  1.0000
  H   H475      1.0  0.81092  0.28194  0.92158  1.0000
  H   H476      1.0  0.97349  0.13924  0.85950  1.0000
  H   H477      1.0  0.85389  0.23064  0.90368  1.0000
  C   C277      1.0  0.96467  0.16807  0.87551  1.0000
  H   H478      1.0  0.88166  0.29732  0.87205  1.0000
  H   H479      1.0  0.82437  0.24197  0.87143  1.0000
  H   H480      1.0  0.89020  0.29980  0.93210  1.0000
  C   C278      1.0  0.87115  0.34257  0.97293  1.0000
  C   C279      1.0  0.88642  0.38498  0.89003  1.0000
  H   H481      1.0  0.96625  0.35219  0.54467  1.0000
  C   C280      1.0  0.98146  0.04913  0.95589  1.0000
  S   S82       1.0  0.81907  0.20371  0.97093  1.0000
  C   C281      1.0  0.98405  0.17846  0.90917  1.0000
  H   H482      1.0  0.98288  0.14884  0.92736  1.0000
  C   C282      1.0  0.73000  0.18362  0.98729  1.0000
  H   H483      1.0  0.96523  0.40203  0.67146  1.0000
  C   C283      1.0  0.75762  0.19995  0.97489  1.0000
  H   H484      1.0  0.93237  0.40929  0.64368  1.0000
  H   H485      1.0  0.90180  0.47075  0.56024  1.0000
  C   C284      1.0  0.95151  0.42696  0.65605  1.0000
  H   H486      1.0  0.89428  0.35594  0.97341  1.0000
  H   H487      1.0  0.86871  0.32420  0.99876  1.0000
  C   C285      1.0  0.98830  0.36031  0.55683  1.0000
  H   H488      1.0  0.98873  0.45348  0.53888  1.0000
  H   H489      1.0  0.98610  0.41498  0.88224  1.0000
  H   H490      1.0  0.98416  0.49790  0.57013  1.0000
  S   S83       1.0  0.99020  0.47147  0.73787  1.0000
  C   C286      1.0  0.99143  0.46200  0.56793  1.0000
  S   S84       1.0  0.91518  0.52465  0.48242  1.0000
  H   H491      1.0  0.90276  0.95874  0.27186  1.0000
  H   H492      1.0  0.95091  0.96722  0.03404  1.0000
  Fe  Fe43      1.0  0.91166  0.69377  0.45749  1.0000
  S   S85       1.0  0.87571  0.64129  0.45128  1.0000
  S   S86       1.0  0.93161  0.72193  0.40560  1.0000
  N   N20       1.0  0.66857  0.73122  0.41134  1.0000
  H   H493      1.0  0.93157  0.87123  0.29902  1.0000
  C   C287      1.0  0.91693  0.87394  0.24353  1.0000
  H   H494      1.0  0.83844  0.90479  0.29922  1.0000
  H   H495      1.0  0.69345  0.75393  0.36497  1.0000
  C   C288      1.0  0.72246  0.76422  0.41100  1.0000
  C   C289      1.0  0.69072  0.76248  0.39410  1.0000
  S   S87       1.0  0.98419  0.93472  0.26462  1.0000
  H   H496      1.0  0.86859  0.83424  0.37575  1.0000
  H   H497      1.0  0.97490  0.64866  0.42287  1.0000
  H   H498      1.0  0.92386  0.90852  0.23670  1.0000
  C   C290      1.0  0.96352  0.96865  0.10528  1.0000
  H   H499      1.0  0.83880  0.90239  0.22634  1.0000
  C   C291      1.0  0.95755  0.86863  0.38128  1.0000
  C   C292      1.0  0.96431  0.83379  0.35690  1.0000
  C   C293      1.0  0.95640  0.78905  0.36489  1.0000
  C   C294      1.0  0.94194  0.77857  0.39742  1.0000
  C   C295      1.0  0.93554  0.81331  0.42194  1.0000
  C   C296      1.0  0.94326  0.85804  0.41384  1.0000
  H   H500      1.0  0.92073  0.94788  0.31305  1.0000
  H   H501      1.0  0.93911  0.54092  0.39592  1.0000
  H   H502      1.0  0.92442  0.80582  0.44704  1.0000
  H   H503      1.0  0.93792  0.88472  0.43289  1.0000
  H   H504      1.0  0.90352  0.89427  0.35494  1.0000
  H   H505      1.0  0.70951  0.65813  0.42528  1.0000
  H   H506      1.0  0.85571  0.82561  0.33037  1.0000
  H   H507      1.0  0.96149  0.76244  0.34573  1.0000
  H   H508      1.0  0.72235  0.78098  0.43784  1.0000
  C   C297      1.0  0.67295  0.72727  0.45161  1.0000
  H   H509      1.0  0.83826  0.95311  0.25163  1.0000
  H   H510      1.0  0.97557  0.84131  0.33192  1.0000
  H   H511      1.0  0.85295  0.85853  0.27389  1.0000
  C   C298      1.0  0.87490  0.83728  0.34687  1.0000
  C   C299      1.0  0.89843  0.94675  0.29948  1.0000
  H   H512      1.0  0.93601  0.85131  0.23625  1.0000
  H   H513      1.0  0.86495  0.90759  0.35195  1.0000
  C   C300      1.0  0.88291  0.88676  0.33917  1.0000
  H   H514      1.0  0.96079  0.65570  0.30905  1.0000
  H   H515      1.0  0.95637  0.93526  0.15659  1.0000
  H   H516      1.0  0.90342  0.83222  0.28636  1.0000
  C   C301      1.0  0.70052  0.65955  0.39745  1.0000
  H   H517      1.0  0.89446  0.81436  0.34310  1.0000
  H   H518      1.0  0.73333  0.73076  0.41380  1.0000
  C   C302      1.0  0.97662  0.53359  0.48775  1.0000
  H   H519      1.0  0.85468  0.98031  0.30984  1.0000
  C   C303      1.0  0.66697  0.77074  0.47368  1.0000
  H   H520      1.0  0.73701  0.78461  0.39341  1.0000
  Fe  Fe44      1.0  0.90474  0.59946  0.48881  1.0000
  H   H521      1.0  0.69740  0.62400  0.38873  1.0000
  H   H522      1.0  0.69588  0.71554  0.45848  1.0000
  H   H523      1.0  0.67606  0.80114  0.46070  1.0000
  H   H524      1.0  0.90714  0.57233  0.38140  1.0000
  C   C304      1.0  0.85209  0.92254  0.24594  1.0000
  N   N21       1.0  0.88672  0.89931  0.29994  1.0000
  H   H525      1.0  0.66502  0.68556  0.36541  1.0000
  H   H526      1.0  0.78806  0.61377  0.47933  1.0000
  S   S88       1.0  0.67847  0.61266  0.48979  1.0000
  C   C305      1.0  0.85698  0.89456  0.28078  1.0000
  C   C306      1.0  0.97308  0.93435  0.13449  1.0000
  C   C307      1.0  0.91005  0.86802  0.28392  1.0000
  H   H527      1.0  0.98300  0.99565  0.01869  1.0000
  C   C308      1.0  0.95269  0.50527  0.47967  1.0000
  C   C309      1.0  0.73987  0.61313  0.48551  1.0000
  H   H528      1.0  0.92794  0.59220  0.41906  1.0000
  C   C310      1.0  0.94876  0.60420  0.36623  1.0000
  H   H529      1.0  0.97949  0.90393  0.01854  1.0000
  C   C311      1.0  0.76874  0.63088  0.49069  1.0000
  H   H530      1.0  0.93739  0.63788  0.36607  1.0000
  H   H531      1.0  0.89775  0.86365  0.22635  1.0000
  H   H532      1.0  0.97791  0.50334  0.36519  1.0000
  H   H533      1.0  0.87257  0.93247  0.23164  1.0000
  H   H534      1.0  0.96314  0.89148  0.06192  1.0000
  C   C312      1.0  0.98672  0.61716  0.41417  1.0000
  S   S89       1.0  0.96450  0.92619  0.37162  1.0000
  H   H535      1.0  0.71715  0.67417  0.37891  1.0000
  H   H536      1.0  0.88049  0.98064  0.34784  1.0000
  C   C313      1.0  0.87848  0.98276  0.31798  1.0000
  S   S90       1.0  0.94150  0.64980  0.49205  1.0000
  H   H537      1.0  0.94173  0.95640  0.09451  1.0000
  H   H538      1.0  0.68219  0.79796  0.39446  1.0000
  H   H539      1.0  0.73723  0.58236  0.47004  1.0000
  C   C314      1.0  0.96786  0.99255  0.04223  1.0000
  C   C315      1.0  0.67025  0.68465  0.39475  1.0000
  Fe  Fe45      1.0  0.98330  0.96071  0.32187  1.0000
  C   C316      1.0  0.98438  0.89703  0.04746  1.0000
  C   C317      1.0  0.93024  0.57550  0.39234  1.0000
  H   H540      1.0  0.94530  0.58984  0.33870  1.0000
  N   N22       1.0  0.98529  0.97705  0.07506  1.0000
  H   H541      1.0  0.97680  0.59050  0.43074  1.0000
  N   N23       1.0  0.98178  0.60919  0.37432  1.0000
  H   H542      1.0  0.98284  0.68193  0.36780  1.0000
  H   H543      1.0  0.97366  0.89937  0.12375  1.0000
  H   H544      1.0  0.98926  0.52670  0.40796  1.0000
  H   H545      1.0  0.97236  0.56729  0.49755  1.0000
  C   C318      1.0  0.98523  0.65367  0.31435  1.0000
  C   C319      1.0  0.71437  0.63509  0.49968  1.0000
  Fe  Fe46      1.0  0.91611  0.67752  0.53930  1.0000
  S   S91       1.0  0.88096  0.62453  0.53833  1.0000
  S   S92       1.0  0.93937  0.69659  0.59150  1.0000
  C   C320      1.0  0.74698  0.69273  0.52465  1.0000
  H   H546      1.0  0.86324  0.76225  0.59570  1.0000
  Fe  Fe47      1.0  0.97005  0.53758  0.75490  1.0000
  S   S93       1.0  0.93018  0.55827  0.72031  1.0000
  H   H547      1.0  0.83866  0.69371  0.58633  1.0000
  C   C321      1.0  0.93832  0.65707  0.62677  1.0000
  C   C322      1.0  0.94719  0.66999  0.66169  1.0000
  C   C323      1.0  0.94620  0.63912  0.69034  1.0000
  C   C324      1.0  0.93570  0.59549  0.68427  1.0000
  C   C325      1.0  0.92680  0.58263  0.64938  1.0000
  C   C326      1.0  0.92864  0.61301  0.62058  1.0000
  H   H548      1.0  0.79244  0.61190  0.60430  1.0000
  H   H549      1.0  0.95260  0.64949  0.71736  1.0000
  H   H550      1.0  0.91830  0.54912  0.64474  1.0000
  H   H551      1.0  0.92238  0.60235  0.59371  1.0000
  C   C327      1.0  0.71813  0.67478  0.51970  1.0000
  C   C328      1.0  0.77243  0.67103  0.51007  1.0000
  H   H552      1.0  0.78760  0.73923  0.62304  1.0000
  H   H553      1.0  0.81905  0.57140  0.58850  1.0000
  N   N24       1.0  0.83907  0.66591  0.64087  1.0000
  C   C329      1.0  0.86058  0.66770  0.67254  1.0000
  C   C330      1.0  0.85241  0.69388  0.61125  1.0000
  C   C331      1.0  0.83747  0.61748  0.62835  1.0000
  C   C332      1.0  0.80881  0.68324  0.65303  1.0000
  C   C333      1.0  0.85395  0.63634  0.70455  1.0000
  C   C334      1.0  0.85823  0.74365  0.62088  1.0000
  H   H554      1.0  0.87825  0.74686  0.63860  1.0000
  C   C335      1.0  0.78735  0.70181  0.62342  1.0000
  H   H555      1.0  0.88373  0.65954  0.66368  1.0000
  H   H556      1.0  0.86157  0.70238  0.68410  1.0000
  H   H557      1.0  0.74958  0.72377  0.53977  1.0000
  H   H558      1.0  0.95457  0.70408  0.66671  1.0000
  H   H559      1.0  0.87430  0.67911  0.60279  1.0000
  H   H560      1.0  0.82966  0.59533  0.65037  1.0000
  H   H561      1.0  0.79676  0.65647  0.66783  1.0000
  H   H562      1.0  0.81167  0.71141  0.67277  1.0000
  H   H563      1.0  0.86832  0.64604  0.72788  1.0000
  H   H564      1.0  0.83035  0.63882  0.71342  1.0000
  H   H565      1.0  0.86005  0.60077  0.69816  1.0000
  H   H566      1.0  0.79121  0.68886  0.59582  1.0000
  H   H567      1.0  0.83870  0.76036  0.63374  1.0000
  H   H568      1.0  0.76401  0.69279  0.63029  1.0000
  H   H569      1.0  0.86021  0.60472  0.62088  1.0000
  H   H570      1.0  0.82103  0.62737  0.57217  1.0000
  C   C336      1.0  0.81622  0.60736  0.59649  1.0000
  Fe  Fe48      1.0  0.85530  0.67148  0.50168  1.0000
  H   H571      1.0  0.69878  0.69189  0.53098  1.0000
  S   S94       1.0  0.80805  0.69608  0.51631  1.0000
  S   S95       1.0  0.96738  0.51807  0.81353  1.0000
  S   S96       1.0  0.88961  0.72674  0.50549  1.0000
  H   H572      1.0  0.97611  0.98696  0.92624  1.0000
  H   H573      1.0  0.93430  0.50419  0.56623  1.0000
  H   H574      1.0  0.67745  0.76738  0.50084  1.0000
  H   H575      1.0  0.98988  0.62406  0.59234  1.0000
  H   H576      1.0  0.99049  0.54813  0.67008  1.0000
