data_image0
_chemical_formula_structural       CSC2SFeSH2S2FeSHFeS2FeSFeS3HC9H9SCH6C2H6C2H6NH2SCHCH2C2H3FeHSHCH2CH3CHNHC4HCH7C2H6C6H8CH3CH2FeNH2C2H2CH2CFeCHNSHCH5C3HC3SHCSCSFeS2FeS2FeSFeS3FeS2FeS2FeHFeS3C6H4C2HC3H3CH3C5H2NCH2CH3CHC4H4CH2CHCHNH4CHCH4NH4CH11NCHC2HCHCHCH6C2H4CH3C4H3CHCHCH4C2HCSFeH2CSHCH5C2HCH4FeSHSHS2FeSHFeS2FeSFeS3CH6C3HCFeH3C6H4CHCH8CH2CH3CSH4C2HC2HC2HCH2CH4CH2CH3NCHNHC4HCH9CHCNH9C2HCSFeCH2C2H2CH2CH3SHCSH2C4H5C2HSH3FeSHCSHFeSCFeS2FeSFeS3C2H2C6H5C3HCH2CHC2SHC2H5C3H4CH3SCHNC5HC2H23CSH2CH2CSHCH3CSH2CH3C3NH2FeCNCSH2C2HCHC2H4CFeH4FeH2CFeH2SH2FeS2FeS2FeSFeS3FeS2FeS2FeSFeS3C6H4C2HC3H7CNH4C2H2C4HC6H4CFeHNC8H20CH3CH3NHCH2C3HC2H2SH4CH4CH2C2NCHNHNC3HCHC2H2CH12CHC2H4CH2CH3CH6C2H2C3HCHCH2CH4CH3C3H3CH3FeSHCH2SFeS2FeS2FeSFeS3C4H3C3H4SHC6H5CSC2NH4CH3SH2NH4CH3SH6CH6CNC4HC3H8CH12CHC2HC4HCSCHCH3CHCH2CNH4CH4C2HCHC3H3CH3CH2NC2H4FeHCH3C2H4CHCHFeHFe2SHSHSC2HSH2SCSFeSCH3NH2CHC5HC2H3C6H3CH4CFeH7SHCHCNCH2CH2CHCH5NH2C2HNH2CHFeCHSCH2CH4CHFeH5CH2C4HCNH3SCH3CH2CFeH3C2HCHCH2CH2CHCH3CHSH3C3HSCHCHSHSCSHFeSCFeSH3SCSHFeHSFeH2SHSC2HCH3CH8CHSH2C2HC5H3CFeH5C9H2C2HCH5NCFeH3C3H2NSH2CHC2H3NHCH4SCH2C2H5CH2C2H2C4HNH5C2FeCH2CH2CHSH2CHCHC2HCHCNCSH5C4HSHCH2CHCH3CHSH2CHC2H3CH3SHCH3FeHCHCHCH2CH2SHFeSH2SH3S2Fe2SFeC3HSH2CH3FeC2S2CH3C7H6NH6NC2HCH3CH9CH2CHCFeCH5CH4CH4C3H2CHC4H2SC2H7NCH5SHC2SHCNC5H2CHC2HSCFeH2CH4C2SH2CHFeH2CFeH2FeSFeSCSH3SHS2CHFeSFeH2CH4CFeCH2CH3SCHC6H5SH3C2SH3NHFeCH7NC8H22C5HCH3SHC8H5C2H10CHS2HCSNC2H4CSC2SHSCHCSFeSNH2S3CFeHSFeSHFeHSHFeC2H2CSH4C2H2NHCH5C3H4CH3C2SCHC6H4CHCHC4HCH5CHC4H8SCHCHCHCH4FeH2SCNHCH3CHFeH2C2H2CH3CSH4CHSH2CH4CHSC2H2SH4CSHC4H5C2FeHFeSHFeSH2SHCHSCFeHSFeSHCHSCSHC2H3C3HSH3C6H6C2FeHCHNCHCH3FeHSH12CHCFeCH2FeSH2NC3H3CHCH5CSH3C2H4C3NC8H12SCH2CHSH2CHCHCHC3FeC
_chemical_formula_sum              "C672 S192 Fe96 H1152 N48"
_cell_length_a       29.3971
_cell_length_b       43.4238
_cell_length_c       63.1629
_cell_angle_alpha    90.084
_cell_angle_beta     89.8275
_cell_angle_gamma    89.9112

_space_group_name_H-M_alt    "P 1"
_space_group_IT_number       1

loop_
  _space_group_symop_operation_xyz
  'x, y, z'

loop_
  _atom_site_type_symbol
  _atom_site_label
  _atom_site_symmetry_multiplicity
  _atom_site_fract_x
  _atom_site_fract_y
  _atom_site_fract_z
  _atom_site_occupancy
  C   C1        1.0  0.03407  0.45788  0.18014  1.0000
  S   S1        1.0  0.05950  0.11372  0.24536  1.0000
  C   C2        1.0  0.35268  0.26887  0.10362  1.0000
  C   C3        1.0  0.06902  0.33836  0.21986  1.0000
  S   S2        1.0  0.00560  0.39879  0.19067  1.0000
  Fe  Fe1       1.0  0.06522  0.34455  0.12147  1.0000
  S   S3        1.0  0.13371  0.34469  0.10367  1.0000
  H   H1        1.0  0.10194  0.09350  0.14500  1.0000
  H   H2        1.0  0.44649  0.47538  0.06903  1.0000
  S   S4        1.0  0.05237  0.32915  0.15516  1.0000
  S   S5        1.0  0.48217  0.28424  0.05853  1.0000
  Fe  Fe2       1.0  0.42353  0.25774  0.04408  1.0000
  S   S6        1.0  0.39490  0.21641  0.06119  1.0000
  H   H3        1.0  0.43024  0.03691  0.03770  1.0000
  Fe  Fe3       1.0  0.35953  0.25028  0.00703  1.0000
  S   S7        1.0  0.32650  0.20841  0.02090  1.0000
  S   S8        1.0  0.34135  0.27524  0.97675  1.0000
  Fe  Fe4       1.0  0.32632  0.23527  0.05151  1.0000
  S   S9        1.0  0.26320  0.23432  0.07293  1.0000
  Fe  Fe5       1.0  0.39792  0.19283  0.02938  1.0000
  S   S10       1.0  0.41767  0.14237  0.02230  1.0000
  S   S11       1.0  0.35506  0.27815  0.03702  1.0000
  S   S12       1.0  0.43065  0.23317  0.01294  1.0000
  H   H4        1.0  0.10038  0.17642  0.18893  1.0000
  C   C4        1.0  0.14463  0.25707  0.99752  1.0000
  C   C5        1.0  0.03679  0.15910  0.15861  1.0000
  C   C6        1.0  0.47192  0.37047  0.03367  1.0000
  C   C7        1.0  0.16895  0.31356  0.09514  1.0000
  C   C8        1.0  0.15838  0.28280  0.09949  1.0000
  C   C9        1.0  0.18766  0.25895  0.09262  1.0000
  C   C10       1.0  0.22772  0.26541  0.08121  1.0000
  C   C11       1.0  0.23810  0.29614  0.07663  1.0000
  C   C12       1.0  0.20896  0.32002  0.08362  1.0000
  H   H5        1.0  0.12781  0.27741  0.10831  1.0000
  H   H6        1.0  0.17922  0.23528  0.09624  1.0000
  H   H7        1.0  0.26849  0.30151  0.06771  1.0000
  H   H8        1.0  0.21742  0.34371  0.08010  1.0000
  H   H9        1.0  0.30143  0.31951  0.10689  1.0000
  H   H10       1.0  0.46551  0.98250  0.04309  1.0000
  H   H11       1.0  0.03913  0.30558  0.25497  1.0000
  H   H12       1.0  0.40376  0.00545  0.02463  1.0000
  H   H13       1.0  0.22143  0.20245  0.03236  1.0000
  S   S13       1.0  0.00190  0.32273  0.10828  1.0000
  C   C13       1.0  0.11913  0.27841  0.98204  1.0000
  H   H14       1.0  0.24831  0.33603  0.00928  1.0000
  H   H15       1.0  0.46873  0.45811  0.99130  1.0000
  H   H16       1.0  0.23388  0.24297  0.00665  1.0000
  H   H17       1.0  0.11171  0.12720  0.17050  1.0000
  H   H18       1.0  0.46589  0.32486  0.09373  1.0000
  H   H19       1.0  0.12750  0.14901  0.20570  1.0000
  C   C14       1.0  0.47135  0.09021  0.01988  1.0000
  C   C15       1.0  0.46793  0.12055  0.02771  1.0000
  H   H20       1.0  0.12676  0.32688  0.02006  1.0000
  H   H21       1.0  0.44386  0.08100  0.01046  1.0000
  H   H22       1.0  0.08621  0.10584  0.19140  1.0000
  H   H23       1.0  0.08149  0.29994  0.02595  1.0000
  H   H24       1.0  0.03608  0.08018  0.16800  1.0000
  H   H25       1.0  0.43299  0.32831  0.03225  1.0000
  C   C16       1.0  0.08347  0.12773  0.18222  1.0000
  C   C17       1.0  0.42059  0.01464  0.08884  1.0000
  H   H26       1.0  0.32817  0.27357  0.11659  1.0000
  H   H27       1.0  0.06867  0.16214  0.14927  1.0000
  H   H28       1.0  0.36623  0.37849  0.08985  1.0000
  H   H29       1.0  0.37768  0.02050  0.04791  1.0000
  H   H30       1.0  0.04174  0.26175  0.17708  1.0000
  H   H31       1.0  0.23314  0.25789  0.03275  1.0000
  N   N1        1.0  0.45743  0.00263  0.07424  1.0000
  H   H32       1.0  0.09475  0.26443  0.97267  1.0000
  H   H33       1.0  0.21749  0.32499  0.03249  1.0000
  S   S14       1.0  0.03048  0.39056  0.12682  1.0000
  C   C18       1.0  0.01733  0.24643  0.18438  1.0000
  H   H34       1.0  0.42984  0.01086  0.10574  1.0000
  C   C19       1.0  0.26763  0.23955  0.96542  1.0000
  H   H35       1.0  0.03567  0.35483  0.25752  1.0000
  H   H36       1.0  0.20935  0.21262  0.95604  1.0000
  C   C20       1.0  0.23436  0.31597  0.01803  1.0000
  C   C21       1.0  0.09509  0.15442  0.19748  1.0000
  H   H37       1.0  0.17256  0.28705  0.04642  1.0000
  H   H38       1.0  0.47907  0.04756  0.06281  1.0000
  H   H39       1.0  0.09946  0.29666  0.99013  1.0000
  Fe  Fe6       1.0  0.00760  0.07676  0.23882  1.0000
  H   H40       1.0  0.02588  0.99811  0.23613  1.0000
  S   S15       1.0  0.00978  0.19520  0.23818  1.0000
  H   H41       1.0  0.37788  0.05391  0.09716  1.0000
  C   C22       1.0  0.46343  0.33926  0.03817  1.0000
  H   H42       1.0  0.17772  0.31626  0.99699  1.0000
  H   H43       1.0  0.17336  0.22092  0.04380  1.0000
  C   C23       1.0  0.22725  0.23420  0.95412  1.0000
  H   H44       1.0  0.14288  0.28886  0.97038  1.0000
  H   H45       1.0  0.43593  0.06412  0.09337  1.0000
  H   H46       1.0  0.06097  0.23481  0.21066  1.0000
  C   C24       1.0  0.11544  0.30847  0.03088  1.0000
  H   H47       1.0  0.41801  0.37179  0.07485  1.0000
  N   N2        1.0  0.39614  0.32086  0.10484  1.0000
  H   H48       1.0  0.17088  0.20546  0.01701  1.0000
  C   C25       1.0  0.38062  0.32942  0.08287  1.0000
  C   C26       1.0  0.39770  0.28623  0.10679  1.0000
  C   C27       1.0  0.36698  0.33498  0.12206  1.0000
  C   C28       1.0  0.38246  0.36404  0.07749  1.0000
  H   H49       1.0  0.44784  0.38339  0.02428  1.0000
  C   C29       1.0  0.31509  0.33681  0.11795  1.0000
  H   H50       1.0  0.34552  0.32173  0.07959  1.0000
  H   H51       1.0  0.40160  0.31720  0.07082  1.0000
  H   H52       1.0  0.42268  0.27642  0.09527  1.0000
  H   H53       1.0  0.40967  0.27917  0.12274  1.0000
  H   H54       1.0  0.37196  0.32250  0.13727  1.0000
  H   H55       1.0  0.37796  0.35915  0.12508  1.0000
  H   H56       1.0  0.36411  0.36806  0.06238  1.0000
  C   C30       1.0  0.06681  0.09788  0.13941  1.0000
  C   C31       1.0  0.49371  0.02627  0.06965  1.0000
  H   H57       1.0  0.11850  0.24267  0.00558  1.0000
  H   H58       1.0  0.33724  0.27340  0.08799  1.0000
  H   H59       1.0  0.03660  0.17950  0.16931  1.0000
  H   H60       1.0  0.29667  0.33336  0.13315  1.0000
  H   H61       1.0  0.06905  0.15772  0.20996  1.0000
  H   H62       1.0  0.06617  0.11810  0.12873  1.0000
  C   C32       1.0  0.29057  0.26754  0.96311  1.0000
  C   C33       1.0  0.43789  0.99166  0.05349  1.0000
  C   C34       1.0  0.02566  0.32116  0.21316  1.0000
  C   C35       1.0  0.21079  0.24862  0.02012  1.0000
  C   C36       1.0  0.02826  0.23093  0.20331  1.0000
  C   C37       1.0  0.14948  0.28165  0.03305  1.0000
  H   H63       1.0  0.26398  0.30151  0.02235  1.0000
  H   H64       1.0  0.06157  0.36274  0.22387  1.0000
  H   H65       1.0  0.44911  0.32787  0.14212  1.0000
  H   H66       1.0  0.44529  0.35817  0.10688  1.0000
  H   H67       1.0  0.13002  0.15725  0.28208  1.0000
  H   H68       1.0  0.12924  0.26200  0.03927  1.0000
  H   H69       1.0  0.09265  0.33909  0.20610  1.0000
  H   H70       1.0  0.44212  0.46163  0.03286  1.0000
  C   C38       1.0  0.19220  0.21780  0.02871  1.0000
  H   H71       1.0  0.28114  0.22200  0.97580  1.0000
  H   H72       1.0  0.41725  0.44235  0.00247  1.0000
  H   H73       1.0  0.04635  0.44819  0.16540  1.0000
  C   C39       1.0  0.44430  0.33256  0.10725  1.0000
  H   H74       1.0  0.16417  0.24091  0.98720  1.0000
  H   H75       1.0  0.11178  0.32004  0.04654  1.0000
  Fe  Fe7       1.0  0.05026  0.10207  0.27974  1.0000
  N   N3        1.0  0.17566  0.27213  0.01353  1.0000
  H   H76       1.0  0.22064  0.29030  0.98952  1.0000
  H   H77       1.0  0.38852  0.00142  0.08652  1.0000
  C   C40       1.0  0.20098  0.29860  0.00351  1.0000
  C   C41       1.0  0.01816  0.98916  0.22056  1.0000
  H   H78       1.0  0.30522  0.36021  0.11254  1.0000
  H   H79       1.0  0.08753  0.32675  0.23284  1.0000
  C   C42       1.0  0.40835  0.04923  0.08720  1.0000
  H   H80       1.0  0.40001  0.05676  0.07097  1.0000
  H   H81       1.0  0.35956  0.24371  0.10414  1.0000
  C   C43       1.0  0.41110  0.01543  0.04047  1.0000
  Fe  Fe8       1.0  0.01207  0.37322  0.15914  1.0000
  C   C44       1.0  0.03284  0.10117  0.15795  1.0000
  H   H82       1.0  0.41816  0.45538  0.97576  1.0000
  N   N4        1.0  0.03780  0.12975  0.17137  1.0000
  S   S16       1.0  0.00333  0.06162  0.27290  1.0000
  H   H83       1.0  0.05708  0.07749  0.12978  1.0000
  C   C45       1.0  0.43120  0.46042  0.99188  1.0000
  H   H84       1.0  0.03666  0.29890  0.20612  1.0000
  H   H85       1.0  0.00704  0.17882  0.13020  1.0000
  H   H86       1.0  0.47960  0.29846  0.12717  1.0000
  H   H87       1.0  0.01131  0.11490  0.20179  1.0000
  H   H88       1.0  0.02380  0.27367  0.23957  1.0000
  C   C46       1.0  0.00968  0.29509  0.24686  1.0000
  C   C47       1.0  0.00875  0.00948  0.20398  1.0000
  C   C48       1.0  0.46937  0.32308  0.12766  1.0000
  H   H89       1.0  0.01166  0.33493  0.19991  1.0000
  C   C49       1.0  0.00168  0.13025  0.18844  1.0000
  C   C50       1.0  0.49396  0.32250  0.05062  1.0000
  C   C51       1.0  0.01337  0.43882  0.19514  1.0000
  S   S17       1.0  0.00706  0.04995  0.20771  1.0000
  H   H90       1.0  0.49581  0.98191  0.09992  1.0000
  C   C52       1.0  0.30167  0.23717  0.51886  1.0000
  S   S18       1.0  0.37448  0.10549  0.59669  1.0000
  C   C53       1.0  0.03170  0.07276  0.55175  1.0000
  S   S19       1.0  0.10829  0.09944  0.30385  1.0000
  Fe  Fe9       1.0  0.32668  0.23325  0.38736  1.0000
  S   S20       1.0  0.32353  0.25520  0.35523  1.0000
  S   S21       1.0  0.28632  0.25484  0.41412  1.0000
  Fe  Fe10      1.0  0.39379  0.18483  0.37263  1.0000
  S   S22       1.0  0.39524  0.20279  0.33922  1.0000
  S   S23       1.0  0.43293  0.14547  0.38762  1.0000
  Fe  Fe11      1.0  0.39968  0.25012  0.35437  1.0000
  S   S24       1.0  0.44610  0.28699  0.33942  1.0000
  Fe  Fe12      1.0  0.31884  0.20662  0.34283  1.0000
  S   S25       1.0  0.26618  0.19925  0.31666  1.0000
  S   S26       1.0  0.40310  0.23156  0.38752  1.0000
  S   S27       1.0  0.31725  0.18520  0.37516  1.0000
  Fe  Fe13      1.0  0.16961  0.21162  0.55002  1.0000
  S   S28       1.0  0.14107  0.16919  0.53474  1.0000
  S   S29       1.0  0.23148  0.21143  0.57215  1.0000
  Fe  Fe14      1.0  0.09911  0.25510  0.52812  1.0000
  S   S30       1.0  0.06691  0.21504  0.51117  1.0000
  S   S31       1.0  0.07535  0.30362  0.51838  1.0000
  Fe  Fe15      1.0  0.07268  0.18978  0.54202  1.0000
  H   H91       1.0  0.38336  0.02686  0.32152  1.0000
  Fe  Fe16      1.0  0.13789  0.19816  0.50525  1.0000
  S   S32       1.0  0.15969  0.17575  0.47453  1.0000
  S   S33       1.0  0.10071  0.23078  0.55961  1.0000
  S   S34       1.0  0.17064  0.23952  0.51993  1.0000
  C   C54       1.0  0.25145  0.23233  0.43070  1.0000
  C   C55       1.0  0.22485  0.24705  0.44618  1.0000
  C   C56       1.0  0.19616  0.22993  0.45951  1.0000
  C   C57       1.0  0.19384  0.19792  0.45741  1.0000
  C   C58       1.0  0.22021  0.18318  0.44184  1.0000
  C   C59       1.0  0.24922  0.20031  0.42862  1.0000
  H   H92       1.0  0.22633  0.27185  0.44782  1.0000
  H   H93       1.0  0.17570  0.24153  0.47135  1.0000
  H   H94       1.0  0.21875  0.15839  0.44022  1.0000
  H   H95       1.0  0.26999  0.18875  0.41692  1.0000
  C   C60       1.0  0.15270  0.12701  0.30685  1.0000
  C   C61       1.0  0.47983  0.31797  0.34953  1.0000
  H   H96       1.0  0.38468  0.00864  0.34617  1.0000
  C   C62       1.0  0.22391  0.17041  0.31298  1.0000
  C   C63       1.0  0.22144  0.14398  0.32561  1.0000
  C   C64       1.0  0.18603  0.12245  0.32255  1.0000
  H   H97       1.0  0.24672  0.14014  0.33774  1.0000
  H   H98       1.0  0.18443  0.10210  0.33237  1.0000
  H   H99       1.0  0.09987  0.23355  0.61111  1.0000
  C   C65       1.0  0.03876  0.10478  0.55062  1.0000
  H   H100      1.0  0.47253  0.41638  0.45093  1.0000
  H   H101      1.0  0.05992  0.05717  0.54915  1.0000
  H   H102      1.0  0.07213  0.11369  0.54692  1.0000
  C   C66       1.0  0.33870  0.16520  0.59836  1.0000
  C   C67       1.0  0.13589  0.22781  0.61450  1.0000
  C   C68       1.0  0.03840  0.33246  0.52914  1.0000
  C   C69       1.0  0.15529  0.15340  0.29422  1.0000
  C   C70       1.0  0.41108  0.05451  0.34676  1.0000
  H   H103      1.0  0.24690  0.18990  0.51147  1.0000
  H   H104      1.0  0.43556  0.05355  0.36004  1.0000
  N   N5        1.0  0.15423  0.21290  0.36528  1.0000
  C   C71       1.0  0.12297  0.22332  0.38293  1.0000
  H   H105      1.0  0.05563  0.14893  0.48620  1.0000
  H   H106      1.0  0.21862  0.19008  0.35968  1.0000
  C   C72       1.0  0.04157  0.14680  0.60959  1.0000
  H   H107      1.0  0.19229  0.19515  0.28735  1.0000
  H   H108      1.0  0.25441  0.15066  0.48195  1.0000
  H   H109      1.0  0.14043  0.25240  0.34523  1.0000
  C   C73       1.0  0.33461  0.13520  0.59046  1.0000
  H   H110      1.0  0.11414  0.17148  0.36003  1.0000
  C   C74       1.0  0.30659  0.18804  0.59279  1.0000
  C   C75       1.0  0.26998  0.18132  0.57923  1.0000
  C   C76       1.0  0.26567  0.15127  0.57143  1.0000
  C   C77       1.0  0.29778  0.12844  0.57700  1.0000
  H   H111      1.0  0.21709  0.15698  0.39259  1.0000
  H   H112      1.0  0.33041  0.24868  0.52707  1.0000
  H   H113      1.0  0.23818  0.14575  0.56075  1.0000
  H   H114      1.0  0.29430  0.10536  0.57072  1.0000
  C   C78       1.0  0.40557  0.02310  0.33557  1.0000
  H   H115      1.0  0.17982  0.24461  0.40178  1.0000
  H   H116      1.0  0.21120  0.28105  0.35112  1.0000
  C   C79       1.0  0.02895  0.35895  0.51702  1.0000
  H   H117      1.0  0.12409  0.25282  0.41088  1.0000
  C   C80       1.0  0.48142  0.00200  0.34718  1.0000
  H   H118      1.0  0.22866  0.25522  0.37125  1.0000
  N   N6        1.0  0.44934  0.00754  0.32895  1.0000
  H   H119      1.0  0.02570  0.30995  0.55886  1.0000
  H   H120      1.0  0.10035  0.20397  0.38776  1.0000
  H   H121      1.0  0.13243  0.11181  0.59737  1.0000
  H   H122      1.0  0.46119  0.14213  0.34340  1.0000
  C   C81       1.0  0.07343  0.17490  0.61149  1.0000
  H   H123      1.0  0.07152  0.18741  0.59612  1.0000
  C   C82       1.0  0.01862  0.32998  0.54925  1.0000
  H   H124      1.0  0.31145  0.27015  0.49281  1.0000
  H   H125      1.0  0.34514  0.16408  0.52199  1.0000
  H   H126      1.0  0.06802  0.18617  0.33141  1.0000
  H   H127      1.0  0.26178  0.20419  0.48650  1.0000
  N   N7        1.0  0.31627  0.20658  0.50968  1.0000
  H   H128      1.0  0.14640  0.17985  0.58609  1.0000
  H   H129      1.0  0.48333  0.05045  0.32112  1.0000
  H   H130      1.0  0.31471  0.15602  0.48180  1.0000
  H   H131      1.0  0.28584  0.14130  0.50510  1.0000
  C   C83       1.0  0.27560  0.19098  0.49990  1.0000
  H   H132      1.0  0.19017  0.23133  0.33818  1.0000
  H   H133      1.0  0.04422  0.36129  0.50150  1.0000
  H   H134      1.0  0.17191  0.12347  0.57819  1.0000
  H   H135      1.0  0.34376  0.19777  0.46095  1.0000
  H   H136      1.0  0.17550  0.14673  0.37344  1.0000
  H   H137      1.0  0.37014  0.23388  0.46457  1.0000
  H   H138      1.0  0.18789  0.16266  0.60173  1.0000
  H   H139      1.0  0.31081  0.23095  0.46891  1.0000
  H   H140      1.0  0.21648  0.20963  0.38398  1.0000
  H   H141      1.0  0.15560  0.22692  0.59956  1.0000
  H   H142      1.0  0.15118  0.18101  0.33893  1.0000
  N   N8        1.0  0.12245  0.16890  0.61755  1.0000
  C   C84       1.0  0.18550  0.16509  0.38475  1.0000
  H   H143      1.0  0.39828  0.20892  0.53329  1.0000
  C   C85       1.0  0.08769  0.20521  0.33879  1.0000
  C   C86       1.0  0.28379  0.15788  0.49178  1.0000
  H   H144      1.0  0.49650  0.33465  0.31832  1.0000
  C   C87       1.0  0.16986  0.23975  0.35199  1.0000
  H   H145      1.0  0.11315  0.13436  0.57510  1.0000
  C   C88       1.0  0.12822  0.19128  0.35097  1.0000
  H   H146      1.0  0.10007  0.24201  0.37729  1.0000
  C   C89       1.0  0.34328  0.21864  0.47115  1.0000
  H   H147      1.0  0.17730  0.27820  0.37443  1.0000
  H   H148      1.0  0.38177  0.18123  0.55283  1.0000
  H   H149      1.0  0.36680  0.17086  0.60869  1.0000
  H   H150      1.0  0.05463  0.12882  0.59878  1.0000
  H   H151      1.0  0.30222  0.18066  0.53814  1.0000
  H   H152      1.0  0.27100  0.28157  0.51230  1.0000
  C   C90       1.0  0.14561  0.23456  0.40363  1.0000
  C   C91       1.0  0.33162  0.18650  0.52783  1.0000
  H   H153      1.0  0.42154  0.07277  0.33549  1.0000
  H   H154      1.0  0.46999  0.30788  0.38255  1.0000
  H   H155      1.0  0.37951  0.22821  0.50025  1.0000
  H   H156      1.0  0.02317  0.06538  0.48733  1.0000
  C   C92       1.0  0.46058  0.99046  0.36830  1.0000
  H   H157      1.0  0.14670  0.21579  0.41554  1.0000
  H   H158      1.0  0.25490  0.25314  0.49358  1.0000
  H   H159      1.0  0.46420  0.00838  0.38077  1.0000
  C   C93       1.0  0.48669  0.32273  0.37122  1.0000
  C   C94       1.0  0.28383  0.26143  0.50317  1.0000
  C   C95       1.0  0.15080  0.16165  0.59826  1.0000
  C   C96       1.0  0.36889  0.19984  0.54234  1.0000
  H   H160      1.0  0.09944  0.21999  0.32554  1.0000
  H   H161      1.0  0.15906  0.16775  0.39716  1.0000
  H   H162      1.0  0.37538  0.18861  0.49338  1.0000
  C   C97       1.0  0.19073  0.17485  0.29723  1.0000
  H   H163      1.0  0.02146  0.10906  0.46424  1.0000
  C   C98       1.0  0.03179  0.13249  0.49389  1.0000
  H   H164      1.0  0.35494  0.21789  0.55303  1.0000
  C   C99       1.0  0.35541  0.21042  0.49435  1.0000
  H   H165      1.0  0.37777  0.06183  0.35346  1.0000
  H   H166      1.0  0.06415  0.21815  0.34927  1.0000
  H   H167      1.0  0.27485  0.23367  0.53116  1.0000
  H   H168      1.0  0.31049  0.21116  0.59892  1.0000
  C   C100      1.0  0.19831  0.26460  0.36319  1.0000
  C   C101      1.0  0.19541  0.19560  0.37316  1.0000
  H   H169      1.0  0.05321  0.11455  0.50140  1.0000
  C   C102      1.0  0.14084  0.13114  0.58674  1.0000
  S   S35       1.0  0.49580  0.14106  0.61106  1.0000
  Fe  Fe17      1.0  0.43790  0.10886  0.61788  1.0000
  H   H170      1.0  0.49548  0.25350  0.37371  1.0000
  H   H171      1.0  0.48599  0.21558  0.30681  1.0000
  C   C103      1.0  0.47135  0.12138  0.37392  1.0000
  S   S36       1.0  0.01008  0.16538  0.55456  1.0000
  H   H172      1.0  0.48854  0.09574  0.40199  1.0000
  C   C104      1.0  0.49505  0.09865  0.38524  1.0000
  H   H173      1.0  0.41928  0.98254  0.30285  1.0000
  H   H174      1.0  0.01325  0.14566  0.50626  1.0000
  H   H175      1.0  0.48887  0.22486  0.34425  1.0000
  H   H176      1.0  0.44811  0.03596  0.30061  1.0000
  H   H177      1.0  0.00846  0.15455  0.60298  1.0000
  C   C105      1.0  0.47966  0.12490  0.35227  1.0000
  C   C106      1.0  0.47227  0.02879  0.31326  1.0000
  H   H178      1.0  0.42473  0.98317  0.36771  1.0000
  C   C107      1.0  0.00264  0.12505  0.55445  1.0000
  H   H179      1.0  0.50012  0.02348  0.35109  1.0000
  H   H180      1.0  0.03879  0.98188  0.58450  1.0000
  H   H181      1.0  0.44874  0.23274  0.71477  1.0000
  H   H182      1.0  0.36841  0.18702  0.71600  1.0000
  Fe  Fe18      1.0  0.45566  0.35416  0.76890  1.0000
  S   S37       1.0  0.38085  0.34798  0.77893  1.0000
  H   H183      1.0  0.03405  0.13663  0.62533  1.0000
  S   S38       1.0  0.47280  0.34202  0.73511  1.0000
  H   H184      1.0  0.33399  0.47896  0.64830  1.0000
  S   S39       1.0  0.49181  0.40020  0.76677  1.0000
  S   S40       1.0  0.43412  0.12120  0.65242  1.0000
  Fe  Fe19      1.0  0.11053  0.26918  0.85157  1.0000
  S   S41       1.0  0.14553  0.23236  0.83190  1.0000
  H   H185      1.0  0.42190  0.26180  0.93470  1.0000
  Fe  Fe20      1.0  0.15491  0.24795  0.89228  1.0000
  S   S42       1.0  0.19316  0.21067  0.87553  1.0000
  S   S43       1.0  0.15699  0.25097  0.92810  1.0000
  Fe  Fe21      1.0  0.20815  0.24593  0.85026  1.0000
  S   S44       1.0  0.28251  0.24911  0.83889  1.0000
  Fe  Fe22      1.0  0.12720  0.20017  0.85885  1.0000
  S   S45       1.0  0.10953  0.14857  0.86065  1.0000
  S   S46       1.0  0.17417  0.28421  0.86850  1.0000
  S   S47       1.0  0.08813  0.23619  0.87698  1.0000
  C   C108      1.0  0.20990  0.25666  0.94038  1.0000
  H   H186      1.0  0.35508  0.18334  0.89818  1.0000
  H   H187      1.0  0.46023  0.26068  0.77980  1.0000
  H   H188      1.0  0.47840  0.46310  0.72912  1.0000
  H   H189      1.0  0.49338  0.26584  0.66783  1.0000
  H   H190      1.0  0.22371  0.35069  0.81583  1.0000
  H   H191      1.0  0.32371  0.28958  0.87279  1.0000
  C   C109      1.0  0.06100  0.09425  0.86132  1.0000
  C   C110      1.0  0.06138  0.12518  0.85455  1.0000
  C   C111      1.0  0.17357  0.13504  0.64134  1.0000
  H   H192      1.0  0.08945  0.08550  0.87033  1.0000
  C   C112      1.0  0.19017  0.35927  0.81032  1.0000
  Fe  Fe23      1.0  0.48559  0.08328  0.65750  1.0000
  H   H193      1.0  0.41058  0.27632  0.90927  1.0000
  H   H194      1.0  0.05930  0.31896  0.87983  1.0000
  H   H195      1.0  0.35742  0.25539  0.77848  1.0000
  C   C113      1.0  0.35474  0.32064  0.79615  1.0000
  C   C114      1.0  0.37988  0.29980  0.80834  1.0000
  C   C115      1.0  0.35735  0.27823  0.82143  1.0000
  C   C116      1.0  0.30948  0.27734  0.82267  1.0000
  C   C117      1.0  0.28446  0.29821  0.81055  1.0000
  C   C118      1.0  0.30690  0.31971  0.79742  1.0000
  H   H196      1.0  0.41666  0.30019  0.80757  1.0000
  H   H197      1.0  0.37722  0.26205  0.83054  1.0000
  H   H198      1.0  0.24780  0.29720  0.81100  1.0000
  H   H199      1.0  0.28712  0.33549  0.78792  1.0000
  C   C119      1.0  0.45087  0.24502  0.76658  1.0000
  H   H200      1.0  0.35629  0.28818  0.72966  1.0000
  C   C120      1.0  0.36754  0.23645  0.91923  1.0000
  H   H201      1.0  0.43704  0.20562  0.73466  1.0000
  H   H202      1.0  0.14684  0.36164  0.88034  1.0000
  H   H203      1.0  0.41370  0.19352  0.87757  1.0000
  H   H204      1.0  0.25955  0.20570  0.91184  1.0000
  H   H205      1.0  0.02551  0.05050  0.86111  1.0000
  H   H206      1.0  0.29101  0.31159  0.94744  1.0000
  H   H207      1.0  0.42984  0.22677  0.77382  1.0000
  H   H208      1.0  0.30369  0.19099  0.92907  1.0000
  C   C121      1.0  0.39384  0.26655  0.92340  1.0000
  H   H209      1.0  0.28532  0.25498  0.91129  1.0000
  H   H210      1.0  0.39069  0.21676  0.92263  1.0000
  C   C122      1.0  0.31333  0.28796  0.88967  1.0000
  H   H211      1.0  0.16797  0.39773  0.87118  1.0000
  H   H212      1.0  0.40918  0.28404  0.75697  1.0000
  H   H213      1.0  0.33862  0.29956  0.89976  1.0000
  C   C123      1.0  0.14644  0.37785  0.86673  1.0000
  S   S48       1.0  0.06449  0.30369  0.83491  1.0000
  H   H214      1.0  0.37513  0.21628  0.69576  1.0000
  H   H215      1.0  0.24902  0.38842  0.85166  1.0000
  H   H216      1.0  0.28104  0.30113  0.89118  1.0000
  H   H217      1.0  0.31244  0.19616  0.88027  1.0000
  C   C124      1.0  0.42580  0.26371  0.74938  1.0000
  C   C125      1.0  0.12518  0.14387  0.63406  1.0000
  H   H218      1.0  0.48235  0.23438  0.76008  1.0000
  C   C126      1.0  0.33373  0.24999  0.76542  1.0000
  C   C127      1.0  0.42079  0.21836  0.87989  1.0000
  H   H219      1.0  0.02226  0.36258  0.89873  1.0000
  C   C128      1.0  0.37045  0.26824  0.72068  1.0000
  C   C129      1.0  0.01982  0.36099  0.88167  1.0000
  H   H220      1.0  0.27964  0.24536  0.88431  1.0000
  C   C130      1.0  0.23278  0.28467  0.93815  1.0000
  H   H221      1.0  0.43107  0.29360  0.70927  1.0000
  H   H222      1.0  0.11059  0.38504  0.86477  1.0000
  C   C131      1.0  0.29037  0.19102  0.91266  1.0000
  H   H223      1.0  0.45321  0.27420  0.73964  1.0000
  H   H224      1.0  0.30497  0.23700  0.77253  1.0000
  H   H225      1.0  0.34200  0.23500  0.93220  1.0000
  H   H226      1.0  0.10531  0.15065  0.64839  1.0000
  C   C132      1.0  0.38095  0.99051  0.71994  1.0000
  H   H227      1.0  0.35928  0.23323  0.86444  1.0000
  H   H228      1.0  0.38073  0.29964  0.69427  1.0000
  C   C133      1.0  0.03739  0.33380  0.84901  1.0000
  H   H229      1.0  0.32971  0.22110  0.73797  1.0000
  H   H230      1.0  0.41109  0.26438  0.69120  1.0000
  H   H231      1.0  0.38810  0.26220  0.87840  1.0000
  N   N9        1.0  0.39344  0.24591  0.73552  1.0000
  C   C134      1.0  0.32711  0.20036  0.89631  1.0000
  H   H232      1.0  0.12489  0.20226  0.64318  1.0000
  N   N10       1.0  0.16802  0.37945  0.82691  1.0000
  H   H233      1.0  0.18093  0.31894  0.79024  1.0000
  C   C135      1.0  0.19749  0.40757  0.82972  1.0000
  C   C136      1.0  0.12145  0.38858  0.81884  1.0000
  C   C137      1.0  0.16428  0.36088  0.84700  1.0000
  C   C138      1.0  0.16320  0.33023  0.80374  1.0000
  H   H234      1.0  0.19715  0.37275  0.79564  1.0000
  C   C139      1.0  0.10175  0.41984  0.82624  1.0000
  H   H235      1.0  0.12813  0.33542  0.79841  1.0000
  H   H236      1.0  0.37130  0.28418  0.93071  1.0000
  H   H237      1.0  0.18278  0.42369  0.84156  1.0000
  H   H238      1.0  0.19903  0.42084  0.81462  1.0000
  H   H239      1.0  0.12131  0.39003  0.80121  1.0000
  H   H240      1.0  0.09607  0.37054  0.82271  1.0000
  H   H241      1.0  0.14104  0.34104  0.84475  1.0000
  H   H242      1.0  0.19773  0.35054  0.85116  1.0000
  H   H243      1.0  0.05666  0.19028  0.62333  1.0000
  C   C140      1.0  0.02448  0.13604  0.84275  1.0000
  H   H244      1.0  0.16189  0.31300  0.81669  1.0000
  C   C141      1.0  0.24705  0.40167  0.83670  1.0000
  N   N11       1.0  0.34474  0.23296  0.89799  1.0000
  H   H245      1.0  0.44270  0.22556  0.86640  1.0000
  H   H246      1.0  0.10295  0.42334  0.84355  1.0000
  H   H247      1.0  0.40378  0.99243  0.73383  1.0000
  H   H248      1.0  0.10916  0.12217  0.62867  1.0000
  H   H249      1.0  0.26741  0.39011  0.82417  1.0000
  H   H250      1.0  0.19525  0.12713  0.62798  1.0000
  H   H251      1.0  0.37078  0.20907  0.75637  1.0000
  H   H252      1.0  0.06539  0.42123  0.82154  1.0000
  H   H253      1.0  0.31975  0.27168  0.75887  1.0000
  C   C142      1.0  0.04072  0.33621  0.87101  1.0000
  C   C143      1.0  0.42029  0.22196  0.72356  1.0000
  H   H254      1.0  0.21911  0.30232  0.92789  1.0000
  C   C144      1.0  0.27330  0.28992  0.94930  1.0000
  S   S49       1.0  0.48494  0.06788  0.62338  1.0000
  Fe  Fe24      1.0  0.49433  0.15170  0.64605  1.0000
  C   C145      1.0  0.40055  0.28196  0.70299  1.0000
  H   H255      1.0  0.34065  0.25746  0.71278  1.0000
  H   H256      1.0  0.02430  0.15963  0.83728  1.0000
  C   C146      1.0  0.30431  0.25428  0.89615  1.0000
  C   C147      1.0  0.37696  0.23792  0.87968  1.0000
  H   H257      1.0  0.17119  0.11553  0.65264  1.0000
  H   H258      1.0  0.44082  0.22192  0.89453  1.0000
  C   C148      1.0  0.35719  0.22999  0.74841  1.0000
  H   H259      1.0  0.11952  0.43928  0.81836  1.0000
  H   H260      1.0  0.41709  0.18704  0.69896  1.0000
  C   C149      1.0  0.39302  0.20221  0.70776  1.0000
  H   H261      1.0  0.36392  0.01321  0.71815  1.0000
  H   H262      1.0  0.27910  0.16713  0.90918  1.0000
  H   H263      1.0  0.26380  0.42418  0.83968  1.0000
  S   S50       1.0  0.49215  0.20242  0.65572  1.0000
  H   H264      1.0  0.01329  0.07230  0.91368  1.0000
  C   C150      1.0  0.14120  0.19792  0.62748  1.0000
  S   S51       1.0  0.48200  0.05475  0.68795  1.0000
  H   H265      1.0  0.17834  0.19568  0.63055  1.0000
  H   H266      1.0  0.19063  0.15409  0.64989  1.0000
  C   C151      1.0  0.49282  0.01496  0.69161  1.0000
  C   C152      1.0  0.48803  0.47243  0.71389  1.0000
  C   C153      1.0  0.02467  0.07433  0.85617  1.0000
  C   C154      1.0  0.49490  0.99432  0.67464  1.0000
  H   H267      1.0  0.49747  0.01958  0.72553  1.0000
  H   H268      1.0  0.14997  0.24735  0.62376  1.0000
  H   H269      1.0  0.01056  0.35474  0.82073  1.0000
  H   H270      1.0  0.40151  0.98676  0.70542  1.0000
  H   H271      1.0  0.48988  0.00263  0.65867  1.0000
  C   C155      1.0  0.01317  0.35641  0.83777  1.0000
  C   C156      1.0  0.49893  0.00374  0.71230  1.0000
  H   H272      1.0  0.48242  0.53134  0.98240  1.0000
  S   S52       1.0  0.06469  0.61156  0.24348  1.0000
  H   H273      1.0  0.16582  0.63722  0.27146  1.0000
  H   H274      1.0  0.39282  0.48329  0.03913  1.0000
  H   H275      1.0  0.05594  0.50410  0.17272  1.0000
  Fe  Fe25      1.0  0.05986  0.84590  0.12750  1.0000
  S   S53       1.0  0.13442  0.83983  0.11726  1.0000
  H   H276      1.0  0.06419  0.73349  0.26006  1.0000
  C   C157      1.0  0.39702  0.84864  0.98419  1.0000
  S   S54       1.0  0.04184  0.83362  0.16111  1.0000
  H   H277      1.0  0.41809  0.50786  0.98463  1.0000
  Fe  Fe26      1.0  0.40852  0.75186  0.04155  1.0000
  S   S55       1.0  0.37581  0.72133  0.06608  1.0000
  C   C158      1.0  0.30396  0.73858  0.95590  1.0000
  Fe  Fe27      1.0  0.35420  0.72332  0.00558  1.0000
  S   S56       1.0  0.31894  0.69024  0.02735  1.0000
  S   S57       1.0  0.34938  0.72142  0.96979  1.0000
  Fe  Fe28      1.0  0.31013  0.73162  0.04889  1.0000
  S   S58       1.0  0.23759  0.73694  0.06212  1.0000
  Fe  Fe29      1.0  0.38745  0.68277  0.04261  1.0000
  S   S59       1.0  0.41547  0.63587  0.05369  1.0000
  S   S60       1.0  0.34239  0.76507  0.02593  1.0000
  S   S61       1.0  0.42295  0.71279  0.01918  1.0000
  C   C159      1.0  0.27112  0.75663  0.96614  1.0000
  C   C160      1.0  0.44474  0.83870  0.04502  1.0000
  H   H278      1.0  0.27328  0.76044  0.98305  1.0000
  H   H279      1.0  0.49019  0.49635  0.05604  1.0000
  C   C161      1.0  0.16207  0.81196  0.10087  1.0000
  C   C162      1.0  0.13813  0.78890  0.09017  1.0000
  C   C163      1.0  0.16178  0.76647  0.07819  1.0000
  C   C164      1.0  0.20960  0.76700  0.07644  1.0000
  C   C165      1.0  0.23346  0.79043  0.08680  1.0000
  C   C166      1.0  0.20982  0.81266  0.09897  1.0000
  H   H280      1.0  0.10143  0.78838  0.09113  1.0000
  H   H281      1.0  0.14291  0.74855  0.07020  1.0000
  H   H282      1.0  0.27016  0.79116  0.08571  1.0000
  H   H283      1.0  0.22873  0.83043  0.10710  1.0000
  H   H284      1.0  0.20921  0.78294  0.96256  1.0000
  C   C167      1.0  0.44954  0.94738  0.08948  1.0000
  C   C168      1.0  0.49711  0.88212  0.04153  1.0000
  C   C169      1.0  0.03963  0.48955  0.18437  1.0000
  H   H285      1.0  0.04326  0.71946  0.12882  1.0000
  C   C170      1.0  0.35615  0.84130  0.99881  1.0000
  H   H286      1.0  0.48165  0.71489  0.10066  1.0000
  H   H287      1.0  0.40979  0.78295  0.95366  1.0000
  C   C171      1.0  0.23493  0.76942  0.95449  1.0000
  H   H288      1.0  0.06325  0.74606  0.10948  1.0000
  C   C172      1.0  0.07360  0.73276  0.12368  1.0000
  C   C173      1.0  0.45778  0.83298  0.95982  1.0000
  S   S62       1.0  0.03174  0.54269  0.20778  1.0000
  H   H289      1.0  0.36916  0.78632  0.97391  1.0000
  C   C174      1.0  0.46696  0.61611  0.04710  1.0000
  C   C175      1.0  0.47937  0.58985  0.05883  1.0000
  H   H290      1.0  0.45770  0.58229  0.07168  1.0000
  H   H291      1.0  0.43316  0.54657  0.03778  1.0000
  H   H292      1.0  0.46863  0.93106  0.09969  1.0000
  H   H293      1.0  0.02450  0.94151  0.22991  1.0000
  H   H294      1.0  0.42039  0.86280  0.99403  1.0000
  C   C176      1.0  0.42508  0.56324  0.00665  1.0000
  C   C177      1.0  0.41875  0.53728  0.02294  1.0000
  C   C178      1.0  0.44303  0.80356  0.99287  1.0000
  H   H295      1.0  0.27044  0.66708  0.96145  1.0000
  H   H296      1.0  0.44957  0.75697  0.97921  1.0000
  H   H297      1.0  0.48684  0.87106  0.97902  1.0000
  H   H298      1.0  0.24581  0.56821  0.28255  1.0000
  C   C179      1.0  0.45256  0.87053  0.04284  1.0000
  H   H299      1.0  0.18886  0.73803  0.28082  1.0000
  H   H300      1.0  0.14097  0.64231  0.95637  1.0000
  H   H301      1.0  0.42401  0.88626  0.04243  1.0000
  S   S63       1.0  0.02486  0.89235  0.12950  1.0000
  C   C180      1.0  0.48154  0.69230  0.09244  1.0000
  H   H302      1.0  0.33720  0.82036  0.99427  1.0000
  N   N12       1.0  0.11451  0.74094  0.15937  1.0000
  C   C181      1.0  0.08614  0.71459  0.16772  1.0000
  C   C182      1.0  0.08878  0.75526  0.14121  1.0000
  C   C183      1.0  0.11867  0.76448  0.17686  1.0000
  C   C184      1.0  0.16070  0.72859  0.15296  1.0000
  C   C185      1.0  0.10263  0.69942  0.18842  1.0000
  H   H303      1.0  0.38152  0.53491  0.02592  1.0000
  C   C186      1.0  0.14681  0.79345  0.17185  1.0000
  C   C187      1.0  0.18619  0.74578  0.13512  1.0000
  H   H304      1.0  0.05055  0.72218  0.17045  1.0000
  H   H305      1.0  0.08397  0.69566  0.15587  1.0000
  H   H306      1.0  0.10850  0.77387  0.13347  1.0000
  H   H307      1.0  0.05733  0.76686  0.14712  1.0000
  H   H308      1.0  0.08423  0.77224  0.18211  1.0000
  H   H309      1.0  0.13514  0.75444  0.19108  1.0000
  H   H310      1.0  0.18384  0.72781  0.16687  1.0000
  H   H311      1.0  0.15837  0.70424  0.14746  1.0000
  H   H312      1.0  0.13944  0.69386  0.18797  1.0000
  H   H313      1.0  0.09467  0.71406  0.20238  1.0000
  H   H314      1.0  0.08378  0.67752  0.19088  1.0000
  H   H315      1.0  0.08015  0.78938  0.28230  1.0000
  H   H316      1.0  0.37237  0.63236  0.28047  1.0000
  H   H317      1.0  0.13414  0.71458  0.23994  1.0000
  H   H318      1.0  0.13589  0.80528  0.15723  1.0000
  H   H319      1.0  0.18366  0.78806  0.17108  1.0000
  H   H320      1.0  0.14231  0.81034  0.18493  1.0000
  H   H321      1.0  0.17009  0.74177  0.11954  1.0000
  H   H322      1.0  0.22139  0.73661  0.13382  1.0000
  H   H323      1.0  0.18903  0.77086  0.13778  1.0000
  H   H324      1.0  0.44536  0.68588  0.09005  1.0000
  H   H325      1.0  0.10106  0.71664  0.11893  1.0000
  H   H326      1.0  0.49702  0.67274  0.06183  1.0000
  C   C188      1.0  0.49570  0.62577  0.03070  1.0000
  S   S64       1.0  0.00553  0.90450  0.19340  1.0000
  H   H327      1.0  0.46496  0.81868  0.00269  1.0000
  H   H328      1.0  0.41045  0.83000  0.04654  1.0000
  C   C189      1.0  0.09774  0.73063  0.26799  1.0000
  H   H329      1.0  0.46129  0.57017  0.00538  1.0000
  H   H330      1.0  0.41811  0.95394  0.09811  1.0000
  C   C190      1.0  0.02463  0.50252  0.20360  1.0000
  S   S65       1.0  0.01466  0.55737  0.27189  1.0000
  H   H331      1.0  0.40646  0.58399  0.01234  1.0000
  C   C191      1.0  0.47127  0.77512  0.98634  1.0000
  H   H332      1.0  0.15472  0.69782  0.26402  1.0000
  H   H333      1.0  0.30041  0.58366  0.27643  1.0000
  H   H334      1.0  0.23216  0.67255  0.27453  1.0000
  C   C192      1.0  0.45271  0.49418  0.05746  1.0000
  S   S66       1.0  0.47358  0.77817  0.04832  1.0000
  H   H335      1.0  0.33096  0.86035  0.99793  1.0000
  H   H336      1.0  0.10177  0.68516  0.25259  1.0000
  C   C193      1.0  0.00797  0.94504  0.19677  1.0000
  H   H337      1.0  0.36725  0.83872  0.01548  1.0000
  H   H338      1.0  0.41643  0.79517  0.00397  1.0000
  H   H339      1.0  0.17166  0.68868  0.96574  1.0000
  C   C194      1.0  0.43011  0.48537  0.03622  1.0000
  C   C195      1.0  0.12377  0.70546  0.25564  1.0000
  C   C196      1.0  0.23589  0.66600  0.96859  1.0000
  N   N13       1.0  0.42193  0.82135  0.97497  1.0000
  H   H340      1.0  0.11574  0.75263  0.26508  1.0000
  H   H341      1.0  0.43804  0.51539  0.06449  1.0000
  Fe  Fe30      1.0  0.05716  0.60015  0.27792  1.0000
  C   C197      1.0  0.39027  0.80037  0.96295  1.0000
  N   N14       1.0  0.43946  0.50640  0.01765  1.0000
  C   C198      1.0  0.49021  0.50878  0.01444  1.0000
  S   S67       1.0  0.00490  0.69115  0.23922  1.0000
  H   H342      1.0  0.41098  0.55747  0.99091  1.0000
  H   H343      1.0  0.44081  0.93428  0.07496  1.0000
  C   C199      1.0  0.01748  0.95710  0.21697  1.0000
  C   C200      1.0  0.48147  0.81829  0.04581  1.0000
  H   H344      1.0  0.23866  0.67740  0.98432  1.0000
  C   C201      1.0  0.41532  0.49292  0.99874  1.0000
  H   H345      1.0  0.48690  0.76502  0.00074  1.0000
  C   C202      1.0  0.48030  0.97531  0.08453  1.0000
  C   C203      1.0  0.20089  0.68364  0.95504  1.0000
  H   H346      1.0  0.38553  0.86490  0.97167  1.0000
  H   H347      1.0  0.48675  0.64586  0.02149  1.0000
  H   H348      1.0  0.48708  0.71268  0.06180  1.0000
  H   H349      1.0  0.49618  0.67431  0.10278  1.0000
  C   C204      1.0  0.49799  0.85060  0.96985  1.0000
  Fe  Fe31      1.0  0.00105  0.63978  0.24712  1.0000
  H   H350      1.0  0.03824  0.69164  0.28397  1.0000
  H   H351      1.0  0.01658  0.75400  0.22691  1.0000
  H   H352      1.0  0.33231  0.83085  0.95540  1.0000
  H   H353      1.0  0.37804  0.49151  0.00188  1.0000
  Fe  Fe32      1.0  0.01711  0.57151  0.23744  1.0000
  H   H354      1.0  0.22589  0.64173  0.97131  1.0000
  H   H355      1.0  0.41384  0.97227  0.05588  1.0000
  C   C205      1.0  0.00388  0.48343  0.21860  1.0000
  Fe  Fe33      1.0  0.00202  0.87808  0.16211  1.0000
  H   H356      1.0  0.49948  0.78097  0.97541  1.0000
  H   H357      1.0  0.48140  0.88239  0.41536  1.0000
  S   S68       1.0  0.37926  0.60644  0.59729  1.0000
  H   H358      1.0  0.15058  0.70203  0.30449  1.0000
  H   H359      1.0  0.03062  0.53319  0.49790  1.0000
  Fe  Fe34      1.0  0.33531  0.73005  0.38409  1.0000
  S   S69       1.0  0.33735  0.75551  0.35293  1.0000
  S   S70       1.0  0.30546  0.75210  0.41368  1.0000
  Fe  Fe35      1.0  0.39500  0.67767  0.36735  1.0000
  S   S71       1.0  0.40230  0.69945  0.33539  1.0000
  S   S72       1.0  0.42363  0.63219  0.37889  1.0000
  Fe  Fe36      1.0  0.41256  0.74475  0.35271  1.0000
  S   S73       1.0  0.47584  0.77554  0.34740  1.0000
  Fe  Fe37      1.0  0.32665  0.70828  0.33835  1.0000
  S   S74       1.0  0.28111  0.69728  0.30988  1.0000
  S   S75       1.0  0.41049  0.72158  0.38458  1.0000
  S   S76       1.0  0.31916  0.68418  0.36956  1.0000
  Fe  Fe38      1.0  0.18205  0.71626  0.55250  1.0000
  S   S77       1.0  0.15874  0.67320  0.53656  1.0000
  S   S78       1.0  0.24689  0.71802  0.57252  1.0000
  Fe  Fe39      1.0  0.10371  0.75515  0.53241  1.0000
  S   S79       1.0  0.07580  0.71372  0.51498  1.0000
  S   S80       1.0  0.08023  0.80540  0.52721  1.0000
  Fe  Fe40      1.0  0.08800  0.68813  0.54545  1.0000
  S   S81       1.0  0.04306  0.65264  0.56175  1.0000
  Fe  Fe41      1.0  0.14909  0.70240  0.50760  1.0000
  S   S82       1.0  0.17351  0.68078  0.47679  1.0000
  S   S83       1.0  0.11174  0.73007  0.56352  1.0000
  S   S84       1.0  0.17672  0.74494  0.52288  1.0000
  C   C206      1.0  0.26872  0.73186  0.43096  1.0000
  C   C207      1.0  0.25336  0.74642  0.44954  1.0000
  C   C208      1.0  0.22405  0.73109  0.46368  1.0000
  C   C209      1.0  0.20969  0.70107  0.45929  1.0000
  C   C210      1.0  0.22521  0.68644  0.44076  1.0000
  C   C211      1.0  0.25473  0.70172  0.42668  1.0000
  H   H360      1.0  0.26383  0.76978  0.45293  1.0000
  H   H361      1.0  0.21217  0.74266  0.47781  1.0000
  H   H362      1.0  0.21437  0.66320  0.43728  1.0000
  H   H363      1.0  0.26639  0.69026  0.41245  1.0000
  C   C212      1.0  0.15910  0.63051  0.30503  1.0000
  C   C213      1.0  0.07967  0.63494  0.46241  1.0000
  H   H364      1.0  0.06937  0.95079  0.55132  1.0000
  C   C214      1.0  0.23485  0.67093  0.30861  1.0000
  C   C215      1.0  0.21503  0.65816  0.32676  1.0000
  C   C216      1.0  0.17766  0.63791  0.32493  1.0000
  H   H365      1.0  0.22823  0.66406  0.34221  1.0000
  H   H366      1.0  0.16262  0.62820  0.33908  1.0000
  H   H367      1.0  0.39543  0.60264  0.31518  1.0000
  H   H368      1.0  0.04919  0.63012  0.49325  1.0000
  H   H369      1.0  0.08156  0.97911  0.60434  1.0000
  H   H370      1.0  0.31810  0.63579  0.29217  1.0000
  H   H371      1.0  0.36526  0.83146  0.37485  1.0000
  C   C217      1.0  0.05714  0.68366  0.31657  1.0000
  N   N15       1.0  0.09115  0.72470  0.29135  1.0000
  H   H372      1.0  0.08549  0.68719  0.32785  1.0000
  H   H373      1.0  0.44668  0.88812  0.34363  1.0000
  H   H374      1.0  0.05253  0.86504  0.51248  1.0000
  H   H375      1.0  0.44287  0.85122  0.43890  1.0000
  C   C218      1.0  0.08074  0.62216  0.48517  1.0000
  C   C219      1.0  0.41271  0.95315  0.33010  1.0000
  H   H376      1.0  0.04235  0.79644  0.30378  1.0000
  H   H377      1.0  0.11237  0.88488  0.57858  1.0000
  C   C220      1.0  0.17920  0.64306  0.28689  1.0000
  C   C221      1.0  0.36283  0.59990  0.30648  1.0000
  C   C222      1.0  0.08662  0.57824  0.51015  1.0000
  C   C223      1.0  0.35424  0.63144  0.29590  1.0000
  H   H378      1.0  0.07735  0.66048  0.46322  1.0000
  C   C224      1.0  0.34207  0.63769  0.59127  1.0000
  C   C225      1.0  0.35255  0.66813  0.59664  1.0000
  C   C226      1.0  0.32254  0.69229  0.59123  1.0000
  C   C227      1.0  0.28161  0.68641  0.58044  1.0000
  C   C228      1.0  0.27089  0.65592  0.57525  1.0000
  C   C229      1.0  0.30104  0.63177  0.58055  1.0000
  H   H379      1.0  0.06509  0.52465  0.47469  1.0000
  H   H380      1.0  0.33132  0.71575  0.59530  1.0000
  H   H381      1.0  0.23940  0.65097  0.56714  1.0000
  H   H382      1.0  0.29244  0.60833  0.57638  1.0000
  C   C230      1.0  0.07160  0.78200  0.29861  1.0000
  Fe  Fe42      1.0  0.44519  0.61063  0.61641  1.0000
  H   H383      1.0  0.09273  0.67491  0.28777  1.0000
  N   N16       1.0  0.32797  0.68667  0.51169  1.0000
  C   C231      1.0  0.33320  0.72106  0.50934  1.0000
  C   C232      1.0  0.34989  0.67145  0.49272  1.0000
  C   C233      1.0  0.35077  0.67507  0.53146  1.0000
  C   C234      1.0  0.27803  0.67928  0.51324  1.0000
  C   C235      1.0  0.31724  0.74079  0.52830  1.0000
  C   C236      1.0  0.32382  0.67451  0.47167  1.0000
  C   C237      1.0  0.40160  0.68296  0.53375  1.0000
  C   C238      1.0  0.26570  0.64471  0.51423  1.0000
  H   H384      1.0  0.36918  0.72734  0.50595  1.0000
  H   H385      1.0  0.31359  0.72947  0.49544  1.0000
  H   H386      1.0  0.35613  0.64651  0.49554  1.0000
  H   H387      1.0  0.38440  0.68113  0.48981  1.0000
  H   H388      1.0  0.33314  0.68378  0.54579  1.0000
  H   H389      1.0  0.34797  0.64954  0.53261  1.0000
  H   H390      1.0  0.26314  0.68955  0.52786  1.0000
  H   H391      1.0  0.25821  0.69040  0.50036  1.0000
  H   H392      1.0  0.33511  0.73504  0.54321  1.0000
  H   H393      1.0  0.32453  0.76538  0.52491  1.0000
  H   H394      1.0  0.28000  0.73915  0.53076  1.0000
  H   H395      1.0  0.31814  0.69887  0.46723  1.0000
  H   H396      1.0  0.34419  0.66387  0.45873  1.0000
  H   H397      1.0  0.29079  0.66221  0.47212  1.0000
  H   H398      1.0  0.42236  0.67281  0.52082  1.0000
  H   H399      1.0  0.41419  0.67295  0.54885  1.0000
  H   H400      1.0  0.40742  0.70813  0.53470  1.0000
  H   H401      1.0  0.26497  0.63651  0.53086  1.0000
  H   H402      1.0  0.28900  0.62974  0.50509  1.0000
  H   H403      1.0  0.23163  0.64126  0.50709  1.0000
  C   C239      1.0  0.46792  0.83717  0.42985  1.0000
  H   H404      1.0  0.04951  0.62701  0.45347  1.0000
  H   H405      1.0  0.11455  0.58753  0.54133  1.0000
  H   H406      1.0  0.43669  0.78116  0.43990  1.0000
  C   C240      1.0  0.00937  0.62654  0.54726  1.0000
  H   H407      1.0  0.38716  0.82392  0.45305  1.0000
  H   H408      1.0  0.12198  0.57726  0.45790  1.0000
  H   H409      1.0  0.35037  0.81931  0.43021  1.0000
  N   N17       1.0  0.08542  0.58765  0.48711  1.0000
  H   H410      1.0  0.12997  0.55021  0.47798  1.0000
  C   C241      1.0  0.28137  0.57007  0.28837  1.0000
  H   H411      1.0  0.04128  0.92395  0.53384  1.0000
  H   H412      1.0  0.38671  0.53126  0.34857  1.0000
  C   C242      1.0  0.06069  0.93444  0.59219  1.0000
  C   C243      1.0  0.47271  0.61492  0.34314  1.0000
  C   C244      1.0  0.17332  0.74676  0.29567  1.0000
  H   H413      1.0  0.16213  0.77080  0.29331  1.0000
  C   C245      1.0  0.47207  0.87035  0.34554  1.0000
  C   C246      1.0  0.37542  0.80779  0.44062  1.0000
  H   H414      1.0  0.09109  0.93535  0.58180  1.0000
  H   H415      1.0  0.34540  0.54116  0.31560  1.0000
  S   S85       1.0  0.11203  0.60475  0.30369  1.0000
  H   H416      1.0  0.35677  0.80273  0.39455  1.0000
  H   H417      1.0  0.26483  0.60908  0.30795  1.0000
  H   H418      1.0  0.01210  0.58510  0.48320  1.0000
  H   H419      1.0  0.01312  0.87352  0.56550  1.0000
  C   C247      1.0  0.03749  0.88451  0.57658  1.0000
  H   H420      1.0  0.45955  0.77763  0.39384  1.0000
  H   H421      1.0  0.40259  0.79912  0.37557  1.0000
  H   H422      1.0  0.04329  0.57685  0.45980  1.0000
  H   H423      1.0  0.09953  0.55425  0.51185  1.0000
  C   C248      1.0  0.38327  0.81542  0.38565  1.0000
  H   H424      1.0  0.42305  0.83324  0.34306  1.0000
  H   H425      1.0  0.37920  0.56979  0.35758  1.0000
  C   C249      1.0  0.41476  0.83405  0.40031  1.0000
  C   C250      1.0  0.46205  0.60894  0.36435  1.0000
  N   N18       1.0  0.02217  0.91679  0.58217  1.0000
  C   C251      1.0  0.00268  0.93303  0.56313  1.0000
  H   H426      1.0  0.15000  0.60167  0.52056  1.0000
  N   N19       1.0  0.44377  0.81534  0.41515  1.0000
  H   H427      1.0  0.40661  0.93312  0.31951  1.0000
  N   N20       1.0  0.32608  0.58865  0.32122  1.0000
  C   C252      1.0  0.33907  0.55707  0.32912  1.0000
  C   C253      1.0  0.28077  0.58613  0.31016  1.0000
  C   C254      1.0  0.32160  0.61134  0.33917  1.0000
  H   H428      1.0  0.11138  0.62951  0.45360  1.0000
  C   C255      1.0  0.38194  0.55537  0.34313  1.0000
  H   H429      1.0  0.45864  0.63501  0.33544  1.0000
  C   C256      1.0  0.28850  0.60194  0.35703  1.0000
  C   C257      1.0  0.48070  0.58286  0.37418  1.0000
  H   H430      1.0  0.31063  0.54638  0.33815  1.0000
  H   H431      1.0  0.48689  0.82468  0.44243  1.0000
  C   C258      1.0  0.02376  0.85542  0.52087  1.0000
  H   H432      1.0  0.25582  0.57334  0.32010  1.0000
  H   H433      1.0  0.35526  0.61633  0.34642  1.0000
  H   H434      1.0  0.30967  0.63407  0.33318  1.0000
  H   H435      1.0  0.07262  0.92234  0.60671  1.0000
  H   H436      1.0  0.09079  0.89526  0.55269  1.0000
  H   H437      1.0  0.19555  0.58848  0.46687  1.0000
  H   H438      1.0  0.20110  0.74715  0.30758  1.0000
  H   H439      1.0  0.37887  0.96108  0.33559  1.0000
  H   H440      1.0  0.39310  0.48875  0.61257  1.0000
  H   H441      1.0  0.29932  0.58052  0.36509  1.0000
  H   H442      1.0  0.25314  0.59957  0.35119  1.0000
  H   H443      1.0  0.28804  0.62024  0.36930  1.0000
  C   C259      1.0  0.11426  0.59852  0.52545  1.0000
  H   H444      1.0  0.12857  0.73155  0.32058  1.0000
  C   C260      1.0  0.08526  0.88066  0.56674  1.0000
  C   C261      1.0  0.12637  0.57541  0.47537  1.0000
  H   H445      1.0  0.43652  0.84846  0.38980  1.0000
  H   H446      1.0  0.39326  0.85082  0.40918  1.0000
  H   H447      1.0  0.49262  0.81049  0.38945  1.0000
  H   H448      1.0  0.10831  0.63468  0.49340  1.0000
  C   C262      1.0  0.17306  0.58930  0.48103  1.0000
  H   H449      1.0  0.29534  0.54640  0.28923  1.0000
  H   H450      1.0  0.17176  0.61389  0.48537  1.0000
  C   C263      1.0  0.04348  0.57352  0.47726  1.0000
  H   H451      1.0  0.18948  0.57611  0.49398  1.0000
  H   H452      1.0  0.40094  0.77482  0.41796  1.0000
  H   H453      1.0  0.01274  0.59146  0.57131  1.0000
  C   C264      1.0  0.13512  0.72534  0.30372  1.0000
  H   H454      1.0  0.05162  0.57803  0.51690  1.0000
  H   H455      1.0  0.38392  0.67312  0.60488  1.0000
  H   H456      1.0  0.41315  0.56150  0.33423  1.0000
  H   H457      1.0  0.09776  0.62127  0.52765  1.0000
  H   H458      1.0  0.02606  0.69566  0.32224  1.0000
  H   H459      1.0  0.04930  0.65864  0.31678  1.0000
  C   C265      1.0  0.03654  0.53865  0.48095  1.0000
  C   C266      1.0  0.06967  0.69331  0.29374  1.0000
  H   H460      1.0  0.00532  0.53124  0.47248  1.0000
  H   H461      1.0  0.08942  0.85638  0.56142  1.0000
  C   C267      1.0  0.45844  0.83911  0.34528  1.0000
  C   C268      1.0  0.47715  0.79661  0.40228  1.0000
  C   C269      1.0  0.41533  0.79340  0.42810  1.0000
  H   H462      1.0  0.35666  0.78904  0.44882  1.0000
  C   C270      1.0  0.05764  0.74791  0.29999  1.0000
  H   H463      1.0  0.47090  0.96611  0.31250  1.0000
  C   C271      1.0  0.03611  0.94275  0.54550  1.0000
  H   H464      1.0  0.09980  0.78720  0.30966  1.0000
  H   H465      1.0  0.36649  0.65050  0.30612  1.0000
  C   C272      1.0  0.02723  0.82551  0.52939  1.0000
  H   H466      1.0  0.43319  0.94420  0.34345  1.0000
  H   H467      1.0  0.05070  0.74375  0.31706  1.0000
  H   H468      1.0  0.47257  0.57808  0.39057  1.0000
  H   H469      1.0  0.03754  0.86952  0.59091  1.0000
  C   C273      1.0  0.50000  0.86080  0.41918  1.0000
  H   H470      1.0  0.48016  0.97014  0.37391  1.0000
  H   H471      1.0  0.02445  0.96978  0.61118  1.0000
  H   H472      1.0  0.45110  0.49922  0.61625  1.0000
  C   C274      1.0  0.49075  0.81559  0.34729  1.0000
  C   C275      1.0  0.05004  0.96812  0.59831  1.0000
  C   C276      1.0  0.21693  0.66301  0.28869  1.0000
  H   H473      1.0  0.37124  0.58262  0.29403  1.0000
  H   H474      1.0  0.02172  0.96290  0.53700  1.0000
  H   H475      1.0  0.02420  0.74552  0.29179  1.0000
  C   C277      1.0  0.43892  0.97782  0.31757  1.0000
  H   H476      1.0  0.41094  0.52855  0.60995  1.0000
  H   H477      1.0  0.13682  0.84951  0.85278  1.0000
  H   H478      1.0  0.01364  0.56078  0.87443  1.0000
  Fe  Fe43      1.0  0.45615  0.85419  0.76738  1.0000
  S   S86       1.0  0.38006  0.85176  0.77501  1.0000
  H   H479      1.0  0.11019  0.93604  0.91596  1.0000
  C   C278      1.0  0.12225  0.62797  0.92529  1.0000
  H   H480      1.0  0.32640  0.72025  0.92589  1.0000
  H   H481      1.0  0.42455  0.95197  0.76856  1.0000
  S   S87       1.0  0.44471  0.62235  0.65097  1.0000
  Fe  Fe44      1.0  0.11159  0.77326  0.84644  1.0000
  S   S88       1.0  0.13784  0.73095  0.82927  1.0000
  S   S89       1.0  0.06578  0.80763  0.82951  1.0000
  Fe  Fe45      1.0  0.16844  0.76014  0.88569  1.0000
  S   S90       1.0  0.19813  0.71748  0.87137  1.0000
  S   S91       1.0  0.18315  0.77790  0.91885  1.0000
  Fe  Fe46      1.0  0.20660  0.74586  0.84168  1.0000
  S   S92       1.0  0.27653  0.74480  0.82543  1.0000
  Fe  Fe47      1.0  0.12667  0.70628  0.86046  1.0000
  S   S93       1.0  0.09977  0.65817  0.87019  1.0000
  S   S94       1.0  0.18083  0.78914  0.85690  1.0000
  S   S95       1.0  0.09659  0.74801  0.87669  1.0000
  C   C279      1.0  0.23108  0.76392  0.93264  1.0000
  C   C280      1.0  0.15006  0.87260  0.85697  1.0000
  C   C281      1.0  0.30082  0.73390  0.93396  1.0000
  C   C282      1.0  0.26447  0.74642  0.92237  1.0000
  H   H482      1.0  0.09276  0.64389  0.92468  1.0000
  H   H483      1.0  0.26222  0.74240  0.90550  1.0000
  H   H484      1.0  0.32386  0.97158  0.73716  1.0000
  C   C283      1.0  0.05014  0.60409  0.87244  1.0000
  C   C284      1.0  0.05763  0.63149  0.86096  1.0000
  C   C285      1.0  0.27726  0.51092  0.65017  1.0000
  H   H485      1.0  0.06983  0.59971  0.88654  1.0000
  H   H486      1.0  0.04958  0.93457  0.91763  1.0000
  H   H487      1.0  0.40124  0.88516  0.68294  1.0000
  H   H488      1.0  0.33883  0.79846  0.93833  1.0000
  S   S96       1.0  0.48546  0.55631  0.68523  1.0000
  H   H489      1.0  0.19386  0.65505  0.89065  1.0000
  C   C286      1.0  0.35209  0.82328  0.79068  1.0000
  C   C287      1.0  0.37608  0.80042  0.80158  1.0000
  C   C288      1.0  0.35242  0.77719  0.81271  1.0000
  C   C289      1.0  0.30457  0.77672  0.81341  1.0000
  C   C290      1.0  0.28061  0.80020  0.80313  1.0000
  C   C291      1.0  0.30424  0.82321  0.79177  1.0000
  H   H490      1.0  0.41287  0.80056  0.80140  1.0000
  H   H491      1.0  0.37126  0.75940  0.82085  1.0000
  H   H492      1.0  0.24380  0.80011  0.80341  1.0000
  H   H493      1.0  0.28521  0.84083  0.78355  1.0000
  H   H494      1.0  0.15038  0.88597  0.84198  1.0000
  C   C292      1.0  0.21910  0.64346  0.90086  1.0000
  S   S97       1.0  0.49741  0.70326  0.65370  1.0000
  C   C293      1.0  0.32686  0.58004  0.64905  1.0000
  C   C294      1.0  0.08923  0.82634  0.91334  1.0000
  N   N21       1.0  0.36313  0.52503  0.64978  1.0000
  H   H495      1.0  0.34504  0.55223  0.62213  1.0000
  H   H496      1.0  0.26542  0.93189  0.71618  1.0000
  H   H497      1.0  0.08387  0.88847  0.86637  1.0000
  H   H498      1.0  0.36906  0.50684  0.70394  1.0000
  C   C295      1.0  0.17082  0.87467  0.92861  1.0000
  H   H499      1.0  0.50008  0.73215  0.79369  1.0000
  H   H500      1.0  0.25775  0.89373  0.72602  1.0000
  H   H501      1.0  0.09803  0.68885  0.94480  1.0000
  S   S98       1.0  0.49511  0.89907  0.76653  1.0000
  H   H502      1.0  0.17863  0.70991  0.91697  1.0000
  H   H503      1.0  0.07615  0.88324  0.92351  1.0000
  N   N22       1.0  0.36216  0.93271  0.72432  1.0000
  H   H504      1.0  0.25702  0.48936  0.65104  1.0000
  H   H505      1.0  0.03408  0.86766  0.81745  1.0000
  H   H506      1.0  0.07512  0.93750  0.89222  1.0000
  H   H507      1.0  0.35102  0.92813  0.69043  1.0000
  C   C296      1.0  0.11886  0.88918  0.87312  1.0000
  H   H508      1.0  0.40174  0.48798  0.68417  1.0000
  H   H509      1.0  0.33793  0.88841  0.73568  1.0000
  H   H510      1.0  0.04680  0.88465  0.89935  1.0000
  S   S99       1.0  0.49235  0.56987  0.62089  1.0000
  H   H511      1.0  0.19226  0.87403  0.89659  1.0000
  H   H512      1.0  0.36405  0.87292  0.70366  1.0000
  H   H513      1.0  0.10611  0.83090  0.92864  1.0000
  H   H514      1.0  0.31264  0.92029  0.74827  1.0000
  H   H515      1.0  0.14222  0.68049  0.90832  1.0000
  H   H516      1.0  0.32476  0.50117  0.62570  1.0000
  C   C297      1.0  0.39179  0.88922  0.69976  1.0000
  H   H517      1.0  0.27487  0.52092  0.66622  1.0000
  H   H518      1.0  0.14692  0.83053  0.89234  1.0000
  H   H519      1.0  0.12915  0.91384  0.87288  1.0000
  H   H520      1.0  0.36544  0.76980  0.72503  1.0000
  H   H521      1.0  0.21611  0.70635  0.95130  1.0000
  H   H522      1.0  0.48708  0.78384  0.70761  1.0000
  C   C298      1.0  0.15689  0.69075  0.92283  1.0000
  N   N23       1.0  0.40933  0.73353  0.75745  1.0000
  C   C299      1.0  0.43479  0.72795  0.77783  1.0000
  C   C300      1.0  0.35949  0.72782  0.76179  1.0000
  C   C301      1.0  0.41677  0.76673  0.75091  1.0000
  C   C302      1.0  0.42823  0.71174  0.74098  1.0000
  H   H523      1.0  0.46654  0.51875  0.72141  1.0000
  C   C303      1.0  0.34696  0.69574  0.77047  1.0000
  C   C304      1.0  0.37780  0.78292  0.73884  1.0000
  C   C305      1.0  0.40440  0.71155  0.71935  1.0000
  H   H524      1.0  0.25018  0.64456  0.93101  1.0000
  H   H525      1.0  0.43298  0.70331  0.78257  1.0000
  H   H526      1.0  0.33858  0.73118  0.74739  1.0000
  H   H527      1.0  0.34639  0.74500  0.77346  1.0000
  H   H528      1.0  0.44245  0.84884  0.94799  1.0000
  H   H529      1.0  0.03721  0.65725  0.83353  1.0000
  H   H530      1.0  0.46450  0.71705  0.73756  1.0000
  H   H531      1.0  0.42821  0.68766  0.74697  1.0000
  C   C306      1.0  0.40183  0.93019  0.73922  1.0000
  H   H532      1.0  0.44837  0.76905  0.74131  1.0000
  H   H533      1.0  0.26092  0.52669  0.63861  1.0000
  H   H534      1.0  0.35919  0.67685  0.76011  1.0000
  H   H535      1.0  0.35927  0.69247  0.78691  1.0000
  H   H536      1.0  0.30928  0.69390  0.77130  1.0000
  H   H537      1.0  0.18575  0.87061  0.86232  1.0000
  H   H538      1.0  0.38989  0.80556  0.73298  1.0000
  H   H539      1.0  0.34869  0.78784  0.74959  1.0000
  H   H540      1.0  0.36822  0.70463  0.72052  1.0000
  H   H541      1.0  0.42153  0.69435  0.70895  1.0000
  H   H542      1.0  0.40773  0.73398  0.71123  1.0000
  H   H543      1.0  0.33432  0.54189  0.67954  1.0000
  C   C307      1.0  0.07932  0.89145  0.90698  1.0000
  H   H544      1.0  0.09338  0.83519  0.88048  1.0000
  C   C308      1.0  0.36919  0.50024  0.68693  1.0000
  C   C309      1.0  0.07938  0.92694  0.90808  1.0000
  H   H545      1.0  0.43683  0.52602  0.64895  1.0000
  C   C310      1.0  0.49023  0.74712  0.68458  1.0000
  C   C311      1.0  0.35779  0.55561  0.63857  1.0000
  C   C312      1.0  0.11338  0.84209  0.89452  1.0000
  C   C313      1.0  0.15901  0.63918  0.94097  1.0000
  H   H546      1.0  0.38408  0.92128  0.77251  1.0000
  C   C314      1.0  0.01804  0.58193  0.86566  1.0000
  S   S100      1.0  0.47511  0.84190  0.73394  1.0000
  C   C315      1.0  0.28262  0.90937  0.71828  1.0000
  H   H547      1.0  0.10898  0.60536  0.93069  1.0000
  C   C316      1.0  0.03153  0.83481  0.84299  1.0000
  H   H548      1.0  0.18170  0.85015  0.92936  1.0000
  H   H549      1.0  0.20946  0.61906  0.90337  1.0000
  H   H550      1.0  0.25159  0.64316  0.89182  1.0000
  C   C317      1.0  0.02141  0.86308  0.83324  1.0000
  H   H551      1.0  0.29083  0.89921  0.70262  1.0000
  C   C318      1.0  0.36478  0.52971  0.67345  1.0000
  H   H552      1.0  0.24689  0.68125  0.91872  1.0000
  H   H553      1.0  0.13515  0.62463  0.90902  1.0000
  C   C319      1.0  0.35798  0.81635  0.94719  1.0000
  N   N24       1.0  0.11890  0.87673  0.89547  1.0000
  H   H554      1.0  0.42254  0.78168  0.76498  1.0000
  H   H555      1.0  0.41899  0.74123  0.79102  1.0000
  H   H556      1.0  0.46481  0.75729  0.67438  1.0000
  H   H557      1.0  0.36619  0.95865  0.76383  1.0000
  C   C320      1.0  0.22694  0.66000  0.92211  1.0000
  H   H558      1.0  0.34293  0.58964  0.66351  1.0000
  H   H559      1.0  0.29251  0.57135  0.65281  1.0000
  H   H560      1.0  0.47246  0.81380  0.95027  1.0000
  H   H561      1.0  0.17143  0.90991  0.90421  1.0000
  C   C321      1.0  0.11737  0.70576  0.93525  1.0000
  C   C322      1.0  0.48124  0.50391  0.70943  1.0000
  H   H562      1.0  0.08994  0.80102  0.91086  1.0000
  C   C323      1.0  0.16376  0.88490  0.90549  1.0000
  H   H563      1.0  0.41297  0.90579  0.74055  1.0000
  C   C324      1.0  0.39320  0.94110  0.76223  1.0000
  C   C325      1.0  0.37765  0.92320  0.70246  1.0000
  C   C326      1.0  0.32492  0.91208  0.73253  1.0000
  H   H564      1.0  0.43247  0.94204  0.73290  1.0000
  H   H565      1.0  0.42237  0.88379  0.70918  1.0000
  H   H566      1.0  0.14057  0.87811  0.93875  1.0000
  C   C327      1.0  0.48594  0.73601  0.77762  1.0000
  H   H567      1.0  0.18279  0.61957  0.94361  1.0000
  H   H568      1.0  0.13019  0.72438  0.94574  1.0000
  H   H569      1.0  0.39351  0.54520  0.67761  1.0000
  C   C328      1.0  0.32622  0.50297  0.64326  1.0000
  H   H570      1.0  0.05278  0.83295  0.91424  1.0000
  H   H571      1.0  0.39138  0.56716  0.63674  1.0000
  N   N25       1.0  0.18517  0.66785  0.93502  1.0000
  C   C329      1.0  0.03195  0.63648  0.84264  1.0000
  C   C330      1.0  0.49362  0.51636  0.68968  1.0000
  H   H572      1.0  0.40765  0.93702  0.69742  1.0000
  H   H573      1.0  0.32041  0.96780  0.70954  1.0000
  H   H574      1.0  0.09352  0.71674  0.92390  1.0000
  H   H575      1.0  0.37667  0.83026  0.93533  1.0000
  Fe  Fe48      1.0  0.49657  0.58455  0.65509  1.0000
  H   H576      1.0  0.49222  0.76050  0.77376  1.0000
  C   C331      1.0  0.34451  0.96532  0.72301  1.0000
  H   H577      1.0  0.02097  0.80687  0.87064  1.0000
  H   H578      1.0  0.32260  0.59965  0.63792  1.0000
  H   H579      1.0  0.19755  0.88923  0.93593  1.0000
  C   C332      1.0  0.40832  0.51141  0.64312  1.0000
  C   C333      1.0  0.01432  0.82886  0.86321  1.0000
  H   H580      1.0  0.41377  0.48832  0.65025  1.0000
  H   H581      1.0  0.34023  0.48433  0.68448  1.0000
  H   H582      1.0  0.49297  0.85188  0.68403  1.0000
  H   H583      1.0  0.49608  0.81303  0.67445  1.0000
  C   C334      1.0  0.41551  0.50695  0.61905  1.0000
  H   H584      1.0  0.88468  0.35229  0.99282  1.0000
  C   C335      1.0  0.50970  0.07161  0.02426  1.0000
  H   H585      1.0  0.60443  0.00169  0.96717  1.0000
  Fe  Fe49      1.0  0.58866  0.44763  0.03842  1.0000
  H   H586      1.0  0.89818  0.30072  0.19592  1.0000
  Fe  Fe50      1.0  0.67466  0.46203  0.01258  1.0000
  Fe  Fe51      1.0  0.61313  0.00993  0.03721  1.0000
  S   S101      1.0  0.59471  0.06079  0.04272  1.0000
  H   H587      1.0  0.78255  0.38753  0.03869  1.0000
  S   S102      1.0  0.72077  0.44876  0.08963  1.0000
  H   H588      1.0  0.76137  0.99390  0.25051  1.0000
  S   S103      1.0  0.65825  0.42663  0.03746  1.0000
  C   C336      1.0  0.91542  0.43533  0.15422  1.0000
  C   C337      1.0  0.87366  0.38759  0.02737  1.0000
  H   H589      1.0  0.63973  0.04200  0.00263  1.0000
  S   S104      1.0  0.94842  0.10957  0.24117  1.0000
  H   H590      1.0  0.95237  0.26697  0.25819  1.0000
  H   H591      1.0  0.82949  0.01252  0.26270  1.0000
  S   S105      1.0  0.94604  0.35242  0.14833  1.0000
  C   C338      1.0  0.85651  0.44043  0.01654  1.0000
  S   S106      1.0  0.95851  0.26269  0.15192  1.0000
  Fe  Fe52      1.0  0.96607  0.36766  0.11570  1.0000
  S   S107      1.0  0.92475  0.39652  0.09202  1.0000
  C   C339      1.0  0.99839  0.45173  0.21438  1.0000
  H   H592      1.0  0.98330  0.14276  0.13622  1.0000
  H   H593      1.0  0.50141  0.33653  0.12886  1.0000
  H   H594      1.0  0.90979  0.41845  0.14114  1.0000
  N   N26       1.0  0.90165  0.46732  0.14734  1.0000
  H   H595      1.0  0.64462  0.11073  0.98644  1.0000
  H   H596      1.0  0.57700  0.13958  0.98520  1.0000
  C   C340      1.0  0.94390  0.22159  0.18434  1.0000
  H   H597      1.0  0.89246  0.44828  0.01733  1.0000
  C   C341      1.0  0.77614  0.00640  0.95359  1.0000
  C   C342      1.0  0.54537  0.08313  0.03657  1.0000
  C   C343      1.0  0.83526  0.99511  0.24997  1.0000
  C   C344      1.0  0.54232  0.11360  0.04410  1.0000
  C   C345      1.0  0.93009  0.31307  0.19996  1.0000
  H   H598      1.0  0.56974  0.12292  0.05353  1.0000
  C   C346      1.0  0.95311  0.12050  0.18215  1.0000
  C   C347      1.0  0.54248  0.36805  0.05318  1.0000
  H   H599      1.0  0.96794  0.36288  0.22548  1.0000
  H   H600      1.0  0.57298  0.37902  0.05906  1.0000
  H   H601      1.0  0.96164  0.27466  0.21557  1.0000
  C   C348      1.0  0.77683  0.43301  0.08948  1.0000
  C   C349      1.0  0.78930  0.41110  0.10486  1.0000
  C   C350      1.0  0.83423  0.39947  0.10593  1.0000
  C   C351      1.0  0.86754  0.41022  0.09191  1.0000
  C   C352      1.0  0.85535  0.43276  0.07698  1.0000
  C   C353      1.0  0.81027  0.44380  0.07556  1.0000
  H   H602      1.0  0.76389  0.40287  0.11590  1.0000
  H   H603      1.0  0.84297  0.38219  0.11755  1.0000
  H   H604      1.0  0.88116  0.44181  0.06648  1.0000
  C   C354      1.0  0.57535  0.11677  0.97722  1.0000
  H   H605      1.0  0.51133  0.04827  0.01832  1.0000
  H   H606      1.0  0.94036  0.13243  0.16795  1.0000
  H   H607      1.0  0.56433  0.04487  0.98831  1.0000
  H   H608      1.0  0.83983  0.44440  0.13710  1.0000
  C   C355      1.0  0.89103  0.42271  0.17410  1.0000
  Fe  Fe53      1.0  0.67865  0.46335  0.06067  1.0000
  H   H609      1.0  0.85422  0.36553  0.96990  1.0000
  H   H610      1.0  0.54581  0.00710  0.96182  1.0000
  H   H611      1.0  0.93644  0.41381  0.03399  1.0000
  H   H612      1.0  0.99486  0.45396  0.13292  1.0000
  H   H613      1.0  0.76899  0.42597  0.02951  1.0000
  H   H614      1.0  0.91092  0.21812  0.17715  1.0000
  H   H615      1.0  0.86494  0.36285  0.02534  1.0000
  S   S108      1.0  0.71167  0.44242  0.98395  1.0000
  H   H616      1.0  0.78256  0.00360  0.22536  1.0000
  C   C356      1.0  0.61367  0.09602  0.98589  1.0000
  H   H617      1.0  0.60510  0.09115  0.00271  1.0000
  C   C357      1.0  0.65565  0.04787  0.98713  1.0000
  N   N27       1.0  0.85413  0.40711  0.00984  1.0000
  C   C358      1.0  0.91419  0.01240  0.24986  1.0000
  H   H618      1.0  0.83187  0.46973  0.15877  1.0000
  H   H619      1.0  0.92157  0.33774  0.20218  1.0000
  C   C359      1.0  0.86418  0.03173  0.22237  1.0000
  H   H620      1.0  0.84283  0.44348  0.03279  1.0000
  H   H621      1.0  0.55725  0.32422  0.06773  1.0000
  C   C360      1.0  0.73970  0.46438  0.96434  1.0000
  H   H622      1.0  0.93013  0.19100  0.21062  1.0000
  C   C361      1.0  0.70142  0.06365  0.99204  1.0000
  H   H623      1.0  0.95233  0.43417  0.15782  1.0000
  H   H624      1.0  0.90460  0.03076  0.26132  1.0000
  H   H625      1.0  0.89529  0.03903  0.21352  1.0000
  H   H626      1.0  0.96781  0.17606  0.15196  1.0000
  H   H627      1.0  0.87347  0.99011  0.18930  1.0000
  N   N28       1.0  0.87455  0.00391  0.23584  1.0000
  H   H628      1.0  0.73855  0.39348  0.01979  1.0000
  H   H629      1.0  0.66361  0.02524  0.97999  1.0000
  C   C362      1.0  0.95111  0.29845  0.21992  1.0000
  C   C363      1.0  0.88350  0.37031  0.98050  1.0000
  H   H630      1.0  0.90014  0.43592  0.18852  1.0000
  N   N29       1.0  0.62293  0.06644  0.97392  1.0000
  H   H631      1.0  0.85796  0.39374  0.04285  1.0000
  H   H632      1.0  0.92249  0.29552  0.23131  1.0000
  C   C364      1.0  0.95481  0.20605  0.20325  1.0000
  H   H633      1.0  0.80441  0.37238  0.00167  1.0000
  Fe  Fe54      1.0  0.99984  0.14560  0.24980  1.0000
  C   C365      1.0  0.88053  0.40337  0.98951  1.0000
  H   H634      1.0  0.74013  0.99746  0.98289  1.0000
  S   S109      1.0  0.51939  0.42465  0.03606  1.0000
  C   C366      1.0  0.80582  0.39724  0.00596  1.0000
  H   H635      1.0  0.99536  0.27392  0.27736  1.0000
  H   H636      1.0  0.54034  0.05821  0.08501  1.0000
  C   C367      1.0  0.57973  0.01816  0.96041  1.0000
  H   H637      1.0  0.51773  0.01757  0.05731  1.0000
  H   H638      1.0  0.84213  0.46314  0.98566  1.0000
  H   H639      1.0  0.83885  0.02665  0.20991  1.0000
  H   H640      1.0  0.79144  0.40935  0.99200  1.0000
  C   C368      1.0  0.92692  0.47407  0.12703  1.0000
  H   H641      1.0  0.71838  0.07252  0.97762  1.0000
  Fe  Fe55      1.0  0.94637  0.09607  0.27566  1.0000
  H   H642      1.0  0.54126  0.10725  0.98107  1.0000
  H   H643      1.0  0.94466  0.38062  0.01681  1.0000
  H   H644      1.0  0.93713  0.34265  0.24515  1.0000
  H   H645      1.0  0.79795  0.02377  0.96045  1.0000
  H   H646      1.0  0.93517  0.37581  0.04453  1.0000
  C   C369      1.0  0.53348  0.33701  0.05808  1.0000
  H   H647      1.0  0.81234  0.05523  0.24210  1.0000
  H   H648      1.0  0.79391  0.46078  0.00344  1.0000
  C   C370      1.0  0.83120  0.46382  0.00244  1.0000
  C   C371      1.0  0.78932  0.98870  0.23915  1.0000
  C   C372      1.0  0.92551  0.38991  0.03055  1.0000
  C   C373      1.0  0.84543  0.06007  0.23432  1.0000
  H   H649      1.0  0.92942  0.12627  0.19531  1.0000
  C   C374      1.0  0.85082  0.46705  0.14358  1.0000
  N   N30       1.0  0.99007  0.31577  0.23000  1.0000
  H   H650      1.0  0.83957  0.07900  0.22283  1.0000
  H   H651      1.0  0.86478  0.41724  0.97667  1.0000
  H   H652      1.0  0.95109  0.09517  0.17983  1.0000
  S   S110      1.0  0.68511  0.99396  0.03013  1.0000
  C   C375      1.0  0.51149  0.38497  0.04111  1.0000
  H   H653      1.0  0.91546  0.41310  0.99073  1.0000
  H   H654      1.0  0.50243  0.03967  0.10334  1.0000
  H   H655      1.0  0.55266  0.06299  0.96365  1.0000
  C   C376      1.0  0.77276  0.40152  0.02475  1.0000
  H   H656      1.0  0.95290  0.31026  0.18608  1.0000
  H   H657      1.0  0.69711  0.08246  0.00380  1.0000
  C   C377      1.0  0.97468  0.24236  0.17505  1.0000
  Fe  Fe56      1.0  0.98741  0.30951  0.14230  1.0000
  H   H658      1.0  0.72473  0.04663  0.99941  1.0000
  H   H659      1.0  0.99241  0.01295  0.17079  1.0000
  H   H660      1.0  0.86956  0.06902  0.24621  1.0000
  C   C378      1.0  0.50392  0.13219  0.03976  1.0000
  C   C379      1.0  0.52287  0.03618  0.08877  1.0000
  H   H661      1.0  0.90267  0.39875  0.17695  1.0000
  C   C380      1.0  0.97913  0.47633  0.12883  1.0000
  H   H662      1.0  0.85359  0.42180  0.17222  1.0000
  C   C381      1.0  0.57858  0.04919  0.97221  1.0000
  H   H663      1.0  0.80154  0.46139  0.06417  1.0000
  H   H664      1.0  0.57853  0.12075  0.95995  1.0000
  C   C382      1.0  0.97198  0.34592  0.23855  1.0000
  H   H665      1.0  0.98244  0.43718  0.22613  1.0000
  H   H666      1.0  0.94251  0.02224  0.24027  1.0000
  C   C383      1.0  0.97606  0.28482  0.26425  1.0000
  H   H667      1.0  0.54998  0.01898  0.09195  1.0000
  C   C384      1.0  0.99697  0.21084  0.21294  1.0000
  H   H668      1.0  0.91914  0.45616  0.11494  1.0000
  H   H669      1.0  0.98276  0.35853  0.27191  1.0000
  H   H670      1.0  0.95647  0.30436  0.27095  1.0000
  C   C385      1.0  0.74323  0.99173  0.96630  1.0000
  H   H671      1.0  0.66440  0.09483  0.95347  1.0000
  S   S111      1.0  0.99276  0.13550  0.28471  1.0000
  H   H672      1.0  0.91560  0.36772  0.97133  1.0000
  H   H673      1.0  0.50204  0.15545  0.04588  1.0000
  H   H674      1.0  0.96374  0.99517  0.27244  1.0000
  C   C386      1.0  0.64165  0.07439  0.95231  1.0000
  C   C387      1.0  0.93470  0.98597  0.26318  1.0000
  C   C388      1.0  0.99966  0.36176  0.25632  1.0000
  H   H675      1.0  0.99971  0.38704  0.25347  1.0000
  S   S112      1.0  0.60343  0.48006  0.01161  1.0000
  C   C389      1.0  0.99610  0.16407  0.14364  1.0000
  H   H676      1.0  0.99897  0.15344  0.19559  1.0000
  C   C390      1.0  0.99955  0.99744  0.18375  1.0000
  H   H677      1.0  0.99853  0.09928  0.15088  1.0000
  S   S113      1.0  0.58105  0.98620  0.37768  1.0000
  H   H678      1.0  0.60062  0.02801  0.60007  1.0000
  S   S114      1.0  0.60989  0.09554  0.60032  1.0000
  C   C391      1.0  0.63560  0.04214  0.52576  1.0000
  S   S115      1.0  0.67966  0.44901  0.36989  1.0000
  H   H679      1.0  0.58151  0.19027  0.39138  1.0000
  Fe  Fe57      1.0  0.61127  0.01919  0.35430  1.0000
  S   S116      1.0  0.90761  0.46724  0.50768  1.0000
  C   C392      1.0  0.73764  0.01002  0.43304  1.0000
  Fe  Fe58      1.0  0.60677  0.44017  0.36030  1.0000
  S   S117      1.0  0.57355  0.39629  0.37392  1.0000
  H   H680      1.0  0.60296  0.19312  0.32698  1.0000
  H   H681      1.0  0.78880  0.31751  0.51993  1.0000
  H   H682      1.0  0.97575  0.35168  0.57281  1.0000
  S   S118      1.0  0.68160  0.01670  0.36839  1.0000
  C   C393      1.0  0.89353  0.37793  0.50194  1.0000
  S   S119      1.0  0.84868  0.02300  0.53644  1.0000
  H   H683      1.0  0.54754  0.16789  0.34783  1.0000
  Fe  Fe59      1.0  0.90202  0.44838  0.54069  1.0000
  H   H684      1.0  0.87560  0.99135  0.37713  1.0000
  S   S120      1.0  0.94324  0.40884  0.55558  1.0000
  Fe  Fe60      1.0  0.91319  0.99942  0.54649  1.0000
  H   H685      1.0  0.77724  0.01334  0.38622  1.0000
  H   H686      1.0  0.95091  0.11905  0.51418  1.0000
  S   S121      1.0  0.80116  0.43863  0.47816  1.0000
  H   H687      1.0  0.52049  0.34999  0.39510  1.0000
  S   S122      1.0  0.82618  0.44168  0.53879  1.0000
  C   C394      1.0  0.81475  0.01522  0.38693  1.0000
  C   C395      1.0  0.53694  0.08414  0.35360  1.0000
  H   H688      1.0  0.87648  0.07794  0.49536  1.0000
  C   C396      1.0  0.95178  0.08109  0.55894  1.0000
  H   H689      1.0  0.93115  0.12861  0.56178  1.0000
  H   H690      1.0  0.91817  0.07212  0.56223  1.0000
  H   H691      1.0  0.92551  0.38315  0.49326  1.0000
  C   C397      1.0  0.86809  0.30090  0.53035  1.0000
  H   H692      1.0  0.67568  0.39321  0.43167  1.0000
  H   H693      1.0  0.64346  0.25602  0.33684  1.0000
  H   H694      1.0  0.77271  0.37032  0.53173  1.0000
  H   H695      1.0  0.63055  0.41505  0.47023  1.0000
  H   H696      1.0  0.96651  0.07249  0.45429  1.0000
  H   H697      1.0  0.57272  0.26414  0.35915  1.0000
  H   H698      1.0  0.64179  0.23442  0.31231  1.0000
  H   H699      1.0  0.54595  0.06266  0.38398  1.0000
  C   C398      1.0  0.53673  0.36692  0.36389  1.0000
  H   H700      1.0  0.89553  0.99520  0.41219  1.0000
  S   S123      1.0  0.74452  0.98665  0.57160  1.0000
  H   H701      1.0  0.50629  0.99843  0.28997  1.0000
  H   H702      1.0  0.82438  0.36065  0.57435  1.0000
  C   C399      1.0  0.79422  0.00665  0.31880  1.0000
  C   C400      1.0  0.83983  0.00243  0.31244  1.0000
  H   H703      1.0  0.89613  0.33035  0.49497  1.0000
  C   C401      1.0  0.84618  0.05643  0.30203  1.0000
  C   C402      1.0  0.52942  0.36240  0.34222  1.0000
  C   C403      1.0  0.77499  0.03601  0.31694  1.0000
  C   C404      1.0  0.64626  0.39393  0.42073  1.0000
  C   C405      1.0  0.98805  0.06083  0.55561  1.0000
  H   H704      1.0  0.74002  0.03974  0.32172  1.0000
  H   H705      1.0  0.84364  0.32191  0.57111  1.0000
  H   H706      1.0  0.89126  0.39489  0.51498  1.0000
  C   C406      1.0  0.75486  0.44658  0.44100  1.0000
  Fe  Fe61      1.0  0.83146  0.46318  0.50656  1.0000
  H   H707      1.0  0.65053  0.41281  0.40913  1.0000
  H   H708      1.0  0.76788  0.04074  0.50740  1.0000
  H   H709      1.0  0.59481  0.02175  0.55139  1.0000
  H   H710      1.0  0.76561  0.42335  0.43730  1.0000
  H   H711      1.0  0.72551  0.02425  0.42019  1.0000
  C   C407      1.0  0.62168  0.24173  0.32637  1.0000
  C   C408      1.0  0.64605  0.06481  0.59187  1.0000
  C   C409      1.0  0.63373  0.03383  0.59380  1.0000
  C   C410      1.0  0.66429  0.01035  0.58753  1.0000
  C   C411      1.0  0.70735  0.01743  0.57897  1.0000
  C   C412      1.0  0.71930  0.04840  0.57660  1.0000
  C   C413      1.0  0.68885  0.07187  0.58303  1.0000
  C   C414      1.0  0.89040  0.09432  0.50705  1.0000
  C   C415      1.0  0.91295  0.10651  0.45242  1.0000
  H   H712      1.0  0.75225  0.05431  0.57012  1.0000
  H   H713      1.0  0.69878  0.09574  0.58140  1.0000
  C   C416      1.0  0.58665  0.45093  0.42585  1.0000
  C   C417      1.0  0.62075  0.01131  0.49305  1.0000
  H   H714      1.0  0.57215  0.05706  0.54058  1.0000
  C   C418      1.0  0.69743  0.02917  0.50125  1.0000
  H   H715      1.0  0.61430  0.16924  0.37165  1.0000
  H   H716      1.0  0.74704  0.01158  0.52466  1.0000
  H   H717      1.0  0.86976  0.47086  0.42456  1.0000
  H   H718      1.0  0.88637  0.11776  0.46225  1.0000
  H   H719      1.0  0.65448  0.98649  0.58931  1.0000
  N   N31       1.0  0.65353  0.01781  0.51086  1.0000
  C   C419      1.0  0.57967  0.17436  0.37769  1.0000
  Fe  Fe62      1.0  0.81191  0.98442  0.55302  1.0000
  H   H720      1.0  0.92928  0.34077  0.51726  1.0000
  H   H721      1.0  0.50842  0.98531  0.34248  1.0000
  H   H722      1.0  0.56578  0.15227  0.38379  1.0000
  C   C420      1.0  0.80070  0.06059  0.30851  1.0000
  C   C421      1.0  0.51528  0.34680  0.37830  1.0000
  C   C422      1.0  0.87307  0.27799  0.51177  1.0000
  H   H723      1.0  0.63744  0.99717  0.48047  1.0000
  H   H724      1.0  0.54565  0.37750  0.33089  1.0000
  N   N32       1.0  0.96493  0.09591  0.48453  1.0000
  S   S124      1.0  0.62414  0.98251  0.32984  1.0000
  H   H725      1.0  0.59167  0.99695  0.49848  1.0000
  H   H726      1.0  0.82408  0.03513  0.37677  1.0000
  C   C423      1.0  0.79123  0.00106  0.46194  1.0000
  H   H727      1.0  0.89762  0.08187  0.52199  1.0000
  C   C424      1.0  0.76822  0.46014  0.46019  1.0000
  C   C425      1.0  0.55905  0.48050  0.43094  1.0000
  H   H728      1.0  0.59418  0.25648  0.32009  1.0000
  H   H729      1.0  0.80559  0.38647  0.51054  1.0000
  H   H730      1.0  0.52484  0.25087  0.33119  1.0000
  N   N33       1.0  0.56031  0.21672  0.35025  1.0000
  H   H731      1.0  0.60011  0.37726  0.44469  1.0000
  C   C426      1.0  0.78565  0.36620  0.51547  1.0000
  H   H732      1.0  0.54963  0.40504  0.46756  1.0000
  H   H733      1.0  0.79274  0.04060  0.44132  1.0000
  H   H734      1.0  0.56574  0.02228  0.52634  1.0000
  H   H735      1.0  0.93460  0.12412  0.44469  1.0000
  S   S125      1.0  0.57844  0.06195  0.34033  1.0000
  C   C427      1.0  0.89549  0.34436  0.50970  1.0000
  H   H736      1.0  0.87270  0.25412  0.51810  1.0000
  H   H737      1.0  0.89493  0.35246  0.55103  1.0000
  C   C428      1.0  0.83954  0.47515  0.37436  1.0000
  C   C429      1.0  0.51274  0.10654  0.34221  1.0000
  H   H738      1.0  0.82550  0.02094  0.40325  1.0000
  H   H739      1.0  0.91766  0.06411  0.46926  1.0000
  H   H740      1.0  0.51884  0.22517  0.39161  1.0000
  H   H741      1.0  0.86230  0.11087  0.51016  1.0000
  H   H742      1.0  0.65978  0.04585  0.53903  1.0000
  C   C430      1.0  0.73759  0.03331  0.51662  1.0000
  H   H743      1.0  0.63222  0.20640  0.34918  1.0000
  H   H744      1.0  0.79400  0.33521  0.55698  1.0000
  C   C431      1.0  0.93279  0.11217  0.49950  1.0000
  C   C432      1.0  0.54789  0.18624  0.36009  1.0000
  H   H745      1.0  0.71676  0.45205  0.41212  1.0000
  H   H746      1.0  0.57414  0.38987  0.42083  1.0000
  C   C433      1.0  0.60048  0.39609  0.43271  1.0000
  C   C434      1.0  0.81220  0.33552  0.51367  1.0000
  C   C435      1.0  0.83860  0.98616  0.37822  1.0000
  C   C436      1.0  0.56674  0.24135  0.36679  1.0000
  H   H747      1.0  0.57867  0.05351  0.49245  1.0000
  N   N34       1.0  0.58958  0.42676  0.44294  1.0000
  H   H748      1.0  0.82416  0.42661  0.37894  1.0000
  H   H749      1.0  0.66054  0.43510  0.45014  1.0000
  H   H750      1.0  0.84071  0.29143  0.54066  1.0000
  H   H751      1.0  0.62135  0.45818  0.42086  1.0000
  H   H752      1.0  0.73098  0.05147  0.52858  1.0000
  C   C437      1.0  0.86581  0.02720  0.30434  1.0000
  C   C438      1.0  0.99033  0.35377  0.55714  1.0000
  Fe  Fe63      1.0  0.85161  0.99066  0.50857  1.0000
  C   C439      1.0  0.94121  0.08317  0.46526  1.0000
  H   H753      1.0  0.90005  0.29946  0.53984  1.0000
  H   H754      1.0  0.78511  0.08306  0.30694  1.0000
  C   C440      1.0  0.77551  0.01930  0.44510  1.0000
  H   H755      1.0  0.98785  0.02422  0.50843  1.0000
  H   H756      1.0  0.54596  0.21038  0.30446  1.0000
  C   C441      1.0  0.62384  0.46447  0.47060  1.0000
  H   H757      1.0  0.63375  0.06521  0.51812  1.0000
  S   S126      1.0  0.61761  0.46264  0.32829  1.0000
  H   H758      1.0  0.70910  0.01366  0.48830  1.0000
  H   H759      1.0  0.99368  0.40280  0.51531  1.0000
  C   C442      1.0  0.66060  0.98863  0.52329  1.0000
  H   H760      1.0  0.85217  0.37721  0.54164  1.0000
  C   C443      1.0  0.95924  0.11307  0.55871  1.0000
  H   H761      1.0  0.64702  0.37210  0.41152  1.0000
  C   C444      1.0  0.62726  0.43388  0.45836  1.0000
  C   C445      1.0  0.60428  0.21290  0.33823  1.0000
  H   H762      1.0  0.59779  0.23693  0.37636  1.0000
  C   C446      1.0  0.58960  0.03507  0.53658  1.0000
  H   H763      1.0  0.68093  0.99308  0.53777  1.0000
  C   C447      1.0  0.82832  0.34172  0.56260  1.0000
  N   N35       1.0  0.85803  0.33391  0.52442  1.0000
  C   C448      1.0  0.85986  0.35262  0.54452  1.0000
  S   S127      1.0  0.83947  0.01274  0.47645  1.0000
  H   H764      1.0  0.90103  0.02375  0.30001  1.0000
  H   H765      1.0  0.57080  0.44089  0.41139  1.0000
  H   H766      1.0  0.75546  0.36526  0.50496  1.0000
  H   H767      1.0  0.69238  0.05190  0.49351  1.0000
  H   H768      1.0  0.84487  0.27999  0.50024  1.0000
  C   C449      1.0  0.72725  0.46283  0.42670  1.0000
  C   C450      1.0  0.98064  0.38015  0.54495  1.0000
  C   C451      1.0  0.54556  0.42279  0.45496  1.0000
  C   C452      1.0  0.96660  0.03921  0.49819  1.0000
  H   H769      1.0  0.62800  0.05474  0.47510  1.0000
  S   S128      1.0  0.98023  0.02059  0.55659  1.0000
  H   H770      1.0  0.90630  0.28085  0.50358  1.0000
  C   C453      1.0  0.60101  0.03984  0.48181  1.0000
  H   H771      1.0  0.51267  0.18676  0.36669  1.0000
  H   H772      1.0  0.81570  0.33031  0.49647  1.0000
  C   C454      1.0  0.52204  0.22626  0.33581  1.0000
  H   H773      1.0  0.86570  0.38139  0.49038  1.0000
  C   C455      1.0  0.52759  0.07994  0.37510  1.0000
  H   H774      1.0  0.92117  0.13463  0.49294  1.0000
  H   H775      1.0  0.57966  0.03205  0.46833  1.0000
  H   H776      1.0  0.89506  0.09401  0.43954  1.0000
  C   C456      1.0  0.52650  0.24603  0.38218  1.0000
  H   H777      1.0  0.51965  0.10971  0.32551  1.0000
  S   S129      1.0  0.87625  0.08850  0.29113  1.0000
  H   H778      1.0  0.65282  0.46587  0.48183  1.0000
  H   H779      1.0  0.81258  0.44946  0.40195  1.0000
  C   C457      1.0  0.99058  0.07056  0.49572  1.0000
  H   H780      1.0  0.93297  0.04099  0.50589  1.0000
  C   C458      1.0  0.51501  0.01606  0.30203  1.0000
  C   C459      1.0  0.50151  0.33798  0.33513  1.0000
  H   H781      1.0  0.83489  0.47509  0.29430  1.0000
  H   H782      1.0  0.96333  0.02706  0.48279  1.0000
  H   H783      1.0  0.53508  0.26470  0.39352  1.0000
  C   C460      1.0  0.51667  0.20725  0.31533  1.0000
  H   H784      1.0  0.59239  0.46639  0.48019  1.0000
  H   H785      1.0  0.53989  0.00656  0.31337  1.0000
  H   H786      1.0  0.77515  0.45059  0.37929  1.0000
  S   S130      1.0  0.75390  0.47342  0.31999  1.0000
  H   H787      1.0  0.53567  0.44385  0.46371  1.0000
  C   C461      1.0  0.81102  0.44926  0.38445  1.0000
  H   H788      1.0  0.53234  0.03517  0.29355  1.0000
  H   H789      1.0  0.50580  0.38855  0.43701  1.0000
  H   H790      1.0  0.51134  0.18245  0.31860  1.0000
  Fe  Fe64      1.0  0.68818  0.47568  0.33953  1.0000
  H   H791      1.0  0.98250  0.13948  0.46961  1.0000
  C   C462      1.0  0.50413  0.41327  0.44146  1.0000
  H   H792      1.0  0.87548  0.46793  0.37564  1.0000
  C   C463      1.0  0.00024  0.38258  0.52481  1.0000
  H   H793      1.0  0.00037  0.07808  0.51186  1.0000
  C   C464      1.0  0.99948  0.11920  0.47689  1.0000
  H   H794      1.0  0.83254  0.47479  0.35699  1.0000
  H   H795      1.0  0.82739  0.98387  0.36152  1.0000
  C   C465      1.0  0.71487  0.98268  0.43802  1.0000
  H   H796      1.0  0.52557  0.47998  0.42284  1.0000
  H   H797      1.0  0.50061  0.42731  0.42692  1.0000
  S   S131      1.0  0.57848  0.36254  0.74523  1.0000
  H   H798      1.0  0.66432  0.03718  0.71928  1.0000
  Fe  Fe65      1.0  0.55470  0.37491  0.77799  1.0000
  S   S132      1.0  0.59699  0.39834  0.80405  1.0000
  H   H799      1.0  0.89932  0.34029  0.87611  1.0000
  H   H800      1.0  0.71044  0.03208  0.67829  1.0000
  S   S133      1.0  0.54576  0.11503  0.65346  1.0000
  H   H801      1.0  0.76283  0.42398  0.94760  1.0000
  H   H802      1.0  0.64111  0.99979  0.72367  1.0000
  H   H803      1.0  0.63922  0.44123  0.70098  1.0000
  S   S134      1.0  0.84737  0.44624  0.87418  1.0000
  S   S135      1.0  0.80394  0.44320  0.81390  1.0000
  Fe  Fe66      1.0  0.91173  0.01665  0.84999  1.0000
  Fe  Fe67      1.0  0.84673  0.99690  0.88558  1.0000
  S   S136      1.0  0.94308  0.06044  0.83566  1.0000
  Fe  Fe68      1.0  0.92344  0.45073  0.87058  1.0000
  C   C466      1.0  0.94746  0.15155  0.89202  1.0000
  C   C467      1.0  0.99326  0.38159  0.84839  1.0000
  C   C468      1.0  0.75002  0.34245  0.83748  1.0000
  H   H804      1.0  0.89516  0.29655  0.85477  1.0000
  S   S137      1.0  0.83548  0.01896  0.85381  1.0000
  H   H805      1.0  0.80277  0.45319  0.91937  1.0000
  H   H806      1.0  0.60352  0.07110  0.71475  1.0000
  C   C469      1.0  0.66491  0.45015  0.73341  1.0000
  H   H807      1.0  0.90923  0.29495  0.82699  1.0000
  H   H808      1.0  0.58413  0.99214  0.65612  1.0000
  H   H809      1.0  0.57302  0.44279  0.74196  1.0000
  Fe  Fe69      1.0  0.53525  0.31991  0.74847  1.0000
  C   C470      1.0  0.88430  0.37966  0.81311  1.0000
  C   C471      1.0  0.76287  0.44888  0.94801  1.0000
  S   S138      1.0  0.97002  0.41423  0.88463  1.0000
  S   S139      1.0  0.55589  0.27069  0.74015  1.0000
  C   C472      1.0  0.89653  0.31014  0.83990  1.0000
  H   H810      1.0  0.74266  0.34093  0.85466  1.0000
  H   H811      1.0  0.88402  0.38012  0.88035  1.0000
  H   H812      1.0  0.67572  0.07458  0.69398  1.0000
  C   C473      1.0  0.67892  0.48053  0.77574  1.0000
  C   C474      1.0  0.65515  0.40956  0.80661  1.0000
  C   C475      1.0  0.68801  0.40302  0.79114  1.0000
  C   C476      1.0  0.73327  0.41336  0.79371  1.0000
  C   C477      1.0  0.74635  0.43048  0.81168  1.0000
  C   C478      1.0  0.71369  0.43652  0.82730  1.0000
  C   C479      1.0  0.66849  0.42615  0.82475  1.0000
  H   H813      1.0  0.67849  0.39011  0.77718  1.0000
  H   H814      1.0  0.75826  0.40829  0.78159  1.0000
  H   H815      1.0  0.72309  0.44943  0.84128  1.0000
  H   H816      1.0  0.64350  0.43128  0.83687  1.0000
  H   H817      1.0  0.64626  0.08995  0.67205  1.0000
  H   H818      1.0  0.97987  0.10776  0.88748  1.0000
  N   N36       1.0  0.63113  0.47345  0.74187  1.0000
  H   H819      1.0  0.60880  0.43755  0.76366  1.0000
  H   H820      1.0  0.85539  0.38513  0.80255  1.0000
  H   H821      1.0  0.93448  0.16649  0.90497  1.0000
  H   H822      1.0  0.53441  0.45071  0.66686  1.0000
  H   H823      1.0  0.66248  0.05003  0.92359  1.0000
  H   H824      1.0  0.85733  0.40138  0.84119  1.0000
  N   N37       1.0  0.92038  0.09835  0.90676  1.0000
  C   C480      1.0  0.56028  0.47457  0.76702  1.0000
  C   C481      1.0  0.88626  0.11627  0.91974  1.0000
  H   H825      1.0  0.82447  0.08856  0.91414  1.0000
  C   C482      1.0  0.89889  0.08282  0.88792  1.0000
  H   H826      1.0  0.90312  0.12642  0.93391  1.0000
  H   H827      1.0  0.86169  0.35094  0.89706  1.0000
  H   H828      1.0  0.96084  0.12445  0.82767  1.0000
  C   C483      1.0  0.87232  0.10318  0.87225  1.0000
  H   H829      1.0  0.56636  0.01574  0.63474  1.0000
  H   H830      1.0  0.91400  0.05478  0.92357  1.0000
  H   H831      1.0  0.87255  0.13632  0.91102  1.0000
  H   H832      1.0  0.68175  0.00600  0.66144  1.0000
  H   H833      1.0  0.53477  0.17957  0.69476  1.0000
  H   H834      1.0  0.58975  0.02316  0.69883  1.0000
  H   H835      1.0  0.92521  0.07088  0.87839  1.0000
  H   H836      1.0  0.87614  0.06360  0.89277  1.0000
  H   H837      1.0  0.67440  0.41165  0.71169  1.0000
  C   C484      1.0  0.68287  0.03065  0.66630  1.0000
  H   H838      1.0  0.69570  0.46190  0.72698  1.0000
  H   H839      1.0  0.80566  0.37175  0.87140  1.0000
  C   C485      1.0  0.65706  0.01485  0.71152  1.0000
  H   H840      1.0  0.97584  0.39933  0.83955  1.0000
  C   C486      1.0  0.98850  0.11598  0.83731  1.0000
  Fe  Fe70      1.0  0.84420  0.46567  0.84112  1.0000
  C   C487      1.0  0.64736  0.42858  0.71575  1.0000
  H   H841      1.0  0.89497  0.11159  0.85940  1.0000
  H   H842      1.0  0.85442  0.12280  0.87963  1.0000
  H   H843      1.0  0.84507  0.08918  0.86482  1.0000
  H   H844      1.0  0.71940  0.35281  0.82998  1.0000
  H   H845      1.0  0.70362  0.07434  0.65098  1.0000
  C   C488      1.0  0.64344  0.07253  0.68492  1.0000
  H   H846      1.0  0.79390  0.36422  0.81507  1.0000
  H   H847      1.0  0.75396  0.31910  0.83060  1.0000
  H   H848      1.0  0.70759  0.46520  0.77133  1.0000
  H   H849      1.0  0.84547  0.32150  0.81645  1.0000
  C   C489      1.0  0.93955  0.07332  0.92083  1.0000
  H   H850      1.0  0.67734  0.43481  0.74628  1.0000
  H   H851      1.0  0.78185  0.38682  0.83787  1.0000
  H   H852      1.0  0.73335  0.04083  0.64197  1.0000
  H   H853      1.0  0.56791  0.04704  0.66639  1.0000
  C   C490      1.0  0.87130  0.35608  0.88041  1.0000
  C   C491      1.0  0.60140  0.04164  0.65910  1.0000
  C   C492      1.0  0.62431  0.01780  0.69257  1.0000
  H   H854      1.0  0.61022  0.10845  0.70348  1.0000
  H   H855      1.0  0.97975  0.04865  0.89622  1.0000
  C   C493      1.0  0.53109  0.20430  0.69592  1.0000
  H   H856      1.0  0.62145  0.99421  0.68586  1.0000
  C   C494      1.0  0.78548  0.46537  0.93198  1.0000
  C   C495      1.0  0.79137  0.36318  0.83261  1.0000
  C   C496      1.0  0.59424  0.45594  0.75339  1.0000
  C   C497      1.0  0.59450  0.01185  0.64614  1.0000
  H   H857      1.0  0.61728  0.41514  0.72079  1.0000
  H   H858      1.0  0.90128  0.35817  0.80779  1.0000
  S   S140      1.0  0.82165  0.01813  0.91641  1.0000
  C   C498      1.0  0.95923  0.11900  0.90009  1.0000
  C   C499      1.0  0.51924  0.46549  0.67876  1.0000
  H   H859      1.0  0.94790  0.08259  0.93682  1.0000
  H   H860      1.0  0.60759  0.06062  0.64760  1.0000
  H   H861      1.0  0.58619  0.02134  0.94325  1.0000
  H   H862      1.0  0.62499  0.00556  0.63673  1.0000
  H   H863      1.0  0.92275  0.32819  0.84144  1.0000
  H   H864      1.0  0.66384  0.02537  0.94586  1.0000
  H   H865      1.0  0.55958  0.20709  0.72739  1.0000
  N   N38       1.0  0.63805  0.04061  0.67575  1.0000
  C   C500      1.0  0.54001  0.25210  0.71625  1.0000
  H   H866      1.0  0.81175  0.33103  0.87094  1.0000
  H   H867      1.0  0.68951  0.00367  0.70681  1.0000
  H   H868      1.0  0.70704  0.05428  0.94204  1.0000
  H   H869      1.0  0.90926  0.39862  0.81104  1.0000
  H   H870      1.0  0.90223  0.37574  0.84560  1.0000
  S   S141      1.0  0.92085  0.46760  0.83700  1.0000
  H   H871      1.0  0.85426  0.07882  0.93832  1.0000
  C   C501      1.0  0.84462  0.09785  0.92753  1.0000
  C   C502      1.0  0.54510  0.21996  0.71439  1.0000
  S   S142      1.0  0.92289  0.99710  0.88246  1.0000
  H   H872      1.0  0.82453  0.30476  0.83966  1.0000
  C   C503      1.0  0.99593  0.38373  0.87044  1.0000
  N   N39       1.0  0.83603  0.35379  0.84248  1.0000
  C   C504      1.0  0.87027  0.37822  0.83666  1.0000
  C   C505      1.0  0.82893  0.35281  0.86622  1.0000
  C   C506      1.0  0.84895  0.32250  0.83401  1.0000
  C   C507      1.0  0.50771  0.25290  0.68083  1.0000
  C   C508      1.0  0.69954  0.04959  0.64712  1.0000
  H   H873      1.0  0.54990  0.46034  0.78084  1.0000
  H   H874      1.0  0.57095  0.08223  0.69192  1.0000
  C   C509      1.0  0.98835  0.08500  0.84392  1.0000
  H   H875      1.0  0.58679  0.47661  0.71460  1.0000
  C   C510      1.0  0.60463  0.08379  0.69955  1.0000
  C   C511      1.0  0.78134  0.99839  0.93214  1.0000
  H   H876      1.0  0.67664  0.04730  0.63334  1.0000
  S   S143      1.0  0.51944  0.41378  0.70368  1.0000
  C   C512      1.0  0.67009  0.04930  0.94080  1.0000
  Fe  Fe71      1.0  0.51399  0.38573  0.73417  1.0000
  H   H877      1.0  0.92343  0.15151  0.87865  1.0000
  H   H878      1.0  0.65375  0.46794  0.78553  1.0000
  C   C513      1.0  0.50745  0.45310  0.69861  1.0000
  H   H879      1.0  0.97921  0.16250  0.88608  1.0000
  H   H880      1.0  0.98292  0.12281  0.91360  1.0000
  H   H881      1.0  0.82179  0.11341  0.93664  1.0000
  H   H882      1.0  0.61357  0.08134  0.94152  1.0000
  C   C514      1.0  0.52143  0.26851  0.69931  1.0000
  C   C515      1.0  0.98309  0.05706  0.91267  1.0000
  S   S144      1.0  0.51652  0.33005  0.78249  1.0000
  H   H883      1.0  0.99014  0.03668  0.92278  1.0000
  H   H884      1.0  0.51781  0.29326  0.70041  1.0000
  C   C516      1.0  0.51218  0.22074  0.67905  1.0000
  H   H885      1.0  0.52922  0.48020  0.75786  1.0000
  Fe  Fe72      1.0  0.54279  0.10142  0.61898  1.0000
  H   H886      1.0  0.57294  0.71767  0.01711  1.0000
  H   H887      1.0  0.56650  0.74559  0.03764  1.0000
  C   C517      1.0  0.57349  0.69716  0.04850  1.0000
  Fe  Fe73      1.0  0.57568  0.94385  0.03659  1.0000
  H   H888      1.0  0.84142  0.51492  0.13211  1.0000
  H   H889      1.0  0.84127  0.48571  0.11152  1.0000
  Fe  Fe74      1.0  0.62438  0.51373  0.03679  1.0000
  S   S145      1.0  0.60085  0.56394  0.03186  1.0000
  Fe  Fe75      1.0  0.67262  0.95540  0.05348  1.0000
  S   S146      1.0  0.71691  0.94059  0.08169  1.0000
  C   C518      1.0  0.61354  0.74301  0.07905  1.0000
  S   S147      1.0  0.64362  0.92257  0.02927  1.0000
  H   H890      1.0  0.50531  0.52459  0.02635  1.0000
  H   H891      1.0  0.68618  0.50307  0.26591  1.0000
  H   H892      1.0  0.76645  0.55686  0.25215  1.0000
  S   S148      1.0  0.95352  0.60090  0.23881  1.0000
  H   H893      1.0  0.94062  0.70103  0.16729  1.0000
  S   S149      1.0  0.95431  0.76397  0.15483  1.0000
  S   S150      1.0  0.93679  0.85589  0.15099  1.0000
  C   C519      1.0  0.52597  0.82987  0.04449  1.0000
  H   H894      1.0  0.53651  0.53517  0.99450  1.0000
  Fe  Fe76      1.0  0.96151  0.86779  0.11822  1.0000
  S   S151      1.0  0.91854  0.88508  0.09026  1.0000
  Fe  Fe77      1.0  0.65219  0.96216  0.00648  1.0000
  H   H895      1.0  0.52868  0.55327  0.06343  1.0000
  H   H896      1.0  0.61134  0.69714  0.04821  1.0000
  C   C520      1.0  0.69753  0.56521  0.26352  1.0000
  H   H897      1.0  0.52061  0.85914  0.95702  1.0000
  H   H898      1.0  0.78674  0.96413  0.23436  1.0000
  H   H899      1.0  0.61747  0.67930  0.08299  1.0000
  H   H900      1.0  0.87539  0.94978  0.19403  1.0000
  C   C521      1.0  0.90826  0.52408  0.16030  1.0000
  Fe  Fe78      1.0  0.95297  0.58842  0.27360  1.0000
  C   C522      1.0  0.54826  0.58284  0.03770  1.0000
  H   H901      1.0  0.99219  0.49310  0.23345  1.0000
  H   H902      1.0  0.88710  0.95501  0.23109  1.0000
  C   C523      1.0  0.57997  0.67656  0.08443  1.0000
  H   H903      1.0  0.55819  0.61717  0.01351  1.0000
  H   H904      1.0  0.62686  0.74449  0.06266  1.0000
  H   H905      1.0  0.55343  0.73251  0.09679  1.0000
  S   S152      1.0  0.67035  0.95209  0.97222  1.0000
  C   C524      1.0  0.57015  0.64243  0.07935  1.0000
  H   H906      1.0  0.87317  0.53197  0.16399  1.0000
  C   C525      1.0  0.77373  0.92622  0.08366  1.0000
  C   C526      1.0  0.79128  0.91905  0.10381  1.0000
  C   C527      1.0  0.83580  0.90725  0.10624  1.0000
  C   C528      1.0  0.86342  0.90226  0.08847  1.0000
  C   C529      1.0  0.84605  0.90970  0.06834  1.0000
  C   C530      1.0  0.80153  0.92151  0.06592  1.0000
  H   H907      1.0  0.77024  0.92275  0.11767  1.0000
  H   H908      1.0  0.84863  0.90195  0.12185  1.0000
  H   H909      1.0  0.86703  0.90602  0.05446  1.0000
  H   H910      1.0  0.78873  0.92695  0.05032  1.0000
  H   H911      1.0  0.94877  0.48540  0.17082  1.0000
  S   S153      1.0  0.50536  0.92227  0.03916  1.0000
  H   H912      1.0  0.93246  0.53710  0.17044  1.0000
  H   H913      1.0  0.91730  0.53069  0.14396  1.0000
  H   H914      1.0  0.56823  0.87036  0.04135  1.0000
  C   C531      1.0  0.53615  0.60935  0.02615  1.0000
  C   C532      1.0  0.91369  0.48942  0.16489  1.0000
  S   S154      1.0  0.60323  0.97410  0.06244  1.0000
  H   H915      1.0  0.50624  0.48597  0.01745  1.0000
  H   H916      1.0  0.50883  0.96675  0.07448  1.0000
  H   H917      1.0  0.57218  0.60406  0.26263  1.0000
  N   N40       1.0  0.55563  0.69986  0.07084  1.0000
  H   H918      1.0  0.91579  0.49594  0.11969  1.0000
  Fe  Fe79      1.0  0.97879  0.81266  0.14770  1.0000
  C   C533      1.0  0.96738  0.74423  0.17860  1.0000
  H   H919      1.0  0.62575  0.50468  0.27205  1.0000
  H   H920      1.0  0.68440  0.55023  0.25060  1.0000
  H   H921      1.0  0.63640  0.72859  0.08883  1.0000
  H   H922      1.0  0.72223  0.50870  0.97731  1.0000
  H   H923      1.0  0.79358  0.49005  0.12860  1.0000
  H   H924      1.0  0.84331  0.97380  0.25897  1.0000
  H   H925      1.0  0.55458  0.81421  0.04514  1.0000
  N   N41       1.0  0.84364  0.79977  0.10254  1.0000
  C   C534      1.0  0.87776  0.78078  0.11473  1.0000
  C   C535      1.0  0.83453  0.82857  0.11525  1.0000
  C   C536      1.0  0.86565  0.80864  0.08180  1.0000
  C   C537      1.0  0.80137  0.78071  0.09896  1.0000
  C   C538      1.0  0.89641  0.75184  0.10340  1.0000
  C   C539      1.0  0.81932  0.82337  0.13840  1.0000
  C   C540      1.0  0.83683  0.82802  0.06647  1.0000
  C   C541      1.0  0.75596  0.79831  0.09629  1.0000
  H   H926      1.0  0.90756  0.79514  0.11927  1.0000
  H   H927      1.0  0.86297  0.77243  0.12992  1.0000
  H   H928      1.0  0.80851  0.84342  0.10772  1.0000
  H   H929      1.0  0.86567  0.84311  0.11590  1.0000
  H   H930      1.0  0.89795  0.82136  0.08477  1.0000
  H   H931      1.0  0.87556  0.78798  0.07248  1.0000
  H   H932      1.0  0.80568  0.76579  0.08473  1.0000
  H   H933      1.0  0.79567  0.76444  0.11234  1.0000
  H   H934      1.0  0.92235  0.75806  0.09133  1.0000
  H   H935      1.0  0.91407  0.73706  0.11516  1.0000
  H   H936      1.0  0.86913  0.73782  0.09613  1.0000
  H   H937      1.0  0.84878  0.81720  0.14853  1.0000
  H   H938      1.0  0.80500  0.84517  0.14483  1.0000
  H   H939      1.0  0.79309  0.80521  0.13986  1.0000
  H   H940      1.0  0.82035  0.84808  0.07406  1.0000
  H   H941      1.0  0.81101  0.81360  0.05841  1.0000
  H   H942      1.0  0.85944  0.83739  0.05390  1.0000
  H   H943      1.0  0.74468  0.80924  0.11129  1.0000
  H   H944      1.0  0.72898  0.78171  0.09174  1.0000
  H   H945      1.0  0.75707  0.81613  0.08384  1.0000
  H   H946      1.0  0.53397  0.63633  0.08195  1.0000
  H   H947      1.0  0.94852  0.96708  0.25322  1.0000
  C   C542      1.0  0.71451  0.96955  0.95747  1.0000
  C   C543      1.0  0.56391  0.73152  0.07986  1.0000
  C   C544      1.0  0.83137  0.49111  0.12811  1.0000
  C   C545      1.0  0.99919  0.96540  0.18014  1.0000
  C   C546      1.0  0.99018  0.71071  0.21557  1.0000
  H   H948      1.0  0.61472  0.76671  0.08570  1.0000
  C   C547      1.0  0.60912  0.60214  0.26608  1.0000
  H   H949      1.0  0.56352  0.67470  0.04141  1.0000
  H   H950      1.0  0.51922  0.83557  0.98003  1.0000
  H   H951      1.0  0.98988  0.49421  0.14032  1.0000
  S   S155      1.0  0.69840  0.49804  0.03570  1.0000
  H   H952      1.0  0.69823  0.58879  0.25667  1.0000
  C   C548      1.0  0.55696  0.72194  0.03280  1.0000
  C   C549      1.0  0.74776  0.55660  0.26746  1.0000
  C   C550      1.0  0.96884  0.69590  0.19862  1.0000
  C   C551      1.0  0.51953  0.57323  0.05412  1.0000
  C   C552      1.0  0.73988  0.49657  0.96476  1.0000
  C   C553      1.0  0.88923  0.97704  0.22212  1.0000
  C   C554      1.0  0.53381  0.86166  0.04230  1.0000
  C   C555      1.0  0.95724  0.71266  0.18029  1.0000
  H   H953      1.0  0.57223  0.68035  0.10150  1.0000
  H   H954      1.0  0.58012  0.63622  0.06297  1.0000
  H   H955      1.0  0.83818  0.48746  0.00832  1.0000
  H   H956      1.0  0.99699  0.78324  0.19442  1.0000
  H   H957      1.0  0.75194  0.53319  0.27413  1.0000
  C   C556      1.0  0.66056  0.50491  0.27874  1.0000
  C   C557      1.0  0.98912  0.75895  0.19547  1.0000
  H   H958      1.0  0.54231  0.74903  0.07191  1.0000
  H   H959      1.0  0.52130  0.49923  0.98338  1.0000
  H   H960      1.0  0.96088  0.67164  0.19973  1.0000
  H   H961      1.0  0.89237  0.48503  0.17914  1.0000
  H   H962      1.0  0.88790  0.51708  0.28379  1.0000
  H   H963      1.0  0.60818  0.55308  0.26335  1.0000
  H   H964      1.0  0.59049  0.62758  0.09008  1.0000
  H   H965      1.0  0.62732  0.60550  0.25086  1.0000
  H   H966      1.0  0.51973  0.72077  0.03040  1.0000
  H   H967      1.0  0.61747  0.62115  0.27712  1.0000
  C   C558      1.0  0.50507  0.69417  0.07060  1.0000
  H   H968      1.0  0.99180  0.95642  0.16453  1.0000
  S   S156      1.0  0.99862  0.82246  0.11389  1.0000
  S   S157      1.0  0.58172  0.98087  0.01197  1.0000
  H   H969      1.0  0.99336  0.48292  0.11317  1.0000
  C   C559      1.0  0.61854  0.57005  0.27561  1.0000
  S   S158      1.0  0.99533  0.62987  0.28194  1.0000
  N   N42       1.0  0.66673  0.56414  0.28264  1.0000
  C   C560      1.0  0.50736  0.51917  0.99235  1.0000
  C   C561      1.0  0.86412  0.97208  0.20099  1.0000
  H   H970      1.0  0.82679  0.97100  0.20278  1.0000
  H   H971      1.0  0.76479  0.57365  0.27783  1.0000
  H   H972      1.0  0.91003  0.97662  0.27479  1.0000
  H   H973      1.0  0.92557  0.97943  0.21750  1.0000
  C   C562      1.0  0.00027  0.74228  0.21386  1.0000
  S   S159      1.0  0.60653  0.48206  0.06374  1.0000
  C   C563      1.0  0.98344  0.87297  0.52303  1.0000
  C   C564      1.0  0.84595  0.57137  0.57545  1.0000
  S   S160      1.0  0.60658  0.59662  0.59075  1.0000
  H   H974      1.0  0.77726  0.55522  0.40057  1.0000
  S   S161      1.0  0.66714  0.94063  0.36710  1.0000
  C   C565      1.0  0.84012  0.50940  0.40672  1.0000
  H   H975      1.0  0.64326  0.54786  0.61825  1.0000
  C   C566      1.0  0.98486  0.91419  0.59859  1.0000
  S   S162      1.0  0.55372  0.54248  0.32686  1.0000
  Fe  Fe80      1.0  0.59676  0.94875  0.35397  1.0000
  S   S163      1.0  0.53306  0.91881  0.34753  1.0000
  N   N43       1.0  0.83702  0.60562  0.57395  1.0000
  H   H976      1.0  0.72962  0.54972  0.38377  1.0000
  H   H977      1.0  0.84403  0.53396  0.41148  1.0000
  S   S164      1.0  0.66672  0.52050  0.35367  1.0000
  S   S165      1.0  0.89415  0.49556  0.55572  1.0000
  S   S166      1.0  0.81764  0.51099  0.51869  1.0000
  C   C567      1.0  0.98950  0.81337  0.54006  1.0000
  Fe  Fe81      1.0  0.87948  0.93472  0.53574  1.0000
  H   H978      1.0  0.99865  0.65685  0.52087  1.0000
  S   S167      1.0  0.89520  0.88292  0.53840  1.0000
  Fe  Fe82      1.0  0.89378  0.51369  0.52238  1.0000
  S   S168      1.0  0.92636  0.55690  0.50898  1.0000
  H   H979      1.0  0.75052  0.92271  0.41476  1.0000
  Fe  Fe83      1.0  0.81835  0.49008  0.55120  1.0000
  H   H980      1.0  0.75974  0.58091  0.59921  1.0000
  S   S169      1.0  0.81165  0.95312  0.52445  1.0000
  H   H981      1.0  0.88579  0.56482  0.60476  1.0000
  Fe  Fe84      1.0  0.65391  0.49339  0.38325  1.0000
  C   C568      1.0  0.94930  0.83106  0.54239  1.0000
  C   C569      1.0  0.85936  0.52201  0.29412  1.0000
  H   H982      1.0  0.85383  0.55371  0.37676  1.0000
  H   H983      1.0  0.83688  0.93783  0.42180  1.0000
  C   C570      1.0  0.94609  0.86110  0.53411  1.0000
  S   S170      1.0  0.76256  0.97466  0.32874  1.0000
  H   H984      1.0  0.76775  0.59896  0.56303  1.0000
  H   H985      1.0  0.95201  0.61916  0.50081  1.0000
  H   H986      1.0  0.92059  0.82143  0.55083  1.0000
  H   H987      1.0  0.77791  0.61793  0.60989  1.0000
  C   C571      1.0  0.91175  0.52564  0.37166  1.0000
  C   C572      1.0  0.84100  0.96014  0.41334  1.0000
  H   H988      1.0  0.95362  0.86964  0.58900  1.0000
  H   H989      1.0  0.84982  0.60956  0.51868  1.0000
  N   N44       1.0  0.83024  0.95662  0.39017  1.0000
  H   H990      1.0  0.66671  0.61108  0.32810  1.0000
  C   C573      1.0  0.51812  0.87876  0.34795  1.0000
  H   H991      1.0  0.89898  0.50611  0.42753  1.0000
  H   H992      1.0  0.87698  0.56481  0.56629  1.0000
  H   H993      1.0  0.89614  0.94068  0.37917  1.0000
  H   H994      1.0  0.51617  0.85235  0.40444  1.0000
  H   H995      1.0  0.78098  0.95913  0.47937  1.0000
  C   C574      1.0  0.85234  0.55212  0.30136  1.0000
  C   C575      1.0  0.81500  0.55798  0.31481  1.0000
  C   C576      1.0  0.78472  0.53428  0.32070  1.0000
  H   H996      1.0  0.55400  0.48571  0.44787  1.0000
  H   H997      1.0  0.80924  0.58117  0.32053  1.0000
  H   H998      1.0  0.75601  0.53945  0.33082  1.0000
  H   H999      1.0  0.61727  0.60377  0.31262  1.0000
  C   C577      1.0  0.71248  0.49263  0.43161  1.0000
  H   H1000     1.0  0.92580  0.63991  0.57694  1.0000
  H   H1001     1.0  0.87319  0.90360  0.35300  1.0000
  H   H1002     1.0  0.58592  0.86109  0.35196  1.0000
  C   C578      1.0  0.72634  0.50630  0.45064  1.0000
  C   C579      1.0  0.78669  0.61249  0.57507  1.0000
  S   S171      1.0  0.91911  0.96984  0.51737  1.0000
  C   C580      1.0  0.85978  0.52986  0.37096  1.0000
  H   H1003     1.0  0.71504  0.52936  0.45454  1.0000
  C   C581      1.0  0.64975  0.56809  0.58734  1.0000
  C   C582      1.0  0.66158  0.54740  0.60338  1.0000
  C   C583      1.0  0.69786  0.52645  0.60032  1.0000
  C   C584      1.0  0.72258  0.52567  0.58119  1.0000
  C   C585      1.0  0.71028  0.54599  0.56501  1.0000
  C   C586      1.0  0.67432  0.56717  0.56814  1.0000
  H   H1004     1.0  0.71809  0.96782  0.50582  1.0000
  H   H1005     1.0  0.82518  0.56325  0.60894  1.0000
  H   H1006     1.0  0.72874  0.54562  0.55017  1.0000
  H   H1007     1.0  0.66548  0.58303  0.55562  1.0000
  C   C587      1.0  0.55038  0.85524  0.35020  1.0000
  H   H1008     1.0  0.52856  0.86628  0.43002  1.0000
  C   C588      1.0  0.99938  0.59753  0.55592  1.0000
  H   H1009     1.0  0.85055  0.64248  0.55155  1.0000
  C   C589      1.0  0.65061  0.59404  0.31735  1.0000
  C   C590      1.0  0.73036  0.96470  0.45499  1.0000
  C   C591      1.0  0.91363  0.62385  0.58941  1.0000
  C   C592      1.0  0.86118  0.62390  0.59084  1.0000
  H   H1010     1.0  0.92529  0.52973  0.38778  1.0000
  C   C593      1.0  0.53679  0.82397  0.34970  1.0000
  H   H1011     1.0  0.86381  0.91185  0.39156  1.0000
  H   H1012     1.0  0.84388  0.93854  0.34697  1.0000
  H   H1013     1.0  0.75924  0.49960  0.38874  1.0000
  H   H1014     1.0  0.64475  0.57293  0.32672  1.0000
  H   H1015     1.0  0.91580  0.95569  0.41280  1.0000
  C   C594      1.0  0.78073  0.94821  0.38818  1.0000
  H   H1016     1.0  0.70704  0.51087  0.61297  1.0000
  C   C595      1.0  0.95634  0.58368  0.52458  1.0000
  C   C596      1.0  0.50964  0.56279  0.36297  1.0000
  C   C597      1.0  0.68238  0.58820  0.29826  1.0000
  C   C598      1.0  0.76245  0.60593  0.59623  1.0000
  H   H1017     1.0  0.72682  0.61442  0.59514  1.0000
  H   H1018     1.0  0.52357  0.54274  0.37074  1.0000
  H   H1019     1.0  0.56224  0.80609  0.35122  1.0000
  H   H1020     1.0  0.92819  0.63205  0.60461  1.0000
  H   H1021     1.0  0.84980  0.52974  0.35394  1.0000
  H   H1022     1.0  0.99865  0.90497  0.61375  1.0000
  H   H1023     1.0  0.74071  0.90579  0.38910  1.0000
  H   H1024     1.0  0.78021  0.63718  0.57124  1.0000
  S   S172      1.0  0.67590  0.51321  0.41470  1.0000
  C   C599      1.0  0.96535  0.61298  0.51619  1.0000
  H   H1025     1.0  0.79533  0.61178  0.53108  1.0000
  C   C600      1.0  0.79151  0.50419  0.31333  1.0000
  H   H1026     1.0  0.64229  0.53147  0.30595  1.0000
  C   C601      1.0  0.85382  0.61694  0.55271  1.0000
  H   H1027     1.0  0.85406  0.53215  0.59647  1.0000
  C   C602      1.0  0.88919  0.97181  0.41854  1.0000
  H   H1028     1.0  0.85006  0.64846  0.59043  1.0000
  H   H1029     1.0  0.98262  0.95374  0.56781  1.0000
  H   H1030     1.0  0.89065  0.61194  0.55067  1.0000
  H   H1031     1.0  0.96634  0.55355  0.55121  1.0000
  Fe  Fe85      1.0  0.55002  0.60332  0.61565  1.0000
  H   H1032     1.0  0.70129  0.52947  0.30142  1.0000
  H   H1033     1.0  0.92752  0.60059  0.58620  1.0000
  S   S173      1.0  0.76973  0.49999  0.57882  1.0000
  C   C603      1.0  0.85293  0.55767  0.59777  1.0000
  N   N45       1.0  0.83139  0.50700  0.38319  1.0000
  H   H1034     1.0  0.92473  0.90352  0.57910  1.0000
  C   C604      1.0  0.84673  0.91985  0.35883  1.0000
  H   H1035     1.0  0.89268  0.97340  0.43604  1.0000
  H   H1036     1.0  0.71289  0.94355  0.45894  1.0000
  H   H1037     1.0  0.98120  0.89566  0.51610  1.0000
  C   C605      1.0  0.76617  0.91784  0.39906  1.0000
  H   H1038     1.0  0.99146  0.79047  0.54674  1.0000
  Fe  Fe86      1.0  0.59599  0.50686  0.34433  1.0000
  H   H1039     1.0  0.83011  0.57737  0.53358  1.0000
  H   H1040     1.0  0.50881  0.59902  0.31534  1.0000
  C   C606      1.0  0.83044  0.60288  0.53310  1.0000
  C   C607      1.0  0.78197  0.51471  0.37924  1.0000
  H   H1041     1.0  0.81622  0.97572  0.42114  1.0000
  H   H1042     1.0  0.81787  0.55815  0.56790  1.0000
  C   C608      1.0  0.97297  0.57610  0.54462  1.0000
  H   H1043     1.0  0.92756  0.54334  0.36128  1.0000
  H   H1044     1.0  0.97686  0.91832  0.55527  1.0000
  H   H1045     1.0  0.79424  0.90127  0.40139  1.0000
  C   C609      1.0  0.99188  0.63431  0.52745  1.0000
  S   S174      1.0  0.50215  0.64294  0.60886  1.0000
  H   H1046     1.0  0.97019  0.93718  0.60241  1.0000
  H   H1047     1.0  0.85219  0.61573  0.60695  1.0000
  H   H1048     1.0  0.85525  0.97992  0.31390  1.0000
  H   H1049     1.0  0.76975  0.94772  0.37134  1.0000
  C   C610      1.0  0.86066  0.93204  0.38084  1.0000
  H   H1050     1.0  0.81429  0.90685  0.35949  1.0000
  S   S175      1.0  0.87683  0.96321  0.56559  1.0000
  H   H1051     1.0  0.66418  0.48364  0.28835  1.0000
  H   H1052     1.0  0.59414  0.56652  0.28889  1.0000
  C   C611      1.0  0.75421  0.49016  0.46486  1.0000
  H   H1053     1.0  0.68810  0.61072  0.29028  1.0000
  H   H1054     1.0  0.91977  0.89297  0.60615  1.0000
  H   H1055     1.0  0.77275  0.51012  0.36244  1.0000
  H   H1056     1.0  0.71601  0.58178  0.30502  1.0000
  C   C612      1.0  0.76726  0.54807  0.38440  1.0000
  H   H1057     1.0  0.78034  0.56463  0.37249  1.0000
  S   S176      1.0  0.66551  0.97093  0.42439  1.0000
  C   C613      1.0  0.94387  0.89378  0.59258  1.0000
  C   C614      1.0  0.51966  0.56836  0.34168  1.0000
  H   H1058     1.0  0.92309  0.50308  0.36537  1.0000
  H   H1059     1.0  0.80997  0.50098  0.41577  1.0000
  S   S177      1.0  0.58081  0.48404  0.37535  1.0000
  H   H1060     1.0  0.50404  0.76607  0.42731  1.0000
  H   H1061     1.0  0.62756  0.97969  0.52935  1.0000
  H   H1062     1.0  0.68674  0.94185  0.52194  1.0000
  H   H1063     1.0  0.66276  0.95430  0.49740  1.0000
  C   C615      1.0  0.82918  0.49823  0.30012  1.0000
  S   S178      1.0  0.88809  0.58345  0.29395  1.0000
  H   H1064     1.0  0.57714  0.50069  0.42417  1.0000
  C   C616      1.0  0.76873  0.97361  0.46670  1.0000
  C   C617      1.0  0.88141  0.49147  0.41565  1.0000
  C   C618      1.0  0.68332  0.96189  0.51113  1.0000
  C   C619      1.0  0.66839  0.53304  0.29323  1.0000
  H   H1065     1.0  0.90739  0.48449  0.40395  1.0000
  H   H1066     1.0  0.75875  0.96636  0.39530  1.0000
  H   H1067     1.0  0.62758  0.48452  0.45985  1.0000
  H   H1068     1.0  0.76413  0.50079  0.47962  1.0000
  H   H1069     1.0  0.53676  0.76723  0.40348  1.0000
  C   C620      1.0  0.51645  0.78158  0.41464  1.0000
  C   C621      1.0  0.50115  0.59452  0.33180  1.0000
  Fe  Fe87      1.0  0.69292  0.97824  0.34519  1.0000
  H   H1070     1.0  0.53995  0.79902  0.42129  1.0000
  Fe  Fe88      1.0  0.65261  0.97983  0.38945  1.0000
  S   S179      1.0  0.58072  0.85977  0.74543  1.0000
  H   H1071     1.0  0.84305  0.84861  0.88811  1.0000
  Fe  Fe89      1.0  0.55530  0.87151  0.77815  1.0000
  S   S180      1.0  0.59723  0.88698  0.80672  1.0000
  H   H1072     1.0  0.69778  0.94435  0.92913  1.0000
  H   H1073     1.0  0.63783  0.83551  0.64431  1.0000
  S   S181      1.0  0.55682  0.61621  0.65028  1.0000
  H   H1074     1.0  0.86180  0.90354  0.79968  1.0000
  C   C622      1.0  0.54313  0.70591  0.69202  1.0000
  H   H1075     1.0  0.53324  0.79120  0.64708  1.0000
  S   S182      1.0  0.83852  0.94869  0.87310  1.0000
  C   C623      1.0  0.99275  0.58675  0.84720  1.0000
  Fe  Fe90      1.0  0.91825  0.51563  0.85111  1.0000
  H   H1076     1.0  0.67427  0.82139  0.67584  1.0000
  S   S183      1.0  0.95244  0.55921  0.83744  1.0000
  Fe  Fe91      1.0  0.91427  0.95031  0.86758  1.0000
  S   S184      1.0  0.95449  0.90933  0.88008  1.0000
  H   H1077     1.0  0.56116  0.52051  0.73940  1.0000
  C   C624      1.0  0.65700  0.49518  0.75607  1.0000
  H   H1078     1.0  0.56779  0.85400  0.69461  1.0000
  S   S185      1.0  0.84140  0.51494  0.85230  1.0000
  C   C625      1.0  0.76242  0.51310  0.94868  1.0000
  S   S186      1.0  0.81207  0.51913  0.91202  1.0000
  H   H1079     1.0  0.86441  0.61693  0.92691  1.0000
  C   C626      1.0  0.61008  0.87747  0.65762  1.0000
  C   C627      1.0  0.60675  0.84254  0.65327  1.0000
  H   H1080     1.0  0.84447  0.62208  0.84991  1.0000
  H   H1081     1.0  0.75688  0.96945  0.90696  1.0000
  H   H1082     1.0  0.86418  0.58260  0.84990  1.0000
  C   C628      1.0  0.53708  0.74990  0.71611  1.0000
  C   C629      1.0  0.98958  0.85167  0.87408  1.0000
  C   C630      1.0  0.78502  0.49756  0.93216  1.0000
  H   H1083     1.0  0.63550  0.51429  0.76199  1.0000
  S   S187      1.0  0.51415  0.82774  0.78150  1.0000
  H   H1084     1.0  0.90010  0.80955  0.84758  1.0000
  H   H1085     1.0  0.64517  0.77956  0.70107  1.0000
  H   H1086     1.0  0.86160  0.68106  0.87785  1.0000
  C   C631      1.0  0.65023  0.90672  0.80789  1.0000
  C   C632      1.0  0.67580  0.91334  0.78974  1.0000
  C   C633      1.0  0.71819  0.92836  0.79154  1.0000
  C   C634      1.0  0.73546  0.93713  0.81142  1.0000
  C   C635      1.0  0.70982  0.93061  0.82957  1.0000
  C   C636      1.0  0.66757  0.91542  0.82778  1.0000
  H   H1087     1.0  0.66305  0.90672  0.77436  1.0000
  H   H1088     1.0  0.73787  0.93309  0.77742  1.0000
  H   H1089     1.0  0.72268  0.93703  0.84498  1.0000
  H   H1090     1.0  0.64811  0.91039  0.84192  1.0000
  H   H1091     1.0  0.64159  0.88361  0.66623  1.0000
  H   H1092     1.0  0.52237  0.50623  0.65908  1.0000
  C   C637      1.0  0.61206  0.49089  0.72321  1.0000
  C   C638      1.0  0.58912  0.52218  0.72776  1.0000
  Fe  Fe92      1.0  0.53525  0.81813  0.74787  1.0000
  H   H1093     1.0  0.64678  0.84949  0.69199  1.0000
  C   C639      1.0  0.71983  0.96154  0.93606  1.0000
  H   H1094     1.0  0.63946  0.49591  0.71145  1.0000
  N   N46       1.0  0.60078  0.82240  0.67253  1.0000
  C   C640      1.0  0.64335  0.82565  0.68570  1.0000
  H   H1095     1.0  0.88996  0.84593  0.87020  1.0000
  C   C641      1.0  0.59680  0.78895  0.66603  1.0000
  H   H1096     1.0  0.55555  0.81548  0.69913  1.0000
  H   H1097     1.0  0.58266  0.71149  0.72052  1.0000
  H   H1098     1.0  0.81394  0.65719  0.88102  1.0000
  Fe  Fe93      1.0  0.83334  0.97055  0.84086  1.0000
  H   H1099     1.0  0.68457  0.50681  0.74695  1.0000
  S   S188      1.0  0.92617  0.49858  0.88441  1.0000
  H   H1100     1.0  0.91288  0.79649  0.82157  1.0000
  H   H1101     1.0  0.57404  0.53099  0.71283  1.0000
  H   H1102     1.0  0.56412  0.75610  0.64504  1.0000
  H   H1103     1.0  0.63104  0.77900  0.66258  1.0000
  H   H1104     1.0  0.58291  0.77487  0.67924  1.0000
  H   H1105     1.0  0.51196  0.96397  0.73202  1.0000
  H   H1106     1.0  0.78530  0.63622  0.91361  1.0000
  H   H1107     1.0  0.50563  0.72113  0.76664  1.0000
  H   H1108     1.0  0.92936  0.83437  0.82889  1.0000
  H   H1109     1.0  0.86289  0.88236  0.87513  1.0000
  H   H1110     1.0  0.58510  0.78913  0.63156  1.0000
  H   H1111     1.0  0.57411  0.49585  0.77400  1.0000
  C   C642      1.0  0.56084  0.83211  0.68602  1.0000
  H   H1112     1.0  0.90616  0.64163  0.90096  1.0000
  C   C643      1.0  0.93728  0.58333  0.90742  1.0000
  Fe  Fe94      1.0  0.84986  0.49550  0.88509  1.0000
  C   C644      1.0  0.75332  0.97570  0.92347  1.0000
  H   H1113     1.0  0.57864  0.83965  0.64180  1.0000
  H   H1114     1.0  0.61413  0.53981  0.73281  1.0000
  Fe  Fe95      1.0  0.51807  0.88477  0.73398  1.0000
  S   S189      1.0  0.55740  0.76975  0.73862  1.0000
  H   H1115     1.0  0.62048  0.80985  0.71716  1.0000
  H   H1116     1.0  0.91346  0.58144  0.87562  1.0000
  N   N47       1.0  0.86019  0.60430  0.89364  1.0000
  C   C645      1.0  0.51430  0.83532  0.67498  1.0000
  C   C646      1.0  0.82338  0.59546  0.87814  1.0000
  C   C647      1.0  0.84254  0.60301  0.91618  1.0000
  H   H1117     1.0  0.88339  0.55702  0.89319  1.0000
  H   H1118     1.0  0.50385  0.94692  0.66514  1.0000
  H   H1119     1.0  0.92582  0.58251  0.92414  1.0000
  C   C648      1.0  0.99640  0.88590  0.84409  1.0000
  H   H1120     1.0  0.80623  0.59107  0.84482  1.0000
  C   C649      1.0  0.79296  0.61320  0.92014  1.0000
  H   H1121     1.0  0.90352  0.87252  0.80075  1.0000
  H   H1122     1.0  0.79223  0.60954  0.88013  1.0000
  H   H1123     1.0  0.81195  0.57137  0.88112  1.0000
  H   H1124     1.0  0.84431  0.57906  0.92248  1.0000
  H   H1125     1.0  0.78668  0.61422  0.93749  1.0000
  C   C650      1.0  0.64686  0.80436  0.70520  1.0000
  S   S190      1.0  0.79065  0.95392  0.81274  1.0000
  H   H1126     1.0  0.98090  0.61828  0.82145  1.0000
  H   H1127     1.0  0.55914  0.68437  0.68760  1.0000
  H   H1128     1.0  0.68019  0.80816  0.71302  1.0000
  C   C651      1.0  0.88037  0.63540  0.88885  1.0000
  C   C652      1.0  0.83598  0.59813  0.85447  1.0000
  H   H1129     1.0  0.90056  0.63509  0.87386  1.0000
  H   H1130     1.0  0.61137  0.88987  0.64226  1.0000
  H   H1131     1.0  0.97748  0.84718  0.88998  1.0000
  H   H1132     1.0  0.76874  0.59593  0.91372  1.0000
  C   C653      1.0  0.89759  0.58063  0.89154  1.0000
  C   C654      1.0  0.55647  0.72138  0.71062  1.0000
  C   C655      1.0  0.84712  0.66284  0.88820  1.0000
  N   N48       1.0  0.83713  0.85735  0.83249  1.0000
  C   C656      1.0  0.79587  0.86712  0.82002  1.0000
  C   C657      1.0  0.87075  0.88354  0.83157  1.0000
  C   C658      1.0  0.82192  0.85173  0.85512  1.0000
  C   C659      1.0  0.85580  0.82830  0.82262  1.0000
  C   C660      1.0  0.75521  0.84463  0.82019  1.0000
  C   C661      1.0  0.88852  0.89232  0.80936  1.0000
  C   C662      1.0  0.85692  0.85735  0.87289  1.0000
  C   C663      1.0  0.90212  0.81699  0.83088  1.0000
  H   H1133     1.0  0.78306  0.88950  0.82615  1.0000
  H   H1134     1.0  0.80433  0.87104  0.80306  1.0000
  H   H1135     1.0  0.90121  0.87869  0.84125  1.0000
  H   H1136     1.0  0.85545  0.90469  0.83860  1.0000
  H   H1137     1.0  0.79279  0.86709  0.85940  1.0000
  H   H1138     1.0  0.80882  0.82785  0.85706  1.0000
  H   H1139     1.0  0.83177  0.80880  0.82482  1.0000
  H   H1140     1.0  0.85920  0.83112  0.80517  1.0000
  H   H1141     1.0  0.74246  0.83990  0.83639  1.0000
  H   H1142     1.0  0.72654  0.85539  0.81141  1.0000
  H   H1143     1.0  0.76337  0.82273  0.81196  1.0000
  H   H1144     1.0  0.91613  0.90954  0.81114  1.0000
  S   S191      1.0  0.90915  0.96960  0.83467  1.0000
  C   C664      1.0  0.98116  0.88043  0.86473  1.0000
  H   H1145     1.0  0.57997  0.88639  0.66633  1.0000
  H   H1146     1.0  0.84168  0.67253  0.90430  1.0000
  C   C665      1.0  0.56793  0.78151  0.64632  1.0000
  H   H1147     1.0  0.99015  0.90800  0.83674  1.0000
  S   S192      1.0  0.51692  0.91142  0.70281  1.0000
  H   H1148     1.0  0.51618  0.84515  0.65891  1.0000
  H   H1149     1.0  0.95794  0.60427  0.90455  1.0000
  C   C666      1.0  0.50272  0.96275  0.67837  1.0000
  H   H1150     1.0  0.96038  0.56333  0.90510  1.0000
  C   C667      1.0  0.51244  0.49696  0.67430  1.0000
  H   H1151     1.0  0.69349  0.49893  0.78589  1.0000
  C   C668      1.0  0.50850  0.95150  0.69907  1.0000
  H   H1152     1.0  0.76194  0.53799  0.94893  1.0000
  C   C669      1.0  0.51057  0.71908  0.67871  1.0000
  C   C670      1.0  0.50296  0.76227  0.70333  1.0000
  C   C671      1.0  0.50700  0.97221  0.71602  1.0000
  Fe  Fe96      1.0  0.50423  0.65290  0.64386  1.0000
  C   C672      1.0  0.99994  0.61425  0.83582  1.0000
