data_image0
_chemical_formula_structural       H4SHC2FeHCSHCH8CH3C4S2H4CH2NSCH3CH2CHCSNH3C2H2FeSHC2HCHCFeH2C2HC4H4CH4C2H2SHFeS2H2FeS2FeS2FeSFeS3C6H4C3H2C5H2C3H2CH2CH3CH2CHNH5C2H7FeH4CH5CNHC2H6SHC2HC3H3CHCNHC2HCHCH3CH2CHCH2SC2HFeHSCHCH2CH2C2SCFeCSH3FeHSFeS2FeCFeHS2C6H4CH3C2SC3H2SC2H4C2H6C2HFeH5S2H3C2NHC4HC3H2CH3C2NH5CHSC2NCH2CH2C2HCHCH2CHCH2CH7CH14SHCH2FeSFeSHS2HC7H4C6H7SNC2H2C2H3CHCH4CH4FeC3NHCH2CHC3H4CHC2H3CH2CH4CH2CH6C2HCH8SHCH3CSHCH4CH2SFeSHCNHCH5CH4SHCSC2HC3SHCH3NC8H5SH5NCH9FeC3H6C2FeH3CH6CSHCHCH6CH4SFeS2FeS2FeSFeS3FeS2H2C4H2C6H4C6H4C2H2NCH5CH7SH2C2HCH2C3HC2HCH3C3H2FeCH5CH3CH2CH6CH3C2NC6HCH3NCH6SCHC2H4NCH2NHCHCHFeSH3CH3CH3CH7CHC4H5FeCSCFeCHFeSCH2FeS2FeS2FeHFeS3H3C2H2SCH3CH2SHC6H3NH3CH2C2HCSC4H5C2NH3C3HNHCHCH3CH9SH2C2HC2HFeSH2CH3NH3FeHSCHCH2FeS2FeS2FeS2FeSFeS3C5H7C3HC7H8CNHC2H4C3HC2HC2H2C2HCH8CHSHCH3C6FeH2CHNCH2NC2HC2H5CH6CH6CHCHCHC2HCH5CSH2FeH2SFeH5CHCHC3H4CH3NCHCH4SH4CHCH2CSHCFeSHSCSH2CFeS2FeS2FeSFeS3FeS2CFeHFeHS2CH2C3H2C6H6C7H3CH3C2H2SC2H5FeNH4CNH3C2H4C2HCHC2H3CHCHSH2C2H4CH3C4NH4CH2CH9CH2CH2CH6NHCH3FeH2CHCH2SC2H2SC2NHSHCHCH2C4H2SH5C3H2C3H2SCH2CH5FeHS3FeSFeSFeS2CH2FeSHSCHCNCHC6H4CH3FeHFeH2SH6CHCSH3SHCHC2H3FeH2C2HCHCH5C2SCH3CH5SH
_chemical_formula_sum              "H768 S128 C448 Fe64 N32"
_cell_length_a       36.6894
_cell_length_b       36.6338
_cell_length_c       47.4308
_cell_angle_alpha    90.4102
_cell_angle_beta     90.1155
_cell_angle_gamma    90.2394

_space_group_name_H-M_alt    "P 1"
_space_group_IT_number       1

loop_
  _space_group_symop_operation_xyz
  'x, y, z'

loop_
  _atom_site_type_symbol
  _atom_site_label
  _atom_site_symmetry_multiplicity
  _atom_site_fract_x
  _atom_site_fract_y
  _atom_site_fract_z
  _atom_site_occupancy
  H   H1        1.0  0.42492  0.11011  0.32497  1.0000
  H   H2        1.0  0.43630  0.12069  0.26316  1.0000
  H   H3        1.0  0.13812  0.33582  0.03719  1.0000
  H   H4        1.0  0.40053  0.22840  0.27374  1.0000
  S   S1        1.0  0.00165  0.39704  0.01594  1.0000
  H   H5        1.0  0.46166  0.36129  0.04759  1.0000
  C   C1        1.0  0.40496  0.07774  0.04144  1.0000
  C   C2        1.0  0.42292  0.01861  0.25640  1.0000
  Fe  Fe1       1.0  0.48670  0.03265  0.14284  1.0000
  H   H6        1.0  0.40018  0.14381  0.24373  1.0000
  C   C3        1.0  0.47412  0.04743  0.21869  1.0000
  S   S2        1.0  0.40356  0.35729  0.00765  1.0000
  H   H7        1.0  0.46309  0.28427  0.04136  1.0000
  C   C4        1.0  0.42005  0.13909  0.31921  1.0000
  H   H8        1.0  0.42695  0.18826  0.26829  1.0000
  H   H9        1.0  0.30809  0.15497  0.30156  1.0000
  H   H10       1.0  0.44288  0.14615  0.30493  1.0000
  H   H11       1.0  0.06735  0.29624  0.05466  1.0000
  H   H12       1.0  0.40309  0.00738  0.27085  1.0000
  H   H13       1.0  0.11470  0.33856  0.06992  1.0000
  H   H14       1.0  0.48729  0.26922  0.08121  1.0000
  H   H15       1.0  0.30063  0.46708  0.32845  1.0000
  C   C5        1.0  0.37666  0.18089  0.29405  1.0000
  H   H16       1.0  0.09318  0.35602  0.03920  1.0000
  H   H17       1.0  0.41477  0.05471  0.05454  1.0000
  H   H18       1.0  0.16366  0.27864  0.02683  1.0000
  C   C6        1.0  0.41014  0.20297  0.28393  1.0000
  C   C7        1.0  0.47787  0.05346  0.24784  1.0000
  C   C8        1.0  0.47358  0.36306  0.02679  1.0000
  C   C9        1.0  0.41909  0.01270  0.22718  1.0000
  S   S3        1.0  0.45823  0.04747  0.30313  1.0000
  S   S4        1.0  0.01851  0.46081  0.07626  1.0000
  H   H19       1.0  0.49371  0.05908  0.20434  1.0000
  H   H20       1.0  0.35675  0.18008  0.27629  1.0000
  H   H21       1.0  0.36347  0.19826  0.31050  1.0000
  H   H22       1.0  0.42782  0.21154  0.30178  1.0000
  C   C10       1.0  0.45237  0.03906  0.26678  1.0000
  H   H23       1.0  0.45649  0.47496  0.21458  1.0000
  H   H24       1.0  0.48866  0.43582  0.00798  1.0000
  N   N1        1.0  0.08619  0.28451  0.01231  1.0000
  S   S5        1.0  0.44000  0.01790  0.17180  1.0000
  C   C11       1.0  0.44476  0.02697  0.20823  1.0000
  H   H25       1.0  0.11071  0.27534  0.05337  1.0000
  H   H26       1.0  0.42880  0.09553  0.03778  1.0000
  H   H27       1.0  0.38512  0.08682  0.28987  1.0000
  C   C12       1.0  0.38099  0.11484  0.28139  1.0000
  H   H28       1.0  0.47479  0.48821  0.18144  1.0000
  H   H29       1.0  0.36360  0.04649  0.02089  1.0000
  C   C13       1.0  0.35465  0.13349  0.32631  1.0000
  H   H30       1.0  0.35344  0.11461  0.27162  1.0000
  C   C14       1.0  0.31507  0.13160  0.31522  1.0000
  S   S6        1.0  0.35716  0.02426  0.32848  1.0000
  N   N2        1.0  0.38354  0.14280  0.30487  1.0000
  H   H31       1.0  0.40453  0.09572  0.24214  1.0000
  H   H32       1.0  0.38438  0.09251  0.05424  1.0000
  H   H33       1.0  0.02070  0.46668  0.13648  1.0000
  C   C15       1.0  0.46645  0.26358  0.02448  1.0000
  C   C16       1.0  0.40737  0.11967  0.25651  1.0000
  H   H34       1.0  0.46641  0.44371  0.04034  1.0000
  H   H35       1.0  0.33449  0.11345  0.01525  1.0000
  Fe  Fe2       1.0  0.00312  0.45587  0.03003  1.0000
  S   S7        1.0  0.48917  0.08049  0.11347  1.0000
  H   H36       1.0  0.02893  0.20881  0.02336  1.0000
  C   C17       1.0  0.48018  0.01785  0.01184  1.0000
  C   C18       1.0  0.38813  0.06214  0.01403  1.0000
  H   H37       1.0  0.45643  0.23656  0.03148  1.0000
  C   C19       1.0  0.09324  0.29570  0.04251  1.0000
  H   H38       1.0  0.37665  0.13549  0.02014  1.0000
  C   C20       1.0  0.47708  0.45778  0.02134  1.0000
  Fe  Fe3       1.0  0.41767  0.02489  0.33447  1.0000
  H   H39       1.0  0.30980  0.10544  0.30393  1.0000
  H   H40       1.0  0.03563  0.24485  0.04827  1.0000
  C   C21       1.0  0.07308  0.24545  0.01177  1.0000
  C   C22       1.0  0.11081  0.33370  0.04695  1.0000
  H   H41       1.0  0.17859  0.38848  0.01403  1.0000
  C   C23       1.0  0.44361  0.47243  0.00534  1.0000
  C   C24       1.0  0.46296  0.49903  0.20134  1.0000
  C   C25       1.0  0.45103  0.36078  0.00289  1.0000
  C   C26       1.0  0.35965  0.12188  0.00382  1.0000
  H   H42       1.0  0.42745  0.49173  0.01829  1.0000
  H   H43       1.0  0.29600  0.13222  0.33339  1.0000
  H   H44       1.0  0.40745  0.04135  0.00577  1.0000
  H   H45       1.0  0.44843  0.27225  0.00689  1.0000
  C   C27       1.0  0.03556  0.23834  0.02542  1.0000
  H   H46       1.0  0.09264  0.22752  0.02300  1.0000
  H   H47       1.0  0.03392  0.31225  0.01410  1.0000
  H   H48       1.0  0.01325  0.25333  0.01485  1.0000
  H   H49       1.0  0.14943  0.23732  0.00859  1.0000
  C   C28       1.0  0.00379  0.48862  0.12879  1.0000
  C   C29       1.0  0.15414  0.26704  0.00645  1.0000
  H   H50       1.0  0.43008  0.14290  0.00323  1.0000
  H   H51       1.0  0.47660  0.49833  0.06775  1.0000
  S   S8        1.0  0.04199  0.38101  0.45655  1.0000
  H   H52       1.0  0.48483  0.13561  0.56289  1.0000
  Fe  Fe4       1.0  0.35442  0.04499  0.37327  1.0000
  S   S9        1.0  0.41516  0.05000  0.37793  1.0000
  S   S10       1.0  0.31303  0.08915  0.38416  1.0000
  H   H53       1.0  0.49528  0.22284  0.50206  1.0000
  H   H54       1.0  0.00622  0.28799  0.45068  1.0000
  Fe  Fe5       1.0  0.31997  0.30248  0.43567  1.0000
  S   S11       1.0  0.30897  0.32188  0.48009  1.0000
  S   S12       1.0  0.35171  0.24935  0.42944  1.0000
  Fe  Fe6       1.0  0.30618  0.37933  0.41200  1.0000
  S   S13       1.0  0.29594  0.40339  0.45460  1.0000
  S   S14       1.0  0.30399  0.41358  0.37234  1.0000
  Fe  Fe7       1.0  0.34355  0.37015  0.46900  1.0000
  S   S15       1.0  0.38411  0.39402  0.50019  1.0000
  Fe  Fe8       1.0  0.26169  0.35334  0.46183  1.0000
  S   S16       1.0  0.21070  0.36641  0.48759  1.0000
  S   S17       1.0  0.35674  0.35009  0.42567  1.0000
  S   S18       1.0  0.26968  0.33020  0.41796  1.0000
  C   C30       1.0  0.32391  0.13343  0.39720  1.0000
  C   C31       1.0  0.35901  0.14239  0.40651  1.0000
  C   C32       1.0  0.36688  0.17802  0.41619  1.0000
  C   C33       1.0  0.33977  0.20508  0.41685  1.0000
  C   C34       1.0  0.30462  0.19615  0.40756  1.0000
  C   C35       1.0  0.29676  0.16046  0.39782  1.0000
  H   H55       1.0  0.38000  0.12176  0.40649  1.0000
  H   H56       1.0  0.39411  0.18461  0.42342  1.0000
  H   H57       1.0  0.28348  0.21664  0.40800  1.0000
  H   H58       1.0  0.26948  0.15375  0.39074  1.0000
  C   C36       1.0  0.43340  0.19949  0.52692  1.0000
  C   C37       1.0  0.44612  0.37001  0.47281  1.0000
  C   C38       1.0  0.43124  0.38600  0.49703  1.0000
  H   H59       1.0  0.42441  0.32937  0.54210  1.0000
  H   H60       1.0  0.42843  0.36117  0.45584  1.0000
  C   C39       1.0  0.08901  0.37814  0.46514  1.0000
  C   C40       1.0  0.14093  0.39118  0.49558  1.0000
  C   C41       1.0  0.16416  0.37080  0.47796  1.0000
  C   C42       1.0  0.14955  0.35392  0.45392  1.0000
  C   C43       1.0  0.11212  0.35747  0.44763  1.0000
  H   H61       1.0  0.16699  0.33772  0.44041  1.0000
  H   H62       1.0  0.10101  0.34399  0.42913  1.0000
  C   C44       1.0  0.47361  0.29520  0.54472  1.0000
  C   C45       1.0  0.30511  0.46183  0.37357  1.0000
  C   C46       1.0  0.20159  0.44211  0.37692  1.0000
  H   H63       1.0  0.30934  0.46610  0.41873  1.0000
  H   H64       1.0  0.43558  0.39230  0.41043  1.0000
  C   C47       1.0  0.43618  0.49483  0.40082  1.0000
  H   H65       1.0  0.13878  0.44422  0.43126  1.0000
  H   H66       1.0  0.48884  0.31621  0.53267  1.0000
  C   C48       1.0  0.45446  0.39708  0.51903  1.0000
  H   H67       1.0  0.41270  0.14689  0.36466  1.0000
  H   H68       1.0  0.44313  0.40964  0.53776  1.0000
  H   H69       1.0  0.39214  0.42453  0.43556  1.0000
  C   C49       1.0  0.10363  0.39511  0.48912  1.0000
  H   H70       1.0  0.08618  0.41089  0.50289  1.0000
  H   H71       1.0  0.15191  0.40403  0.51440  1.0000
  C   C50       1.0  0.45390  0.46141  0.44336  1.0000
  H   H72       1.0  0.38738  0.26082  0.48979  1.0000
  N   N3        1.0  0.18629  0.45373  0.40507  1.0000
  H   H73       1.0  0.41823  0.20507  0.50718  1.0000
  H   H74       1.0  0.11092  0.46784  0.38737  1.0000
  H   H75       1.0  0.44767  0.25363  0.48281  1.0000
  H   H76       1.0  0.22344  0.38798  0.38810  1.0000
  H   H77       1.0  0.46021  0.48126  0.39115  1.0000
  C   C51       1.0  0.20545  0.40060  0.37216  1.0000
  C   C52       1.0  0.42160  0.02870  0.49700  1.0000
  H   H78       1.0  0.44095  0.42577  0.38326  1.0000
  H   H79       1.0  0.39634  0.30823  0.49259  1.0000
  H   H80       1.0  0.22581  0.44797  0.47251  1.0000
  H   H81       1.0  0.17877  0.38632  0.37167  1.0000
  H   H82       1.0  0.39784  0.47659  0.36724  1.0000
  H   H83       1.0  0.40298  0.05048  0.50242  1.0000
  H   H84       1.0  0.45993  0.22681  0.56192  1.0000
  Fe  Fe9       1.0  0.48019  0.00719  0.65266  1.0000
  H   H85       1.0  0.45446  0.16480  0.35134  1.0000
  H   H86       1.0  0.06978  0.30812  0.50932  1.0000
  H   H87       1.0  0.21857  0.39579  0.35137  1.0000
  H   H88       1.0  0.37453  0.44768  0.40658  1.0000
  C   C53       1.0  0.38217  0.48328  0.47026  1.0000
  H   H89       1.0  0.45702  0.29962  0.49123  1.0000
  H   H90       1.0  0.39168  0.28227  0.52380  1.0000
  H   H91       1.0  0.22934  0.45371  0.37392  1.0000
  H   H92       1.0  0.21431  0.41335  0.43029  1.0000
  H   H93       1.0  0.36068  0.10682  0.33646  1.0000
  C   C54       1.0  0.21312  0.44354  0.42782  1.0000
  N   N4        1.0  0.42206  0.47382  0.42582  1.0000
  H   H94       1.0  0.15501  0.40494  0.41374  1.0000
  C   C55       1.0  0.12043  0.43922  0.38863  1.0000
  C   C56       1.0  0.30782  0.48084  0.39915  1.0000
  H   H95       1.0  0.47274  0.44429  0.43052  1.0000
  H   H96       1.0  0.40519  0.02701  0.45319  1.0000
  H   H97       1.0  0.18521  0.45326  0.35921  1.0000
  H   H98       1.0  0.35441  0.15395  0.34378  1.0000
  H   H99       1.0  0.12880  0.42934  0.36750  1.0000
  H   H100      1.0  0.40391  0.47543  0.48527  1.0000
  S   S19       1.0  0.44199  0.03182  0.55240  1.0000
  H   H101      1.0  0.24127  0.45185  0.42195  1.0000
  C   C57       1.0  0.04854  0.29533  0.49568  1.0000
  C   C58       1.0  0.15066  0.43466  0.41097  1.0000
  H   H102      1.0  0.09648  0.42251  0.39501  1.0000
  C   C59       1.0  0.30293  0.48157  0.34834  1.0000
  C   C60       1.0  0.42110  0.41298  0.39763  1.0000
  C   C61       1.0  0.42285  0.01551  0.46910  1.0000
  H   H103      1.0  0.05129  0.26536  0.49777  1.0000
  H   H104      1.0  0.40104  0.39888  0.38368  1.0000
  H   H105      1.0  0.36353  0.45984  0.46651  1.0000
  C   C62       1.0  0.48410  0.36557  0.47055  1.0000
  H   H106      1.0  0.45870  0.46944  0.62910  1.0000
  C   C63       1.0  0.44443  0.27448  0.49984  1.0000
  N   N5        1.0  0.46443  0.26283  0.52613  1.0000
  H   H107      1.0  0.44470  0.44323  0.46057  1.0000
  C   C64       1.0  0.40078  0.44046  0.41680  1.0000
  C   C65       1.0  0.40290  0.28150  0.50226  1.0000
  H   H108      1.0  0.17830  0.45102  0.46557  1.0000
  C   C66       1.0  0.44377  0.23482  0.54300  1.0000
  H   H109      1.0  0.41815  0.24575  0.55183  1.0000
  C   C67       1.0  0.49210  0.11417  0.54724  1.0000
  H   H110      1.0  0.45288  0.33831  0.57155  1.0000
  H   H111      1.0  0.41531  0.18265  0.54043  1.0000
  H   H112      1.0  0.49206  0.28670  0.56222  1.0000
  C   C68       1.0  0.49225  0.39165  0.51713  1.0000
  H   H113      1.0  0.05521  0.30368  0.47388  1.0000
  H   H114      1.0  0.42487  0.29869  0.57226  1.0000
  C   C69       1.0  0.44157  0.31593  0.55818  1.0000
  H   H115      1.0  0.48367  0.08971  0.48896  1.0000
  C   C70       1.0  0.20543  0.45915  0.45755  1.0000
  H   H116      1.0  0.45763  0.18263  0.52216  1.0000
  H   H117      1.0  0.46731  0.11017  0.53409  1.0000
  S   S20       1.0  0.48606  0.05487  0.62335  1.0000
  C   C71       1.0  0.47718  0.49194  0.45693  1.0000
  C   C72       1.0  0.44430  0.01397  0.51787  1.0000
  H   H118      1.0  0.49554  0.35337  0.45172  1.0000
  Fe  Fe10      1.0  0.47944  0.01425  0.58792  1.0000
  H   H119      1.0  0.49737  0.08908  0.55935  1.0000
  S   S21       1.0  0.99962  0.47645  0.48134  1.0000
  C   C73       1.0  0.42495  0.16159  0.34662  1.0000
  H   H120      1.0  0.01065  0.33935  0.50255  1.0000
  C   C74       1.0  0.17988  0.49433  0.40460  1.0000
  H   H121      1.0  0.49766  0.04723  0.47426  1.0000
  H   H122      1.0  0.41264  0.18911  0.34544  1.0000
  C   C75       1.0  0.39732  0.49867  0.44244  1.0000
  H   H123      1.0  0.20818  0.48925  0.45845  1.0000
  H   H124      1.0  0.00997  0.30455  0.52837  1.0000
  C   C76       1.0  0.01074  0.30916  0.50522  1.0000
  C   C77       1.0  0.45380  0.49917  0.62655  1.0000
  S   S22       1.0  0.07268  0.38826  0.94984  1.0000
  C   C78       1.0  0.46280  0.00161  0.96371  1.0000
  Fe  Fe11      1.0  0.35679  0.01699  0.87916  1.0000
  C   C79       1.0  0.39179  0.14335  0.79186  1.0000
  S   S23       1.0  0.31764  0.06389  0.88790  1.0000
  H   H125      1.0  0.38728  0.03418  0.94741  1.0000
  H   H126      1.0  0.24940  0.38936  0.88463  1.0000
  H   H127      1.0  0.32787  0.14259  0.96755  1.0000
  Fe  Fe12      1.0  0.33906  0.28032  0.93362  1.0000
  H   H128      1.0  0.27365  0.44389  0.96901  1.0000
  S   S24       1.0  0.36592  0.22545  0.92306  1.0000
  Fe  Fe13      1.0  0.33001  0.35981  0.91447  1.0000
  S   S25       1.0  0.31971  0.38064  0.95823  1.0000
  S   S26       1.0  0.32681  0.39557  0.87561  1.0000
  Fe  Fe14      1.0  0.36506  0.34342  0.97153  1.0000
  C   C80       1.0  0.16814  0.38069  0.99348  1.0000
  Fe  Fe15      1.0  0.28296  0.33183  0.96205  1.0000
  H   H129      1.0  0.36069  0.15750  0.75375  1.0000
  S   S27       1.0  0.37881  0.32678  0.92727  1.0000
  S   S28       1.0  0.29078  0.31231  0.91723  1.0000
  C   C81       1.0  0.33122  0.10908  0.89672  1.0000
  C   C82       1.0  0.36790  0.11842  0.90016  1.0000
  C   C83       1.0  0.37784  0.15439  0.90760  1.0000
  C   C84       1.0  0.35126  0.18138  0.91205  1.0000
  C   C85       1.0  0.31449  0.17209  0.90860  1.0000
  C   C86       1.0  0.30457  0.13608  0.90091  1.0000
  H   H130      1.0  0.38861  0.09781  0.89753  1.0000
  H   H131      1.0  0.40634  0.16130  0.91032  1.0000
  H   H132      1.0  0.29375  0.19254  0.91202  1.0000
  H   H133      1.0  0.27606  0.12906  0.89837  1.0000
  C   C87       1.0  0.22642  0.48341  0.89861  1.0000
  H   H134      1.0  0.12832  0.31595  0.99195  1.0000
  H   H135      1.0  0.32423  0.06624  0.98300  1.0000
  H   H136      1.0  0.36477  0.01174  0.97648  1.0000
  C   C88       1.0  0.46653  0.36330  0.97608  1.0000
  C   C89       1.0  0.11834  0.37963  0.95962  1.0000
  S   S29       1.0  0.32771  0.29581  0.97876  1.0000
  C   C90       1.0  0.18980  0.35936  0.97537  1.0000
  C   C91       1.0  0.17603  0.34928  0.94894  1.0000
  C   C92       1.0  0.14041  0.35930  0.94116  1.0000
  H   H137      1.0  0.19228  0.33246  0.93498  1.0000
  H   H138      1.0  0.12953  0.35036  0.92102  1.0000
  S   S30       1.0  0.03530  0.47442  0.99211  1.0000
  C   C93       1.0  0.32592  0.44363  0.87836  1.0000
  C   C94       1.0  0.44956  0.00293  0.72430  1.0000
  H   H139      1.0  0.30630  0.45027  0.83584  1.0000
  H   H140      1.0  0.34551  0.44622  0.92112  1.0000
  H   H141      1.0  0.41523  0.05792  0.81386  1.0000
  H   H142      1.0  0.36970  0.05319  0.77734  1.0000
  C   C95       1.0  0.25315  0.45897  0.95646  1.0000
  C   C96       1.0  0.41961  0.08734  0.80921  1.0000
  H   H143      1.0  0.18727  0.48245  0.86244  1.0000
  H   H144      1.0  0.34016  0.02293  0.94528  1.0000
  H   H145      1.0  0.23072  0.46575  0.97118  1.0000
  H   H146      1.0  0.40746  0.46001  0.83890  1.0000
  H   H147      1.0  0.12150  0.47402  0.93350  1.0000
  H   H148      1.0  0.41547  0.10924  0.85285  1.0000
  C   C97       1.0  0.14118  0.46285  0.91791  1.0000
  C   C98       1.0  0.19940  0.42073  0.89251  1.0000
  H   H149      1.0  0.02334  0.32032  0.96391  1.0000
  Fe  Fe16      1.0  0.02983  0.41659  0.97681  1.0000
  H   H150      1.0  0.17675  0.42946  0.87870  1.0000
  H   H151      1.0  0.17703  0.27065  0.99136  1.0000
  H   H152      1.0  0.36541  0.19314  0.77873  1.0000
  H   H153      1.0  0.40488  0.11220  0.73923  1.0000
  H   H154      1.0  0.18826  0.39692  0.90414  1.0000
  S   S31       1.0  0.41610  0.01910  0.89067  1.0000
  S   S32       1.0  0.47148  0.00698  0.81955  1.0000
  H   H155      1.0  0.44933  0.36166  0.95755  1.0000
  H   H156      1.0  0.39104  0.47254  0.80438  1.0000
  H   H157      1.0  0.41649  0.14585  0.77838  1.0000
  C   C99       1.0  0.34891  0.15197  0.98279  1.0000
  C   C100      1.0  0.24041  0.43457  0.93157  1.0000
  N   N6        1.0  0.38470  0.10374  0.79831  1.0000
  H   H158      1.0  0.34729  0.09231  0.76368  1.0000
  C   C101      1.0  0.35073  0.07032  0.97196  1.0000
  C   C102      1.0  0.35608  0.10013  0.82133  1.0000
  C   C103      1.0  0.49004  0.01584  0.76381  1.0000
  C   C104      1.0  0.40233  0.48331  0.82454  1.0000
  H   H159      1.0  0.44177  0.08838  0.79332  1.0000
  C   C105      1.0  0.31679  0.08979  0.81240  1.0000
  C   C106      1.0  0.48012  0.02534  0.98289  1.0000
  C   C107      1.0  0.46305  0.00464  0.78290  1.0000
  H   H160      1.0  0.11575  0.27619  0.97321  1.0000
  H   H161      1.0  0.25365  0.47767  0.88946  1.0000
  C   C108      1.0  0.36189  0.03272  0.95987  1.0000
  H   H162      1.0  0.36353  0.07855  0.83674  1.0000
  H   H163      1.0  0.35435  0.12549  0.83439  1.0000
  H   H164      1.0  0.26536  0.42839  0.91913  1.0000
  C   C109      1.0  0.36056  0.16325  0.77676  1.0000
  C   C110      1.0  0.43580  0.10551  0.83593  1.0000
  N   N7        1.0  0.37813  0.08889  0.99120  1.0000
  H   H165      1.0  0.03512  0.48875  0.72125  1.0000
  H   H166      1.0  0.38844  0.06824  0.72906  1.0000
  H   H167      1.0  0.29882  0.09118  0.83121  1.0000
  H   H168      1.0  0.31545  0.06121  0.80449  1.0000
  H   H169      1.0  0.30499  0.10832  0.79658  1.0000
  C   C111      1.0  0.44056  0.12304  0.98767  1.0000
  H   H170      1.0  0.37285  0.16287  0.97131  1.0000
  S   S33       1.0  0.23156  0.34191  0.98800  1.0000
  C   C112      1.0  0.05808  0.30983  0.00005  1.0000
  C   C113      1.0  0.13258  0.39098  0.98562  1.0000
  N   N8        1.0  0.21085  0.45027  0.91306  1.0000
  C   C114      1.0  0.37374  0.08259  0.77213  1.0000
  H   H171      1.0  0.39771  0.15909  0.81155  1.0000
  H   H172      1.0  0.18430  0.48733  0.94242  1.0000
  C   C115      1.0  0.04431  0.30007  0.97015  1.0000
  H   H173      1.0  0.23156  0.40798  0.94063  1.0000
  H   H174      1.0  0.06909  0.33807  0.99860  1.0000
  C   C116      1.0  0.48342  0.01482  0.73453  1.0000
  C   C117      1.0  0.22943  0.40609  0.87288  1.0000
  H   H175      1.0  0.06639  0.30202  0.95428  1.0000
  C   C118      1.0  0.17916  0.46057  0.93181  1.0000
  H   H176      1.0  0.34442  0.08755  0.95340  1.0000
  C   C119      1.0  0.33654  0.46175  0.90310  1.0000
  H   H177      1.0  0.46187  0.10603  0.99772  1.0000
  H   H178      1.0  0.24360  0.42815  0.86135  1.0000
  C   C120      1.0  0.12040  0.28708  0.99488  1.0000
  H   H179      1.0  0.45104  0.48499  0.98495  1.0000
  C   C121      1.0  0.41095  0.09888  0.97372  1.0000
  H   H180      1.0  0.40281  0.11211  0.95366  1.0000
  H   H181      1.0  0.13081  0.43530  0.91196  1.0000
  C   C122      1.0  0.31455  0.46414  0.85506  1.0000
  H   H182      1.0  0.45379  0.13996  0.97121  1.0000
  H   H183      1.0  0.03118  0.27283  0.96895  1.0000
  H   H184      1.0  0.42527  0.44900  0.00026  1.0000
  H   H185      1.0  0.07209  0.23457  0.98979  1.0000
  H   H186      1.0  0.45247  0.48928  0.80277  1.0000
  H   H187      1.0  0.46297  0.00770  0.94145  1.0000
  H   H188      1.0  0.33364  0.15809  0.78626  1.0000
  C   C123      1.0  0.40037  0.08409  0.74694  1.0000
  H   H189      1.0  0.42526  0.07393  0.96641  1.0000
  H   H190      1.0  0.26681  0.48423  0.94912  1.0000
  H   H191      1.0  0.44848  0.13226  0.83099  1.0000
  H   H192      1.0  0.17597  0.44038  0.94914  1.0000
  H   H193      1.0  0.07296  0.48380  0.88163  1.0000
  H   H194      1.0  0.33691  0.17531  0.99457  1.0000
  H   H195      1.0  0.42688  0.07114  0.75153  1.0000
  H   H196      1.0  0.14073  0.48083  0.89934  1.0000
  H   H197      1.0  0.21696  0.38766  0.85683  1.0000
  H   H198      1.0  0.49334  0.04979  0.97524  1.0000
  H   H199      1.0  0.45775  0.08780  0.84436  1.0000
  H   H200      1.0  0.11590  0.40676  0.99997  1.0000
  H   H201      1.0  0.08335  0.49315  0.72267  1.0000
  H   H202      1.0  0.06015  0.48277  0.68961  1.0000
  S   S34       1.0  0.43902  0.00205  0.68804  1.0000
  H   H203      1.0  0.03373  0.49917  0.86337  1.0000
  C   C124      1.0  0.05915  0.49895  0.70945  1.0000
  H   H204      1.0  0.02021  0.61310  0.14419  1.0000
  H   H205      1.0  0.02540  0.50979  0.32421  1.0000
  Fe  Fe17      1.0  0.32477  0.66364  0.28550  1.0000
  S   S35       1.0  0.36483  0.67086  0.24915  1.0000
  Fe  Fe18      1.0  0.24262  0.65325  0.29779  1.0000
  S   S36       1.0  0.19136  0.62982  0.27601  1.0000
  H   H206      1.0  0.46749  0.52781  0.03966  1.0000
  S   S37       1.0  0.27703  0.70230  0.28598  1.0000
  S   S38       1.0  0.28992  0.61406  0.29382  1.0000
  H   H207      1.0  0.12063  0.70212  0.20160  1.0000
  C   C125      1.0  0.01472  0.68592  0.20297  1.0000
  C   C126      1.0  0.06690  0.64872  0.27651  1.0000
  C   C127      1.0  0.08203  0.61764  0.26393  1.0000
  C   C128      1.0  0.12010  0.61260  0.26394  1.0000
  C   C129      1.0  0.14361  0.63808  0.27701  1.0000
  C   C130      1.0  0.12849  0.66897  0.28990  1.0000
  C   C131      1.0  0.09036  0.67432  0.28948  1.0000
  H   H208      1.0  0.06447  0.59743  0.25418  1.0000
  H   H209      1.0  0.13150  0.58859  0.25396  1.0000
  H   H210      1.0  0.14620  0.68890  0.29993  1.0000
  H   H211      1.0  0.07902  0.69848  0.29930  1.0000
  C   C132      1.0  0.41306  0.67101  0.25081  1.0000
  C   C133      1.0  0.43221  0.65758  0.27404  1.0000
  C   C134      1.0  0.47066  0.65686  0.27372  1.0000
  C   C135      1.0  0.02595  0.64618  0.19611  1.0000
  C   C136      1.0  0.47104  0.68432  0.22755  1.0000
  C   C137      1.0  0.43269  0.68453  0.22769  1.0000
  H   H212      1.0  0.41739  0.64716  0.29199  1.0000
  H   H213      1.0  0.30277  0.53501  0.32906  1.0000
  H   H214      1.0  0.39770  0.71904  0.30810  1.0000
  H   H215      1.0  0.41809  0.69513  0.20968  1.0000
  H   H216      1.0  0.43359  0.93722  0.00976  1.0000
  H   H217      1.0  0.40180  0.74433  0.26616  1.0000
  H   H218      1.0  0.28193  0.79832  0.30870  1.0000
  S   S39       1.0  0.01901  0.65655  0.27662  1.0000
  N   N9        1.0  0.41031  0.79348  0.29144  1.0000
  C   C138      1.0  0.43260  0.58411  0.20197  1.0000
  C   C139      1.0  0.39184  0.77276  0.26771  1.0000
  H   H219      1.0  0.06143  0.63033  0.12963  1.0000
  H   H220      1.0  0.03303  0.69514  0.13460  1.0000
  C   C140      1.0  0.48860  0.93268  0.21462  1.0000
  C   C141      1.0  0.30192  0.85337  0.31566  1.0000
  H   H221      1.0  0.41594  0.56703  0.21635  1.0000
  H   H222      1.0  0.09069  0.67262  0.22074  1.0000
  H   H223      1.0  0.04657  0.52835  0.29303  1.0000
  C   C142      1.0  0.41338  0.85897  0.31249  1.0000
  H   H224      1.0  0.48527  0.64581  0.29154  1.0000
  C   C143      1.0  0.41122  0.73701  0.32385  1.0000
  H   H225      1.0  0.03619  0.70072  0.21497  1.0000
  H   H226      1.0  0.33627  0.79635  0.26657  1.0000
  H   H227      1.0  0.41971  0.61148  0.20075  1.0000
  H   H228      1.0  0.00733  0.70189  0.18417  1.0000
  C   C144      1.0  0.49055  0.52355  0.21726  1.0000
  H   H229      1.0  0.39934  0.84414  0.26963  1.0000
  H   H230      1.0  0.40555  0.85229  0.33444  1.0000
  H   H231      1.0  0.36643  0.83264  0.29541  1.0000
  H   H232      1.0  0.01067  0.66366  0.11151  1.0000
  Fe  Fe19      1.0  0.28934  0.70819  0.33240  1.0000
  C   C145      1.0  0.04467  0.53075  0.31636  1.0000
  C   C146      1.0  0.39605  0.83208  0.29101  1.0000
  C   C147      1.0  0.49025  0.66988  0.25036  1.0000
  N   N10       1.0  0.05566  0.64077  0.17441  1.0000
  H   H233      1.0  0.06820  0.54797  0.18914  1.0000
  C   C148      1.0  0.46901  0.76240  0.27147  1.0000
  H   H234      1.0  0.44105  0.73270  0.32353  1.0000
  H   H235      1.0  0.08644  0.60652  0.20299  1.0000
  C   C149      1.0  0.46350  0.98594  0.02152  1.0000
  H   H236      1.0  0.39868  0.78538  0.24706  1.0000
  C   C150      1.0  0.47687  0.92534  0.18377  1.0000
  C   C151      1.0  0.40149  0.77740  0.31982  1.0000
  C   C152      1.0  0.07597  0.60603  0.18094  1.0000
  H   H237      1.0  0.39629  0.99684  0.21924  1.0000
  H   H238      1.0  0.34028  0.75193  0.25163  1.0000
  H   H239      1.0  0.10051  0.60328  0.16725  1.0000
  H   H240      1.0  0.40262  0.88679  0.30844  1.0000
  C   C153      1.0  0.05393  0.57026  0.17789  1.0000
  H   H241      1.0  0.03368  0.63408  0.21669  1.0000
  C   C154      1.0  0.10692  0.67502  0.20119  1.0000
  C   C155      1.0  0.01765  0.66908  0.13396  1.0000
  H   H242      1.0  0.45876  0.81915  0.27380  1.0000
  H   H243      1.0  0.02624  0.57260  0.18692  1.0000
  H   H244      1.0  0.46582  0.79897  0.30723  1.0000
  C   C156      1.0  0.34993  0.76967  0.26925  1.0000
  H   H245      1.0  0.48025  0.52691  0.23923  1.0000
  H   H246      1.0  0.10234  0.66823  0.15622  1.0000
  C   C157      1.0  0.03958  0.63656  0.14523  1.0000
  H   H247      1.0  0.07014  0.69833  0.17096  1.0000
  H   H248      1.0  0.34066  0.75650  0.28895  1.0000
  H   H249      1.0  0.48129  0.61646  0.20786  1.0000
  H   H250      1.0  0.46176  0.76207  0.24871  1.0000
  C   C158      1.0  0.47178  0.58857  0.21328  1.0000
  H   H251      1.0  0.46904  0.58974  0.23660  1.0000
  H   H252      1.0  0.29277  0.86300  0.29533  1.0000
  C   C159      1.0  0.08323  0.67147  0.17431  1.0000
  H   H253      1.0  0.12876  0.65411  0.20151  1.0000
  H   H254      1.0  0.44344  0.86064  0.31076  1.0000
  H   H255      1.0  0.05177  0.56175  0.15542  1.0000
  H   H256      1.0  0.48567  0.69476  0.20955  1.0000
  H   H257      1.0  0.00076  0.63117  0.18970  1.0000
  H   H258      1.0  0.48436  0.89760  0.17633  1.0000
  C   C160      1.0  0.45116  0.79507  0.28682  1.0000
  C   C161      1.0  0.03181  0.56964  0.32412  1.0000
  H   H259      1.0  0.44670  0.92735  0.18236  1.0000
  C   C162      1.0  0.29591  0.81667  0.32310  1.0000
  H   H260      1.0  0.47791  0.54597  0.16303  1.0000
  H   H261      1.0  0.43103  0.57315  0.18027  1.0000
  H   H262      1.0  0.43689  0.51277  0.19685  1.0000
  H   H263      1.0  0.04266  0.58902  0.30833  1.0000
  H   H264      1.0  0.37198  0.78038  0.32456  1.0000
  H   H265      1.0  0.46304  0.98022  0.04386  1.0000
  H   H266      1.0  0.10461  0.58197  0.31926  1.0000
  H   H267      1.0  0.46167  0.73577  0.28063  1.0000
  S   S40       1.0  0.32862  0.92289  0.32299  1.0000
  H   H268      1.0  0.00198  0.56964  0.31976  1.0000
  C   C163      1.0  0.32004  0.87759  0.33413  1.0000
  H   H269      1.0  0.07231  0.52444  0.32415  1.0000
  H   H270      1.0  0.47758  0.96004  0.22005  1.0000
  H   H271      1.0  0.48949  0.61345  0.16021  1.0000
  C   C164      1.0  0.44665  0.96180  0.00222  1.0000
  S   S41       1.0  0.33847  0.67189  0.33109  1.0000
  H   H272      1.0  0.48785  0.94613  0.16915  1.0000
  C   C165      1.0  0.49001  0.51241  0.04976  1.0000
  H   H273      1.0  0.49503  0.92554  0.06364  1.0000
  H   H274      1.0  0.47342  0.91295  0.22805  1.0000
  H   H275      1.0  0.49021  0.97205  0.26510  1.0000
  H   H276      1.0  0.34532  0.88343  0.37481  1.0000
  C   C166      1.0  0.11921  0.56082  0.64159  1.0000
  H   H277      1.0  0.16537  0.50349  0.42398  1.0000
  H   H278      1.0  0.38501  0.51872  0.38472  1.0000
  S   S42       1.0  0.31161  0.58689  0.37592  1.0000
  Fe  Fe20      1.0  0.35909  0.96772  0.34699  1.0000
  S   S43       1.0  0.42012  0.96730  0.34988  1.0000
  H   H279      1.0  0.22722  0.51421  0.38022  1.0000
  C   C167      1.0  0.02887  0.62189  0.35653  1.0000
  N   N11       1.0  0.03930  0.58222  0.35389  1.0000
  H   H280      1.0  0.32402  0.97252  0.48334  1.0000
  C   C168      1.0  0.30751  0.53893  0.37420  1.0000
  H   H281      1.0  0.09836  0.51386  0.66213  1.0000
  H   H282      1.0  0.38777  0.87709  0.52649  1.0000
  H   H283      1.0  0.42889  0.89576  0.51077  1.0000
  H   H284      1.0  0.42487  0.86774  0.42063  1.0000
  H   H285      1.0  0.48953  0.51007  0.44093  1.0000
  C   C169      1.0  0.30404  0.52003  0.34862  1.0000
  H   H286      1.0  0.02643  0.52970  0.37213  1.0000
  H   H287      1.0  0.12028  0.59088  0.64336  1.0000
  H   H288      1.0  0.48582  0.97430  0.52671  1.0000
  H   H289      1.0  0.45975  0.63119  0.62267  1.0000
  S   S44       1.0  0.44787  0.96884  0.42761  1.0000
  H   H290      1.0  0.42162  0.51806  0.36022  1.0000
  C   C170      1.0  0.01726  0.55860  0.37342  1.0000
  S   S45       1.0  0.35106  0.98820  0.39140  1.0000
  C   C171      1.0  0.07908  0.57880  0.36148  1.0000
  C   C172      1.0  0.48356  0.57564  0.62060  1.0000
  H   H291      1.0  0.11190  0.55535  0.61920  1.0000
  C   C173      1.0  0.46829  0.98585  0.51074  1.0000
  C   C174      1.0  0.46945  0.97255  0.48285  1.0000
  C   C175      1.0  0.10619  0.59537  0.34024  1.0000
  S   S46       1.0  0.29941  0.75848  0.36022  1.0000
  H   H292      1.0  0.13447  0.59143  0.34805  1.0000
  C   C176      1.0  0.32482  0.82845  0.36812  1.0000
  H   H293      1.0  0.45120  0.92166  0.66346  1.0000
  H   H294      1.0  0.37318  0.50619  0.42965  1.0000
  H   H295      1.0  0.43083  0.60181  0.65699  1.0000
  N   N12       1.0  0.36696  0.90643  0.47209  1.0000
  C   C177      1.0  0.37842  0.92513  0.49926  1.0000
  C   C178      1.0  0.35141  0.93545  0.45320  1.0000
  C   C179      1.0  0.40049  0.88983  0.45877  1.0000
  C   C180      1.0  0.33935  0.87736  0.47931  1.0000
  C   C181      1.0  0.40178  0.90239  0.51974  1.0000
  C   C182      1.0  0.31753  0.95552  0.46453  1.0000
  C   C183      1.0  0.39913  0.88147  0.42682  1.0000
  C   C184      1.0  0.32027  0.85726  0.45460  1.0000
  H   H296      1.0  0.39430  0.95037  0.49481  1.0000
  H   H297      1.0  0.35431  0.93436  0.51155  1.0000
  H   H298      1.0  0.34378  0.92459  0.43215  1.0000
  H   H299      1.0  0.37256  0.95654  0.44878  1.0000
  H   H300      1.0  0.42441  0.90833  0.46166  1.0000
  S   S47       1.0  0.46808  0.96817  0.61720  1.0000
  H   H301      1.0  0.35232  0.85560  0.49206  1.0000
  H   H302      1.0  0.31782  0.88814  0.49361  1.0000
  H   H303      1.0  0.04777  0.60212  0.64806  1.0000
  H   H304      1.0  0.06397  0.54167  0.64899  1.0000
  H   H305      1.0  0.40710  0.91897  0.53906  1.0000
  N   N13       1.0  0.47218  0.56105  0.64902  1.0000
  C   C185      1.0  0.48603  0.61762  0.61810  1.0000
  H   H306      1.0  0.30759  0.97458  0.44811  1.0000
  H   H307      1.0  0.29481  0.93646  0.46915  1.0000
  H   H308      1.0  0.14667  0.54937  0.64578  1.0000
  H   H309      1.0  0.08677  0.54981  0.36486  1.0000
  H   H310      1.0  0.33546  0.83223  0.44855  1.0000
  H   H311      1.0  0.31587  0.87407  0.43568  1.0000
  H   H312      1.0  0.29243  0.84893  0.46124  1.0000
  H   H313      1.0  0.41596  0.56654  0.63478  1.0000
  H   H314      1.0  0.42430  0.50382  0.62995  1.0000
  Fe  Fe21      1.0  0.29964  0.62566  0.33977  1.0000
  C   C186      1.0  0.30912  0.51918  0.39942  1.0000
  C   C187      1.0  0.33152  0.86497  0.36043  1.0000
  C   C188      1.0  0.44676  0.98734  0.46197  1.0000
  H   H315      1.0  0.40141  0.72822  0.34490  1.0000
  H   H316      1.0  0.40795  0.86395  0.46948  1.0000
  H   H317      1.0  0.03778  0.63355  0.37717  1.0000
  H   H318      1.0  0.39785  0.90683  0.41418  1.0000
  H   H319      1.0  0.31150  0.53374  0.41928  1.0000
  H   H320      1.0  0.37661  0.86299  0.42073  1.0000
  C   C189      1.0  0.01831  0.56951  0.40487  1.0000
  C   C190      1.0  0.21422  0.51836  0.40110  1.0000
  Fe  Fe22      1.0  0.41233  0.99205  0.39302  1.0000
  H   H321      1.0  0.46444  0.56646  0.60373  1.0000
  H   H322      1.0  0.33342  0.81891  0.38860  1.0000
  H   H323      1.0  0.10233  0.62517  0.33790  1.0000
  C   C191      1.0  0.30716  0.80408  0.34946  1.0000
  H   H324      1.0  0.08484  0.59250  0.38205  1.0000
  H   H325      1.0  0.20631  0.54758  0.40222  1.0000
  H   H326      1.0  0.46143  0.50826  0.47242  1.0000
  H   H327      1.0  0.00711  0.59717  0.40864  1.0000
  H   H328      1.0  0.41101  0.52512  0.44742  1.0000
  H   H329      1.0  0.23461  0.51399  0.41796  1.0000
  C   C192      1.0  0.47757  0.52024  0.64808  1.0000
  S   S48       1.0  0.25103  0.66232  0.34444  1.0000
  H   H330      1.0  0.04615  0.56762  0.41383  1.0000
  C   C193      1.0  0.43299  0.57175  0.65388  1.0000
  H   H331      1.0  0.43866  0.87394  0.66020  1.0000
  C   C194      1.0  0.09034  0.54304  0.66071  1.0000
  H   H332      1.0  0.44665  0.52210  0.40759  1.0000
  H   H333      1.0  0.46130  0.50572  0.60451  1.0000
  H   H334      1.0  0.48794  0.95066  0.47744  1.0000
  H   H335      1.0  0.36571  0.50471  0.48087  1.0000
  H   H336      1.0  0.16162  0.50167  0.38680  1.0000
  H   H337      1.0  0.49351  0.62459  0.59609  1.0000
  C   C195      1.0  0.40822  0.50212  0.37715  1.0000
  H   H338      1.0  0.41580  0.79249  0.33701  1.0000
  H   H339      1.0  0.04324  0.63848  0.34037  1.0000
  H   H340      1.0  0.00084  0.55021  0.41685  1.0000
  H   H341      1.0  0.11210  0.55116  0.73031  1.0000
  S   S49       1.0  0.02680  0.62537  0.75962  1.0000
  Fe  Fe23      1.0  0.31019  0.63761  0.79063  1.0000
  S   S50       1.0  0.33069  0.65480  0.83341  1.0000
  S   S51       1.0  0.34402  0.63760  0.75054  1.0000
  Fe  Fe24      1.0  0.23439  0.61593  0.81267  1.0000
  S   S52       1.0  0.24952  0.63251  0.85693  1.0000
  S   S53       1.0  0.18377  0.58052  0.80493  1.0000
  Fe  Fe25      1.0  0.27625  0.68217  0.83772  1.0000
  S   S54       1.0  0.27008  0.73648  0.86128  1.0000
  Fe  Fe26      1.0  0.30249  0.60408  0.84890  1.0000
  S   S55       1.0  0.32787  0.56875  0.88274  1.0000
  S   S56       1.0  0.25674  0.66782  0.79373  1.0000
  S   S57       1.0  0.28642  0.58471  0.80584  1.0000
  Fe  Fe27      1.0  0.36195  0.93778  0.85563  1.0000
  S   S58       1.0  0.42155  0.93503  0.86636  1.0000
  S   S59       1.0  0.34149  0.88993  0.82867  1.0000
  H   H342      1.0  0.47278  0.55377  0.70967  1.0000
  H   H343      1.0  0.07719  0.56370  0.92591  1.0000
  C   C196      1.0  0.44588  0.96983  0.97329  1.0000
  C   C197      1.0  0.32536  0.52066  0.88092  1.0000
  C   C198      1.0  0.41310  0.55475  0.67930  1.0000
  C   C199      1.0  0.43506  0.89926  0.67280  1.0000
  H   H344      1.0  0.30495  0.51798  0.83838  1.0000
  H   H345      1.0  0.34563  0.51402  0.92324  1.0000
  C   C200      1.0  0.28997  0.77891  0.85169  1.0000
  C   C201      1.0  0.31254  0.78236  0.82812  1.0000
  C   C202      1.0  0.32800  0.81654  0.82141  1.0000
  C   C203      1.0  0.32161  0.84750  0.83838  1.0000
  C   C204      1.0  0.29903  0.84407  0.86197  1.0000
  C   C205      1.0  0.28330  0.80996  0.86855  1.0000
  H   H346      1.0  0.31776  0.75879  0.81488  1.0000
  H   H347      1.0  0.34501  0.81897  0.80291  1.0000
  H   H348      1.0  0.29312  0.86782  0.87480  1.0000
  H   H349      1.0  0.26563  0.80763  0.88669  1.0000
  C   C206      1.0  0.07041  0.61243  0.77200  1.0000
  C   C207      1.0  0.07840  0.57626  0.77880  1.0000
  C   C208      1.0  0.11336  0.56703  0.78867  1.0000
  C   C209      1.0  0.14072  0.59377  0.79173  1.0000
  C   C210      1.0  0.13281  0.62990  0.78482  1.0000
  C   C211      1.0  0.09779  0.63914  0.77497  1.0000
  H   H350      1.0  0.05769  0.55539  0.77653  1.0000
  H   H351      1.0  0.11929  0.53899  0.79397  1.0000
  H   H352      1.0  0.15361  0.65076  0.78717  1.0000
  H   H353      1.0  0.09186  0.66722  0.76975  1.0000
  C   C212      1.0  0.39171  0.64366  0.75253  1.0000
  C   C213      1.0  0.40940  0.64813  0.77844  1.0000
  H   H354      1.0  0.49398  0.90777  0.78084  1.0000
  H   H355      1.0  0.02446  0.61389  0.89367  1.0000
  N   N14       1.0  0.05603  0.57653  0.86787  1.0000
  C   C214      1.0  0.41251  0.64241  0.72771  1.0000
  H   H356      1.0  0.39369  0.64990  0.79759  1.0000
  H   H357      1.0  0.23243  0.50538  0.91426  1.0000
  H   H358      1.0  0.48825  0.55399  0.83116  1.0000
  H   H359      1.0  0.39888  0.63989  0.70754  1.0000
  H   H360      1.0  0.04743  0.55352  0.72420  1.0000
  C   C215      1.0  0.08086  0.60684  0.85765  1.0000
  H   H361      1.0  0.44797  0.90739  0.76697  1.0000
  H   H362      1.0  0.44761  0.83373  0.84630  1.0000
  H   H363      1.0  0.40599  0.85665  0.85295  1.0000
  H   H364      1.0  0.42653  0.87252  0.71275  1.0000
  H   H365      1.0  0.42193  0.52685  0.68452  1.0000
  H   H366      1.0  0.09992  0.61616  0.68127  1.0000
  H   H367      1.0  0.48891  0.60684  0.67522  1.0000
  S   S60       1.0  0.42399  0.93968  0.94949  1.0000
  H   H368      1.0  0.40685  0.80744  0.84982  1.0000
  H   H369      1.0  0.12619  0.60267  0.88887  1.0000
  C   C216      1.0  0.00416  0.60508  0.83816  1.0000
  C   C217      1.0  0.12158  0.60503  0.86595  1.0000
  H   H370      1.0  0.03760  0.55928  0.82638  1.0000
  C   C218      1.0  0.47300  0.56014  0.81147  1.0000
  H   H371      1.0  0.44579  0.82070  0.69102  1.0000
  H   H372      1.0  0.47026  0.85433  0.74702  1.0000
  C   C219      1.0  0.48803  0.87768  0.74105  1.0000
  C   C220      1.0  0.06327  0.58978  0.92133  1.0000
  C   C221      1.0  0.42760  0.56274  0.86476  1.0000
  H   H373      1.0  0.43652  0.91958  0.71513  1.0000
  C   C222      1.0  0.05435  0.50742  0.87934  1.0000
  C   C223      1.0  0.42276  0.99156  0.74339  1.0000
  H   H374      1.0  0.22139  0.51591  0.86064  1.0000
  C   C224      1.0  0.20301  0.50173  0.87570  1.0000
  H   H375      1.0  0.49381  0.94424  0.70662  1.0000
  H   H376      1.0  0.13539  0.58206  0.85502  1.0000
  H   H377      1.0  0.17415  0.57137  0.71832  1.0000
  C   C225      1.0  0.41788  0.54873  0.78346  1.0000
  C   C226      1.0  0.45083  0.64398  0.72892  1.0000
  C   C227      1.0  0.04394  0.61007  0.67045  1.0000
  H   H378      1.0  0.14180  0.60733  0.71728  1.0000
  H   H379      1.0  0.40595  0.90721  0.67112  1.0000
  Fe  Fe28      1.0  0.40661  0.96245  0.90718  1.0000
  C   C228      1.0  0.02622  0.57087  0.84623  1.0000
  H   H380      1.0  0.04110  0.51156  0.90011  1.0000
  H   H381      1.0  0.47685  0.80655  0.71874  1.0000
  H   H382      1.0  0.00580  0.55060  0.85358  1.0000
  H   H383      1.0  0.09972  0.54341  0.88519  1.0000
  H   H384      1.0  0.46668  0.64297  0.70985  1.0000
  C   C229      1.0  0.47731  0.90906  0.76130  1.0000
  H   H385      1.0  0.41352  0.59530  0.82856  1.0000
  H   H386      1.0  0.47213  0.59044  0.81029  1.0000
  H   H387      1.0  0.42584  0.53430  0.87254  1.0000
  C   C230      1.0  0.44764  0.64953  0.77964  1.0000
  H   H388      1.0  0.36237  0.52676  0.79210  1.0000
  H   H389      1.0  0.07167  0.60994  0.71065  1.0000
  C   C231      1.0  0.15013  0.58165  0.70650  1.0000
  H   H390      1.0  0.41568  0.57250  0.69828  1.0000
  H   H391      1.0  0.08324  0.61231  0.91931  1.0000
  H   H392      1.0  0.02141  0.62716  0.82938  1.0000
  H   H393      1.0  0.42715  0.57465  0.77363  1.0000
  H   H394      1.0  0.48258  0.93633  0.75241  1.0000
  H   H395      1.0  0.38459  0.55795  0.83480  1.0000
  C   C232      1.0  0.07680  0.59945  0.68893  1.0000
  H   H396      1.0  0.04091  0.64024  0.67110  1.0000
  H   H397      1.0  0.08939  0.53423  0.84935  1.0000
  H   H398      1.0  0.43976  0.76785  0.93479  1.0000
  C   C233      1.0  0.03823  0.58701  0.89537  1.0000
  C   C234      1.0  0.05409  0.54012  0.70369  1.0000
  N   N15       1.0  0.39733  0.82464  0.90896  1.0000
  C   C235      1.0  0.37606  0.85982  0.90752  1.0000
  C   C236      1.0  0.42996  0.82890  0.88989  1.0000
  C   C237      1.0  0.40934  0.81989  0.93922  1.0000
  C   C238      1.0  0.37249  0.79392  0.89965  1.0000
  C   C239      1.0  0.34338  0.86321  0.92789  1.0000
  C   C240      1.0  0.42155  0.83178  0.85808  1.0000
  H   H399      1.0  0.15919  0.58757  0.68479  1.0000
  C   C241      1.0  0.38946  0.75578  0.89590  1.0000
  H   H400      1.0  0.39419  0.88367  0.91185  1.0000
  H   H401      1.0  0.36505  0.86431  0.88606  1.0000
  H   H402      1.0  0.44924  0.80589  0.89185  1.0000
  N   N16       1.0  0.08578  0.55928  0.68976  1.0000
  C   C242      1.0  0.42953  0.99218  0.77252  1.0000
  H   H403      1.0  0.38646  0.80918  0.95222  1.0000
  H   H404      1.0  0.34979  0.79017  0.91486  1.0000
  H   H405      1.0  0.35822  0.80068  0.87971  1.0000
  H   H406      1.0  0.35200  0.86296  0.95031  1.0000
  H   H407      1.0  0.32993  0.88988  0.92440  1.0000
  H   H408      1.0  0.32231  0.84202  0.92397  1.0000
  S   S61       1.0  0.36626  0.99349  0.83578  1.0000
  C   C243      1.0  0.44482  0.89399  0.70410  1.0000
  H   H409      1.0  0.01629  0.56732  0.90066  1.0000
  C   C244      1.0  0.44244  0.79509  0.94469  1.0000
  C   C245      1.0  0.49701  0.85289  0.69342  1.0000
  H   H410      1.0  0.46113  0.65267  0.79981  1.0000
  H   H411      1.0  0.38814  0.74014  0.91584  1.0000
  H   H412      1.0  0.41772  0.75621  0.88796  1.0000
  H   H413      1.0  0.37371  0.74050  0.87953  1.0000
  N   N17       1.0  0.43487  0.54430  0.81233  1.0000
  C   C246      1.0  0.41380  0.56578  0.83414  1.0000
  H   H414      1.0  0.04626  0.59616  0.94009  1.0000
  H   H415      1.0  0.01807  0.59866  0.67845  1.0000
  N   N18       1.0  0.48425  0.88565  0.71007  1.0000
  H   H416      1.0  0.40882  0.98272  0.78685  1.0000
  C   C247      1.0  0.37592  0.55009  0.78178  1.0000
  H   H417      1.0  0.46812  0.80834  0.93767  1.0000
  C   C248      1.0  0.46851  0.64641  0.75499  1.0000
  H   H418      1.0  0.41686  0.84684  0.94883  1.0000
  Fe  Fe29      1.0  0.42505  0.99143  0.84862  1.0000
  S   S62       1.0  0.34648  0.96141  0.89787  1.0000
  H   H419      1.0  0.08120  0.60779  0.83421  1.0000
  H   H420      1.0  0.13191  0.52596  0.70237  1.0000
  H   H421      1.0  0.07049  0.63409  0.86434  1.0000
  C   C249      1.0  0.07669  0.54110  0.87007  1.0000
  H   H422      1.0  0.13550  0.63037  0.85885  1.0000
  H   H423      1.0  0.44607  0.85356  0.89617  1.0000
  H   H424      1.0  0.36738  0.54992  0.75928  1.0000
  C   C250      1.0  0.11940  0.55282  0.70760  1.0000
  H   H425      1.0  0.18450  0.52239  0.88509  1.0000
  H   H426      1.0  0.44519  0.79084  0.96777  1.0000
  H   H427      1.0  0.40969  0.57943  0.87860  1.0000
  C   C251      1.0  0.47477  0.81741  0.69705  1.0000
  H   H428      1.0  0.36556  0.57603  0.79092  1.0000
  H   H429      1.0  0.42701  0.52667  0.76886  1.0000
  H   H430      1.0  0.45559  0.57365  0.86745  1.0000
  H   H431      1.0  0.02896  0.54205  0.69072  1.0000
  H   H432      1.0  0.38361  0.55205  0.67424  1.0000
  H   H433      1.0  0.48630  0.79619  0.68281  1.0000
  H   H434      1.0  0.48681  0.55564  0.76610  1.0000
  C   C252      1.0  0.43808  0.50448  0.81976  1.0000
  H   H435      1.0  0.39659  0.98212  0.73561  1.0000
  C   C253      1.0  0.31369  0.50251  0.85646  1.0000
  C   C254      1.0  0.33659  0.50014  0.90425  1.0000
  C   C255      1.0  0.49683  0.57808  0.67106  1.0000
  C   C256      1.0  0.49750  0.54715  0.78692  1.0000
  H   H436      1.0  0.49766  0.85890  0.67045  1.0000
  H   H437      1.0  0.45587  0.50037  0.83853  1.0000
  H   H438      1.0  0.49767  0.52348  0.99510  1.0000
  H   H439      1.0  0.38153  0.49962  0.83548  1.0000
  H   H440      1.0  0.47281  0.50733  0.66879  1.0000
  Fe  Fe30      1.0  0.54746  0.08643  0.12745  1.0000
  C   C257      1.0  0.52583  0.21275  0.04658  1.0000
  S   S63       1.0  0.56417  0.14448  0.14006  1.0000
  C   C258      1.0  0.93541  0.42358  0.14136  1.0000
  Fe  Fe31      1.0  0.55912  0.00240  0.12405  1.0000
  C   C259      1.0  0.51679  0.27239  0.08518  1.0000
  H   H441      1.0  0.51306  0.15614  0.03662  1.0000
  Fe  Fe32      1.0  0.51095  0.04087  0.08140  1.0000
  S   S64       1.0  0.94872  0.47009  0.01130  1.0000
  C   C260      1.0  0.82866  0.36398  0.01498  1.0000
  H   H442      1.0  0.89887  0.48901  0.06141  1.0000
  H   H443      1.0  0.54729  0.20487  0.06206  1.0000
  Fe  Fe33      1.0  0.64766  0.32842  0.06986  1.0000
  S   S65       1.0  0.66243  0.34916  0.02661  1.0000
  S   S66       1.0  0.65048  0.26604  0.07053  1.0000
  Fe  Fe34      1.0  0.62918  0.40614  0.09046  1.0000
  S   S67       1.0  0.64074  0.43048  0.04829  1.0000
  S   S68       1.0  0.61177  0.44210  0.12755  1.0000
  Fe  Fe35      1.0  0.61113  0.38175  0.03060  1.0000
  H   H444      1.0  0.85092  0.48252  0.06889  1.0000
  Fe  Fe36      1.0  0.69123  0.39559  0.04855  1.0000
  S   S69       1.0  0.74250  0.42821  0.03730  1.0000
  S   S70       1.0  0.59520  0.35966  0.07277  1.0000
  S   S71       1.0  0.68079  0.37272  0.09178  1.0000
  H   H445      1.0  0.56830  0.27797  0.06564  1.0000
  H   H446      1.0  0.84757  0.41430  0.06882  1.0000
  H   H447      1.0  0.86957  0.47735  0.12181  1.0000
  C   C261      1.0  0.78573  0.41232  0.02627  1.0000
  C   C262      1.0  0.53192  0.45086  0.07239  1.0000
  H   H448      1.0  0.53435  0.30560  0.05039  1.0000
  H   H449      1.0  0.55579  0.43411  0.07850  1.0000
  S   S72       1.0  0.54345  0.04078  0.15917  1.0000
  C   C263      1.0  0.53951  0.27754  0.05809  1.0000
  H   H450      1.0  0.57167  0.22187  0.14774  1.0000
  H   H451      1.0  0.58944  0.30417  0.02357  1.0000
  H   H452      1.0  0.60459  0.27012  0.12117  1.0000
  C   C264      1.0  0.51129  0.36865  0.02395  1.0000
  H   H453      1.0  0.94546  0.36967  0.09139  1.0000
  H   H454      1.0  0.90571  0.42741  0.05709  1.0000
  S   S73       1.0  0.56957  0.04887  0.09403  1.0000
  H   H455      1.0  0.52652  0.24852  0.09734  1.0000
  C   C265      1.0  0.58654  0.17813  0.11944  1.0000
  C   C266      1.0  0.60563  0.16925  0.09485  1.0000
  C   C267      1.0  0.62497  0.19653  0.08019  1.0000
  C   C268      1.0  0.62479  0.23311  0.08952  1.0000
  C   C269      1.0  0.60482  0.24219  0.11363  1.0000
  C   C270      1.0  0.58617  0.21475  0.12865  1.0000
  H   H456      1.0  0.60642  0.14119  0.08763  1.0000
  H   H457      1.0  0.64049  0.18917  0.06165  1.0000
  H   H458      1.0  0.85222  0.35635  0.09972  1.0000
  N   N19       1.0  0.88812  0.42806  0.10081  1.0000
  H   H459      1.0  0.80729  0.46690  0.02263  1.0000
  H   H460      1.0  0.82921  0.43702  0.09832  1.0000
  H   H461      1.0  0.52811  0.37164  0.04251  1.0000
  C   C271      1.0  0.58586  0.28286  0.00712  1.0000
  H   H462      1.0  0.59156  0.23481  0.03274  1.0000
  H   H463      1.0  0.94179  0.40615  0.15978  1.0000
  C   C272      1.0  0.83465  0.38016  0.10393  1.0000
  C   C273      1.0  0.85619  0.38974  0.00950  1.0000
  H   H464      1.0  0.57399  0.01401  0.03713  1.0000
  C   C274      1.0  0.52216  0.18098  0.02521  1.0000
  S   S74       1.0  0.50019  0.04999  0.03493  1.0000
  C   C275      1.0  0.60813  0.49016  0.12456  1.0000
  C   C276      1.0  0.81320  0.43810  0.02052  1.0000
  C   C277      1.0  0.89833  0.41162  0.12881  1.0000
  C   C278      1.0  0.79360  0.37517  0.02346  1.0000
  H   H465      1.0  0.89903  0.38134  0.12744  1.0000
  H   H466      1.0  0.93453  0.45206  0.14946  1.0000
  H   H467      1.0  0.80797  0.37428  0.09361  1.0000
  H   H468      1.0  0.52056  0.29673  0.09902  1.0000
  H   H469      1.0  0.82929  0.38240  0.12690  1.0000
  C   C279      1.0  0.84992  0.41630  0.09207  1.0000
  C   C280      1.0  0.84832  0.42691  0.01232  1.0000
  N   N20       1.0  0.50608  0.48531  0.02930  1.0000
  H   H470      1.0  0.77266  0.35507  0.02774  1.0000
  H   H471      1.0  0.86919  0.44704  0.00812  1.0000
  H   H472      1.0  0.95819  0.42048  0.12624  1.0000
  C   C281      1.0  0.92496  0.37778  0.07539  1.0000
  C   C282      1.0  0.88820  0.46906  0.10437  1.0000
  C   C283      1.0  0.53772  0.46502  0.04218  1.0000
  H   H473      1.0  0.94149  0.43334  0.08209  1.0000
  N   N21       1.0  0.53451  0.24982  0.03452  1.0000
  H   H474      1.0  0.87728  0.41840  0.14492  1.0000
  C   C284      1.0  0.50596  0.26226  0.01378  1.0000
  H   H475      1.0  0.83443  0.33516  0.01269  1.0000
  C   C285      1.0  0.91541  0.41847  0.07818  1.0000
  H   H476      1.0  0.93863  0.37349  0.05477  1.0000
  H   H477      1.0  0.90088  0.35973  0.07511  1.0000
  H   H478      1.0  0.54871  0.17399  0.01546  1.0000
  C   C286      1.0  0.57022  0.24680  0.01889  1.0000
  H   H479      1.0  0.61236  0.49125  0.07940  1.0000
  H   H480      1.0  0.50748  0.43315  0.07406  1.0000
  H   H481      1.0  0.62107  0.02518  0.03683  1.0000
  H   H482      1.0  0.54489  0.44082  0.02910  1.0000
  H   H483      1.0  0.50151  0.18646  0.00873  1.0000
  H   H484      1.0  0.56311  0.48172  0.04226  1.0000
  H   H485      1.0  0.53041  0.47352  0.08798  1.0000
  H   H486      1.0  0.50061  0.06947  0.25572  1.0000
  H   H487      1.0  0.50003  0.21309  0.05874  1.0000
  S   S75       1.0  0.95527  0.49312  0.29709  1.0000
  H   H488      1.0  0.91564  0.47936  0.11051  1.0000
  H   H489      1.0  0.51215  0.29027  0.00620  1.0000
  C   C287      1.0  0.60101  0.00381  0.03051  1.0000
  C   C288      1.0  0.94612  0.49843  0.33350  1.0000
  H   H490      1.0  0.60238  0.00156  0.00721  1.0000
  C   C289      1.0  0.87757  0.49098  0.07789  1.0000
  C   C290      1.0  0.99798  0.49226  0.09965  1.0000
  H   H491      1.0  0.60353  0.49868  0.16942  1.0000
  Fe  Fe37      1.0  0.94429  0.47421  0.46129  1.0000
  S   S76       1.0  0.94474  0.41369  0.45569  1.0000
  H   H492      1.0  0.94477  0.34001  0.49664  1.0000
  H   H493      1.0  0.58517  0.11147  0.55734  1.0000
  C   C291      1.0  0.82047  0.40537  0.53506  1.0000
  H   H494      1.0  0.78210  0.42991  0.56389  1.0000
  H   H495      1.0  0.84153  0.42553  0.53897  1.0000
  H   H496      1.0  0.55411  0.07570  0.56274  1.0000
  N   N22       1.0  0.69841  0.46577  0.63307  1.0000
  H   H497      1.0  0.62415  0.13468  0.52506  1.0000
  H   H498      1.0  0.80619  0.40779  0.37020  1.0000
  H   H499      1.0  0.61874  0.15696  0.49210  1.0000
  Fe  Fe38      1.0  0.54515  0.03981  0.62156  1.0000
  H   H500      1.0  0.86260  0.46044  0.66056  1.0000
  S   S77       1.0  0.58953  0.08411  0.62086  1.0000
  C   C292      1.0  0.82562  0.40193  0.42335  1.0000
  H   H501      1.0  0.96815  0.42799  0.63981  1.0000
  C   C293      1.0  0.70897  0.47800  0.60386  1.0000
  H   H502      1.0  0.51277  0.14049  0.51002  1.0000
  H   H503      1.0  0.72197  0.45527  0.59199  1.0000
  Fe  Fe39      1.0  0.91778  0.41116  0.49817  1.0000
  S   S78       1.0  0.86984  0.37101  0.49902  1.0000
  S   S79       1.0  0.91399  0.47197  0.50243  1.0000
  Fe  Fe40      1.0  0.59893  0.30318  0.57414  1.0000
  S   S80       1.0  0.62856  0.31954  0.53431  1.0000
  S   S81       1.0  0.56781  0.24885  0.57949  1.0000
  Fe  Fe41      1.0  0.59186  0.38462  0.59303  1.0000
  S   S82       1.0  0.61873  0.40542  0.55398  1.0000
  S   S83       1.0  0.57305  0.42072  0.62939  1.0000
  Fe  Fe42      1.0  0.58556  0.36294  0.53099  1.0000
  S   S84       1.0  0.55456  0.36898  0.48995  1.0000
  Fe  Fe43      1.0  0.65985  0.36077  0.56108  1.0000
  S   S85       1.0  0.71771  0.38534  0.56417  1.0000
  S   S86       1.0  0.55532  0.34589  0.56949  1.0000
  S   S87       1.0  0.63337  0.34102  0.60142  1.0000
  C   C294      1.0  0.82715  0.37642  0.51640  1.0000
  C   C295      1.0  0.79937  0.35044  0.51163  1.0000
  C   C296      1.0  0.76534  0.35321  0.52536  1.0000
  C   C297      1.0  0.75891  0.38172  0.54448  1.0000
  C   C298      1.0  0.78669  0.40778  0.54917  1.0000
  H   H504      1.0  0.80421  0.32786  0.49733  1.0000
  H   H505      1.0  0.74440  0.33284  0.52166  1.0000
  H   H506      1.0  0.65639  0.47081  0.58145  1.0000
  H   H507      1.0  0.97385  0.44019  0.58843  1.0000
  H   H508      1.0  0.65036  0.43663  0.61872  1.0000
  H   H509      1.0  0.74028  0.39977  0.64588  1.0000
  H   H510      1.0  0.64030  0.14360  0.61331  1.0000
  C   C299      1.0  0.96240  0.47480  0.35303  1.0000
  C   C300      1.0  0.57767  0.46871  0.62838  1.0000
  C   C301      1.0  0.87861  0.49802  0.57752  1.0000
  H   H511      1.0  0.84655  0.39943  0.44030  1.0000
  C   C302      1.0  0.67591  0.49423  0.64797  1.0000
  C   C303      1.0  0.58294  0.13075  0.61152  1.0000
  C   C304      1.0  0.54839  0.14458  0.60526  1.0000
  C   C305      1.0  0.54445  0.18088  0.59598  1.0000
  C   C306      1.0  0.57490  0.20404  0.59290  1.0000
  C   C307      1.0  0.60946  0.19040  0.59942  1.0000
  C   C308      1.0  0.61340  0.15397  0.60863  1.0000
  H   H512      1.0  0.52469  0.12723  0.60751  1.0000
  H   H513      1.0  0.51756  0.19112  0.59122  1.0000
  H   H514      1.0  0.63318  0.20775  0.59713  1.0000
  H   H515      1.0  0.95779  0.32771  0.54582  1.0000
  H   H516      1.0  0.88241  0.37763  0.38777  1.0000
  H   H517      1.0  0.63800  0.42618  0.66621  1.0000
  H   H518      1.0  0.87649  0.46148  0.38397  1.0000
  H   H519      1.0  0.54109  0.28966  0.51924  1.0000
  C   C309      1.0  0.88207  0.40390  0.37633  1.0000
  N   N23       1.0  0.55194  0.09897  0.52077  1.0000
  H   H520      1.0  0.53803  0.15007  0.54123  1.0000
  C   C310      1.0  0.97837  0.25141  0.49620  1.0000
  C   C311      1.0  0.52840  0.27088  0.50354  1.0000
  H   H521      1.0  0.62361  0.06804  0.52659  1.0000
  H   H522      1.0  0.55378  0.04606  0.50010  1.0000
  H   H523      1.0  0.91104  0.31700  0.53989  1.0000
  H   H524      1.0  0.91045  0.40892  0.36910  1.0000
  C   C312      1.0  0.75505  0.42547  0.64104  1.0000
  C   C313      1.0  0.94148  0.23084  0.49396  1.0000
  C   C314      1.0  0.66378  0.41384  0.65854  1.0000
  H   H525      1.0  0.94946  0.25602  0.43936  1.0000
  C   C315      1.0  0.97211  0.45567  0.63255  1.0000
  C   C316      1.0  0.57748  0.11515  0.49926  1.0000
  H   H526      1.0  0.51379  0.23277  0.53591  1.0000
  C   C317      1.0  0.67594  0.43137  0.63052  1.0000
  C   C318      1.0  0.93928  0.30846  0.53458  1.0000
  H   H527      1.0  0.94319  0.28051  0.54275  1.0000
  H   H528      1.0  0.95501  0.29605  0.41888  1.0000
  C   C319      1.0  0.60348  0.14543  0.51020  1.0000
  C   C320      1.0  0.97536  0.46248  0.60347  1.0000
  H   H529      1.0  0.82958  0.37681  0.41044  1.0000
  C   C321      1.0  0.97291  0.48456  0.65218  1.0000
  H   H530      1.0  0.65931  0.38412  0.65514  1.0000
  H   H531      1.0  0.88985  0.43627  0.41363  1.0000
  H   H532      1.0  0.76939  0.38071  0.42287  1.0000
  H   H533      1.0  0.98007  0.45323  0.34557  1.0000
  H   H534      1.0  0.99796  0.23764  0.48173  1.0000
  H   H535      1.0  0.76236  0.42557  0.61837  1.0000
  H   H536      1.0  0.86500  0.40158  0.35710  1.0000
  H   H537      1.0  0.58874  0.16837  0.52034  1.0000
  C   C322      1.0  0.78727  0.39793  0.43650  1.0000
  H   H538      1.0  0.68892  0.49845  0.56385  1.0000
  S   S88       1.0  0.97182  0.40734  0.52120  1.0000
  H   H539      1.0  0.56190  0.12754  0.48164  1.0000
  C   C323      1.0  0.98036  0.49821  0.59401  1.0000
  H   H540      1.0  0.68952  0.41023  0.61733  1.0000
  H   H541      1.0  0.96897  0.46095  0.39706  1.0000
  H   H542      1.0  0.61731  0.05475  0.56236  1.0000
  C   C324      1.0  0.57260  0.08747  0.54669  1.0000
  C   C325      1.0  0.81058  0.46488  0.35927  1.0000
  C   C326      1.0  0.50721  0.37591  0.49287  1.0000
  C   C327      1.0  0.60289  0.05900  0.54200  1.0000
  C   C328      1.0  0.94992  0.28624  0.44065  1.0000
  C   C329      1.0  0.80532  0.43459  0.38139  1.0000
  Fe  Fe44      1.0  0.96951  0.46891  0.52238  1.0000
  H   H543      1.0  0.84028  0.49830  0.46171  1.0000
  H   H544      1.0  0.86990  0.46132  0.45317  1.0000
  C   C330      1.0  0.52453  0.12762  0.52917  1.0000
  H   H545      1.0  0.64949  0.49797  0.63702  1.0000
  N   N24       1.0  0.83166  0.43553  0.40580  1.0000
  C   C331      1.0  0.87054  0.43592  0.39558  1.0000
  H   H546      1.0  0.59444  0.09359  0.48918  1.0000
  H   H547      1.0  0.50988  0.40010  0.53431  1.0000
  N   N25       1.0  0.97800  0.29199  0.49083  1.0000
  C   C332      1.0  0.84115  0.47013  0.45291  1.0000
  C   C333      1.0  0.98107  0.30005  0.45976  1.0000
  H   H548      1.0  0.92296  0.29713  0.44687  1.0000
  C   C334      1.0  0.53334  0.06601  0.50796  1.0000
  C   C335      1.0  0.57759  0.48864  0.65379  1.0000
  H   H549      1.0  0.55097  0.25417  0.49482  1.0000
  H   H550      1.0  0.94642  0.20311  0.48514  1.0000
  H   H551      1.0  0.82230  0.48813  0.66732  1.0000
  H   H552      1.0  0.82510  0.45240  0.46719  1.0000
  H   H553      1.0  0.78966  0.38492  0.45750  1.0000
  C   C336      1.0  0.73282  0.45942  0.64974  1.0000
  H   H554      1.0  0.77341  0.42426  0.44024  1.0000
  H   H555      1.0  0.91903  0.30015  0.49271  1.0000
  H   H556      1.0  0.86040  0.46984  0.61424  1.0000
  H   H557      1.0  0.58095  0.47233  0.58320  1.0000
  H   H558      1.0  0.92077  0.24352  0.48031  1.0000
  H   H559      1.0  0.92977  0.22630  0.51524  1.0000
  C   C337      1.0  0.94451  0.31061  0.50236  1.0000
  H   H560      1.0  0.98860  0.24614  0.51795  1.0000
  H   H561      1.0  0.75155  0.48325  0.64799  1.0000
  H   H562      1.0  0.51732  0.05089  0.52406  1.0000
  H   H563      1.0  0.52221  0.08714  0.46509  1.0000
  H   H564      1.0  0.51682  0.28684  0.48593  1.0000
  H   H565      1.0  0.59154  0.03207  0.53562  1.0000
  C   C338      1.0  0.87758  0.49427  0.60995  1.0000
  H   H566      1.0  0.78089  0.42501  0.65328  1.0000
  C   C339      1.0  0.95623  0.47918  0.38217  1.0000
  H   H567      1.0  0.79603  0.47680  0.42436  1.0000
  C   C340      1.0  0.67771  0.49183  0.58495  1.0000
  H   H568      1.0  0.98330  0.33006  0.45643  1.0000
  C   C341      1.0  0.58115  0.48738  0.60291  1.0000
  C   C342      1.0  0.50791  0.07365  0.48274  1.0000
  H   H569      1.0  0.88858  0.47194  0.56828  1.0000
  C   C343      1.0  0.82549  0.47006  0.42273  1.0000
  H   H570      1.0  0.49998  0.47919  0.46875  1.0000
  H   H571      1.0  0.77675  0.43691  0.38909  1.0000
  H   H572      1.0  0.78813  0.46314  0.34355  1.0000
  H   H573      1.0  0.90558  0.48682  0.61671  1.0000
  H   H574      1.0  0.83642  0.46163  0.34741  1.0000
  C   C344      1.0  0.50004  0.24543  0.51742  1.0000
  S   S89       1.0  0.53888  0.00092  0.58460  1.0000
  H   H575      1.0  0.83785  0.49407  0.41196  1.0000
  H   H576      1.0  0.80960  0.49256  0.36884  1.0000
  Fe  Fe45      1.0  0.99851  0.41521  0.47868  1.0000
  H   H577      1.0  0.91337  0.39100  0.92162  1.0000
  H   H578      1.0  0.79040  0.45317  0.91196  1.0000
  S   S90       1.0  0.97635  0.42542  0.95469  1.0000
  Fe  Fe46      1.0  0.98043  0.48238  0.97165  1.0000
  H   H579      1.0  0.86627  0.38326  0.91497  1.0000
  H   H580      1.0  0.90509  0.45525  0.93133  1.0000
  H   H581      1.0  0.95026  0.45558  0.85806  1.0000
  H   H582      1.0  0.61336  0.27754  0.99828  1.0000
  H   H583      1.0  0.68439  0.41590  0.67548  1.0000
  C   C345      1.0  0.81450  0.43625  0.91733  1.0000
  H   H584      1.0  0.78725  0.38786  0.93394  1.0000
  C   C346      1.0  0.85691  0.47969  0.89582  1.0000
  H   H585      1.0  0.51609  0.02547  0.77169  1.0000
  C   C347      1.0  0.83804  0.48682  0.94593  1.0000
  C   C348      1.0  0.80197  0.41224  0.94223  1.0000
  C   C349      1.0  0.87995  0.43815  0.93166  1.0000
  H   H586      1.0  0.81806  0.41864  0.89829  1.0000
  H   H587      1.0  0.89326  0.41107  0.89117  1.0000
  H   H588      1.0  0.80232  0.49516  0.88000  1.0000
  H   H589      1.0  0.51280  0.46354  0.97028  1.0000
  C   C350      1.0  0.88821  0.40407  0.91352  1.0000
  H   H590      1.0  0.86116  0.45987  0.87824  1.0000
  H   H591      1.0  0.87768  0.42927  0.95396  1.0000
  H   H592      1.0  0.78364  0.42757  0.95667  1.0000
  N   N26       1.0  0.84731  0.46018  0.92272  1.0000
  C   C351      1.0  0.53409  0.48163  0.97949  1.0000
  H   H593      1.0  0.82480  0.40114  0.95469  1.0000
  C   C352      1.0  0.52669  0.37223  0.99717  1.0000
  H   H594      1.0  0.57498  0.47435  0.67359  1.0000
  H   H595      1.0  0.97238  0.46665  0.90662  1.0000
  H   H596      1.0  0.83181  0.47204  0.96575  1.0000
  H   H597      1.0  0.51600  0.37207  0.95247  1.0000
  S   S91       1.0  0.96629  0.47522  0.68825  1.0000
  H   H598      1.0  0.50616  0.24470  0.99454  1.0000
  H   H599      1.0  0.88327  0.49432  0.89804  1.0000
  H   H600      1.0  0.72711  0.45751  0.67272  1.0000
  H   H601      1.0  0.56898  0.29376  0.98970  1.0000
  C   C353      1.0  0.50427  0.36920  0.97326  1.0000
  H   H602      1.0  0.55770  0.46497  0.98621  1.0000
  C   C354      1.0  0.94817  0.48257  0.86734  1.0000
  H   H603      1.0  0.85813  0.48526  0.69258  1.0000
  H   H604      1.0  0.50424  0.02369  0.71994  1.0000
  C   C355      1.0  0.96015  0.48865  0.89512  1.0000
  S   S92       1.0  0.57307  0.38361  0.99301  1.0000
  H   H605      1.0  0.66849  0.48509  0.66956  1.0000
  C   C356      1.0  0.85229  0.48640  0.66963  1.0000
  Fe  Fe47      1.0  0.94863  0.41238  0.99548  1.0000
  S   S93       1.0  0.89972  0.37451  0.99860  1.0000
  H   H606      1.0  0.56778  0.22808  0.00043  1.0000
  S   S94       1.0  0.50201  0.99207  0.10905  1.0000
  C   C357      1.0  0.70476  0.63567  0.12571  1.0000
  S   S95       1.0  0.59914  0.95579  0.13100  1.0000
  H   H607      1.0  0.75758  0.55323  0.19056  1.0000
  H   H608      1.0  0.94451  0.56797  0.10138  1.0000
  C   C358      1.0  0.70138  0.54583  0.11635  1.0000
  Fe  Fe48      1.0  0.58357  0.73847  0.16597  1.0000
  S   S96       1.0  0.60703  0.73235  0.20962  1.0000
  S   S97       1.0  0.55373  0.78891  0.14924  1.0000
  Fe  Fe49      1.0  0.59445  0.65579  0.15271  1.0000
  S   S98       1.0  0.61725  0.64420  0.19553  1.0000
  S   S99       1.0  0.59184  0.61406  0.11700  1.0000
  Fe  Fe50      1.0  0.57247  0.68128  0.21154  1.0000
  S   S100      1.0  0.53839  0.66598  0.24986  1.0000
  Fe  Fe51      1.0  0.64965  0.69581  0.18958  1.0000
  S   S101      1.0  0.71192  0.69885  0.19054  1.0000
  S   S102      1.0  0.54722  0.68866  0.16898  1.0000
  S   S103      1.0  0.62838  0.70600  0.14565  1.0000
  Fe  Fe52      1.0  0.89143  0.60211  0.25301  1.0000
  S   S104      1.0  0.90211  0.54639  0.23473  1.0000
  S   S105      1.0  0.83185  0.61486  0.26312  1.0000
  C   C359      1.0  0.75945  0.57997  0.17967  1.0000
  Fe  Fe53      1.0  0.94572  0.57416  0.20924  1.0000
  H   H609      1.0  0.80613  0.56207  0.15339  1.0000
  Fe  Fe54      1.0  0.94488  0.54166  0.26868  1.0000
  H   H610      1.0  0.54190  0.52473  0.00967  1.0000
  S   S106      1.0  0.93310  0.63039  0.22614  1.0000
  S   S107      1.0  0.93194  0.59554  0.28846  1.0000
  C   C360      1.0  0.54101  0.57076  0.24838  1.0000
  H   H611      1.0  0.60124  0.89920  0.22148  1.0000
  H   H612      1.0  0.51177  0.56847  0.05144  1.0000
  C   C361      1.0  0.59919  0.56668  0.12080  1.0000
  C   C362      1.0  0.59966  0.54984  0.14717  1.0000
  C   C363      1.0  0.60407  0.54528  0.09647  1.0000
  H   H613      1.0  0.59662  0.56621  0.16604  1.0000
  H   H614      1.0  0.60454  0.55824  0.07605  1.0000
  C   C364      1.0  0.74461  0.67539  0.21126  1.0000
  C   C365      1.0  0.73492  0.65502  0.23495  1.0000
  C   C366      1.0  0.76202  0.63680  0.25059  1.0000
  C   C367      1.0  0.79893  0.63818  0.24250  1.0000
  C   C368      1.0  0.80850  0.65817  0.21860  1.0000
  C   C369      1.0  0.78152  0.67692  0.20327  1.0000
  H   H615      1.0  0.70671  0.65376  0.24146  1.0000
  H   H616      1.0  0.75437  0.62162  0.26916  1.0000
  H   H617      1.0  0.83676  0.65970  0.21224  1.0000
  H   H618      1.0  0.78933  0.69275  0.18506  1.0000
  H   H619      1.0  0.80530  0.61080  0.16076  1.0000
  H   H620      1.0  0.63877  0.96108  0.03589  1.0000
  C   C370      1.0  0.56745  0.83502  0.14423  1.0000
  C   C371      1.0  0.54154  0.86017  0.13436  1.0000
  C   C372      1.0  0.55070  0.89722  0.13052  1.0000
  C   C373      1.0  0.58609  0.90957  0.13627  1.0000
  C   C374      1.0  0.61214  0.88440  0.14580  1.0000
  C   C375      1.0  0.60288  0.84736  0.14991  1.0000
  C   C376      1.0  0.51663  0.54165  0.06158  1.0000
  H   H621      1.0  0.53031  0.91615  0.12322  1.0000
  H   H622      1.0  0.63967  0.89358  0.15015  1.0000
  H   H623      1.0  0.62314  0.82835  0.15742  1.0000
  C   C377      1.0  0.58026  0.92632  0.01024  1.0000
  H   H624      1.0  0.74795  0.64001  0.15533  1.0000
  H   H625      1.0  0.59425  0.99757  0.20578  1.0000
  H   H626      1.0  0.54563  0.53489  0.05849  1.0000
  C   C378      1.0  0.61154  0.96767  0.04470  1.0000
  C   C379      1.0  0.55022  0.94489  0.05579  1.0000
  H   H627      1.0  0.97174  0.52389  0.06746  1.0000
  H   H628      1.0  0.75898  0.61340  0.12510  1.0000
  S   S108      1.0  0.94745  0.57469  0.16129  1.0000
  C   C380      1.0  0.63997  0.89146  0.04631  1.0000
  C   C381      1.0  0.73729  0.61808  0.14110  1.0000
  H   H629      1.0  0.54216  0.60117  0.21009  1.0000
  H   H630      1.0  0.69675  0.51629  0.11205  1.0000
  H   H631      1.0  0.64181  0.88796  0.02313  1.0000
  H   H632      1.0  0.52180  0.87247  0.21464  1.0000
  H   H633      1.0  0.65566  0.55884  0.20010  1.0000
  Fe  Fe55      1.0  0.97510  0.61765  0.25954  1.0000
  N   N27       1.0  0.72991  0.58366  0.15760  1.0000
  H   H634      1.0  0.81785  0.57951  0.18747  1.0000
  H   H635      1.0  0.54643  0.89418  0.18742  1.0000
  H   H636      1.0  0.51975  0.91171  0.26294  1.0000
  H   H637      1.0  0.69474  0.61119  0.18735  1.0000
  C   C382      1.0  0.73154  0.55035  0.13877  1.0000
  N   N28       1.0  0.52904  0.93095  0.22058  1.0000
  H   H638      1.0  0.51572  0.50668  0.21891  1.0000
  H   H639      1.0  0.61598  0.97354  0.06760  1.0000
  H   H640      1.0  0.71493  0.65854  0.11258  1.0000
  C   C383      1.0  0.96653  0.54192  0.13827  1.0000
  C   C384      1.0  0.97621  0.52071  0.08986  1.0000
  H   H641      1.0  0.60361  0.90896  0.07911  1.0000
  H   H642      1.0  0.64619  0.86459  0.05591  1.0000
  H   H643      1.0  0.73258  0.52472  0.15124  1.0000
  H   H644      1.0  0.58630  0.85449  0.21205  1.0000
  C   C385      1.0  0.53609  0.57243  0.21603  1.0000
  C   C386      1.0  0.68289  0.55356  0.19075  1.0000
  H   H645      1.0  0.60495  0.95152  0.19551  1.0000
  C   C387      1.0  0.96083  0.54562  0.10912  1.0000
  H   H646      1.0  0.57162  0.89721  0.00814  1.0000
  C   C388      1.0  0.60370  0.51166  0.14901  1.0000
  C   C389      1.0  0.58804  0.96838  0.20996  1.0000
  H   H647      1.0  0.51343  0.58714  0.13446  1.0000
  H   H648      1.0  0.87552  0.52033  0.08374  1.0000
  H   H649      1.0  0.68994  0.61666  0.11157  1.0000
  C   C390      1.0  0.53400  0.93455  0.25207  1.0000
  H   H650      1.0  0.54489  0.95659  0.18149  1.0000
  C   C391      1.0  0.57829  0.87982  0.22348  1.0000
  H   H651      1.0  0.67466  0.55607  0.12322  1.0000
  S   S109      1.0  0.99000  0.56336  0.24112  1.0000
  H   H652      1.0  0.56291  0.93187  0.25846  1.0000
  H   H653      1.0  0.66144  0.91055  0.05396  1.0000
  C   C392      1.0  0.79919  0.58329  0.16921  1.0000
  C   C393      1.0  0.52112  0.91431  0.05560  1.0000
  H   H654      1.0  0.57463  0.87217  0.24590  1.0000
  H   H655      1.0  0.68541  0.64795  0.14099  1.0000
  H   H656      1.0  0.56798  0.58275  0.25396  1.0000
  H   H657      1.0  0.58399  0.87905  0.05364  1.0000
  C   C394      1.0  0.51137  0.59296  0.15743  1.0000
  H   H658      1.0  0.75609  0.60089  0.19651  1.0000
  H   H659      1.0  0.55838  0.55567  0.20674  1.0000
  H   H660      1.0  0.67096  0.59208  0.15859  1.0000
  C   C395      1.0  0.51939  0.50564  0.00379  1.0000
  C   C396      1.0  0.69411  0.58687  0.17304  1.0000
  C   C397      1.0  0.54712  0.96151  0.20460  1.0000
  C   C398      1.0  0.60172  0.90360  0.05601  1.0000
  N   N29       1.0  0.58546  0.93601  0.04100  1.0000
  H   H661      1.0  0.54497  0.97562  0.00245  1.0000
  H   H662      1.0  0.70180  0.54899  0.20863  1.0000
  H   H663      1.0  0.55580  0.95187  0.07826  1.0000
  H   H664      1.0  0.68029  0.52847  0.17766  1.0000
  C   C399      1.0  0.54253  0.89415  0.21056  1.0000
  H   H665      1.0  0.54090  0.54234  0.25627  1.0000
  H   H666      1.0  0.52860  0.89178  0.06998  1.0000
  C   C400      1.0  0.50292  0.55711  0.17302  1.0000
  H   H667      1.0  0.99127  0.67165  0.14520  1.0000
  H   H668      1.0  0.70917  0.55928  0.09632  1.0000
  H   H669      1.0  0.52039  0.58706  0.25987  1.0000
  H   H670      1.0  0.52466  0.53714  0.16746  1.0000
  H   H671      1.0  0.51585  0.90323  0.03420  1.0000
  H   H672      1.0  0.75759  0.54994  0.12684  1.0000
  H   H673      1.0  0.51406  0.85091  0.12990  1.0000
  H   H674      1.0  0.99232  0.50997  0.17050  1.0000
  H   H675      1.0  0.59676  0.96408  0.23195  1.0000
  C   C401      1.0  0.52036  0.97044  0.26543  1.0000
  H   H676      1.0  0.53790  0.60491  0.16386  1.0000
  H   H677      1.0  0.52850  0.97145  0.28801  1.0000
  C   C402      1.0  0.60868  0.50728  0.09832  1.0000
  H   H678      1.0  0.51265  0.54496  0.08468  1.0000
  H   H679      1.0  0.53247  0.98784  0.20759  1.0000
  C   C403      1.0  0.98778  0.51310  0.14810  1.0000
  H   H680      1.0  0.53703  0.96960  0.04729  1.0000
  H   H681      1.0  0.97862  0.62425  0.33130  1.0000
  H   H682      1.0  0.99046  0.68554  0.21691  1.0000
  H   H683      1.0  0.90933  0.54352  0.32859  1.0000
  H   H684      1.0  0.53236  0.99486  0.25530  1.0000
  H   H685      1.0  0.49916  0.76500  0.27273  1.0000
  N   N30       1.0  0.49940  0.56030  0.20464  1.0000
  H   H686      1.0  0.67382  0.55095  0.66143  1.0000
  C   C404      1.0  0.91677  0.53027  0.37239  1.0000
  H   H687      1.0  0.52529  0.57967  0.66318  1.0000
  H   H688      1.0  0.80596  0.58828  0.62679  1.0000
  H   H689      1.0  0.55621  0.76805  0.63956  1.0000
  Fe  Fe56      1.0  0.52824  0.95708  0.61716  1.0000
  H   H690      1.0  0.81284  0.56395  0.65938  1.0000
  H   H691      1.0  0.70009  0.77723  0.65725  1.0000
  C   C405      1.0  0.93347  0.50711  0.39191  1.0000
  H   H692      1.0  0.52997  0.81794  0.61069  1.0000
  C   C406      1.0  0.54845  0.82456  0.62781  1.0000
  H   H693      1.0  0.77465  0.55367  0.63857  1.0000
  H   H694      1.0  0.67851  0.73467  0.66649  1.0000
  S   S110      1.0  0.58585  0.59396  0.62704  1.0000
  C   C407      1.0  0.58124  0.52691  0.65377  1.0000
  C   C408      1.0  0.98269  0.52686  0.61375  1.0000
  H   H695      1.0  0.98396  0.66031  0.35611  1.0000
  H   H696      1.0  0.82025  0.53899  0.59772  1.0000
  S   S111      1.0  0.53856  0.89576  0.61132  1.0000
  C   C409      1.0  0.58407  0.54568  0.62826  1.0000
  C   C410      1.0  0.70476  0.74778  0.66115  1.0000
  N   N31       1.0  0.86445  0.52718  0.62638  1.0000
  H   H697      1.0  0.58604  0.53998  0.58303  1.0000
  S   S112      1.0  0.54007  0.99452  0.65404  1.0000
  H   H698      1.0  0.85129  0.50302  0.56838  1.0000
  C   C411      1.0  0.97826  0.52020  0.64268  1.0000
  H   H699      1.0  0.51074  0.56474  0.61442  1.0000
  C   C412      1.0  0.55742  0.86136  0.63325  1.0000
  H   H700      1.0  0.90279  0.61576  0.62619  1.0000
  H   H701      1.0  0.91455  0.55232  0.61193  1.0000
  C   C413      1.0  0.69381  0.53216  0.65142  1.0000
  C   C414      1.0  0.92300  0.52592  0.34335  1.0000
  C   C415      1.0  0.56329  0.79617  0.64416  1.0000
  C   C416      1.0  0.58401  0.52571  0.60287  1.0000
  H   H702      1.0  0.70138  0.54437  0.63094  1.0000
  H   H703      1.0  0.98675  0.55453  0.60651  1.0000
  S   S113      1.0  0.92381  0.51318  0.42804  1.0000
  H   H704      1.0  0.89874  0.55163  0.37972  1.0000
  H   H705      1.0  0.86243  0.60290  0.64445  1.0000
  H   H706      1.0  0.90168  0.51618  0.66069  1.0000
  H   H707      1.0  0.90642  0.58611  0.65558  1.0000
  H   H708      1.0  0.87479  0.57062  0.59641  1.0000
  C   C417      1.0  0.58157  0.86946  0.65530  1.0000
  C   C418      1.0  0.82441  0.53179  0.62024  1.0000
  C   C419      1.0  0.80389  0.56129  0.63721  1.0000
  H   H709      1.0  0.98823  0.55769  0.36677  1.0000
  H   H710      1.0  0.97056  0.61640  0.36850  1.0000
  C   C420      1.0  0.88909  0.59278  0.63712  1.0000
  C   C421      1.0  0.88593  0.56006  0.61662  1.0000
  C   C422      1.0  0.87190  0.51990  0.65715  1.0000
  H   H711      1.0  0.71787  0.53126  0.66560  1.0000
  H   H712      1.0  0.71390  0.73558  0.64088  1.0000
  S   S114      1.0  0.98247  0.50877  0.55786  1.0000
  C   C423      1.0  0.58791  0.80421  0.66589  1.0000
  H   H713      1.0  0.89804  0.51942  0.57056  1.0000
  H   H714      1.0  0.80924  0.50557  0.62226  1.0000
  C   C424      1.0  0.98805  0.63053  0.35295  1.0000
  H   H715      1.0  0.66518  0.51718  0.59329  1.0000
  H   H716      1.0  0.97872  0.54268  0.65750  1.0000
  H   H717      1.0  0.50785  0.62930  0.63169  1.0000
  H   H718      1.0  0.58914  0.89755  0.65948  1.0000
  H   H719      1.0  0.50650  0.51382  0.64315  1.0000
  Fe  Fe57      1.0  0.59039  0.62919  0.66656  1.0000
  H   H720      1.0  0.72997  0.49997  0.60476  1.0000
  S   S115      1.0  0.60894  0.76957  0.68640  1.0000
  S   S116      1.0  0.60373  0.68745  0.73300  1.0000
  S   S117      1.0  0.59396  0.60447  0.70951  1.0000
  Fe  Fe58      1.0  0.55695  0.65022  0.72271  1.0000
  S   S118      1.0  0.51622  0.64202  0.75814  1.0000
  Fe  Fe59      1.0  0.64043  0.64362  0.71623  1.0000
  S   S119      1.0  0.68895  0.62565  0.74252  1.0000
  Fe  Fe60      1.0  0.89939  0.58159  0.73236  1.0000
  S   S120      1.0  0.89752  0.52118  0.73946  1.0000
  S   S121      1.0  0.85519  0.60965  0.70653  1.0000
  C   C425      1.0  0.93283  0.51097  0.85169  1.0000
  H   H721      1.0  0.56192  0.94124  0.70328  1.0000
  H   H722      1.0  0.86482  0.54341  0.67086  1.0000
  Fe  Fe61      1.0  0.92691  0.53332  0.78021  1.0000
  S   S122      1.0  0.96812  0.53069  0.94348  1.0000
  H   H723      1.0  0.81259  0.50193  0.94101  1.0000
  S   S123      1.0  0.92475  0.59431  0.77481  1.0000
  C   C426      1.0  0.68537  0.73043  0.75574  1.0000
  H   H724      1.0  0.66159  0.74880  0.75852  1.0000
  C   C427      1.0  0.71061  0.79188  0.71235  1.0000
  N   N32       1.0  0.72477  0.75322  0.71357  1.0000
  C   C428      1.0  0.95586  0.52289  0.90786  1.0000
  H   H725      1.0  0.61603  0.84761  0.68804  1.0000
  C   C429      1.0  0.73450  0.61945  0.73129  1.0000
  C   C430      1.0  0.76014  0.60624  0.75071  1.0000
  C   C431      1.0  0.79704  0.60239  0.74325  1.0000
  C   C432      1.0  0.80874  0.61218  0.71634  1.0000
  C   C433      1.0  0.78306  0.62517  0.69676  1.0000
  C   C434      1.0  0.74601  0.62857  0.70411  1.0000
  H   H726      1.0  0.75145  0.59920  0.77178  1.0000
  H   H727      1.0  0.81653  0.59245  0.75851  1.0000
  H   H728      1.0  0.54542  0.92703  0.73681  1.0000
  H   H729      1.0  0.70301  0.69848  0.71987  1.0000
  C   C435      1.0  0.50731  0.91796  0.70144  1.0000
  H   H730      1.0  0.78050  0.77005  0.72137  1.0000
  H   H731      1.0  0.52611  0.93267  0.99056  1.0000
  H   H732      1.0  0.80082  0.71578  0.74790  1.0000
  Fe  Fe62      1.0  0.95305  0.51991  0.71986  1.0000
  H   H733      1.0  0.78606  0.70232  0.71364  1.0000
  Fe  Fe63      1.0  0.59910  0.70768  0.68846  1.0000
  H   H734      1.0  0.72651  0.63876  0.68899  1.0000
  H   H735      1.0  0.52469  0.56041  0.78914  1.0000
  S   S124      1.0  0.54956  0.67276  0.67903  1.0000
  H   H736      1.0  0.75745  0.69420  0.74421  1.0000
  H   H737      1.0  0.93804  0.57827  0.90158  1.0000
  H   H738      1.0  0.69716  0.80100  0.75750  1.0000
  H   H739      1.0  0.51595  0.86814  0.74647  1.0000
  H   H740      1.0  0.67008  0.73106  0.71243  1.0000
  H   H741      1.0  0.51512  0.53315  0.69818  1.0000
  C   C436      1.0  0.54605  0.91960  0.71410  1.0000
  H   H742      1.0  0.50201  0.51728  0.78710  1.0000
  C   C437      1.0  0.77646  0.71366  0.73402  1.0000
  S   S125      1.0  0.95372  0.57951  0.71038  1.0000
  H   H743      1.0  0.73955  0.82184  0.74617  1.0000
  H   H744      1.0  0.51055  0.91872  0.67808  1.0000
  H   H745      1.0  0.51486  0.57697  0.71468  1.0000
  S   S126      1.0  0.98249  0.52631  0.76128  1.0000
  H   H746      1.0  0.75565  0.76259  0.75240  1.0000
  C   C438      1.0  0.75941  0.75182  0.73074  1.0000
  H   H747      1.0  0.69680  0.84067  0.73618  1.0000
  C   C439      1.0  0.69589  0.72745  0.72433  1.0000
  C   C440      1.0  0.92992  0.54572  0.86393  1.0000
  H   H748      1.0  0.70768  0.73922  0.76987  1.0000
  H   H749      1.0  0.67751  0.70294  0.76349  1.0000
  H   H750      1.0  0.83959  0.51962  0.86513  1.0000
  Fe  Fe64      1.0  0.97908  0.58638  0.75332  1.0000
  H   H751      1.0  0.91753  0.56763  0.85215  1.0000
  H   H752      1.0  0.75934  0.75584  0.67645  1.0000
  C   C441      1.0  0.71127  0.81453  0.73988  1.0000
  C   C442      1.0  0.94129  0.55160  0.89198  1.0000
  H   H753      1.0  0.74081  0.71179  0.68296  1.0000
  C   C443      1.0  0.55168  0.94860  0.99354  1.0000
  H   H754      1.0  0.98792  0.61566  0.85611  1.0000
  C   C444      1.0  0.82905  0.50779  0.88507  1.0000
  H   H755      1.0  0.56092  0.89361  0.71131  1.0000
  H   H756      1.0  0.72668  0.80819  0.69693  1.0000
  H   H757      1.0  0.68197  0.79219  0.70447  1.0000
  H   H758      1.0  0.79196  0.63297  0.67593  1.0000
  H   H759      1.0  0.60665  0.92853  0.99881  1.0000
  C   C445      1.0  0.86803  0.51495  0.95340  1.0000
  C   C446      1.0  0.73432  0.74145  0.68386  1.0000
  S   S127      1.0  0.63944  0.66587  0.67235  1.0000
  C   C447      1.0  0.59689  0.84103  0.67137  1.0000
  H   H760      1.0  0.52564  0.84609  0.69898  1.0000
  H   H761      1.0  0.82552  0.53090  0.90000  1.0000
  H   H762      1.0  0.56212  0.95360  0.97193  1.0000
  C   C448      1.0  0.49949  0.55897  0.69986  1.0000
  H   H763      1.0  0.98440  0.59736  0.82135  1.0000
  H   H764      1.0  0.85784  0.53339  0.97028  1.0000
  H   H765      1.0  0.89283  0.50161  0.96181  1.0000
  H   H766      1.0  0.87549  0.53238  0.93527  1.0000
  H   H767      1.0  0.58140  0.54178  0.67348  1.0000
  S   S128      1.0  0.91227  0.50077  0.81900  1.0000
  H   H768      1.0  0.54384  0.49954  0.96226  1.0000
