data_image0
_chemical_formula_structural       FeS2C2S2HSH3C2HFeH3CHFeSHCH3CHFeH2CH2C2H3CHCSH3CH2SCNCH3CHCH2CFeC2HCHCH3C2H4CHCHCH4FeS2FeS2FeSFeS3FeS2FeS2FeSFeS3FeSFeS2FeSFeS3FeSFeS2FeSFeHS2HS2HCHCHFeHSH2CH3SH2CH2CH3CHCH6SC6H4C6H4C6H4C6H4C6H4C6H5C2HCH4CH2CNH2CH2FeHCH6NC4H10C2H6C2H4CH4CH2C2H3CH4CHNC4H4CSCH2CH6CNCH3C2H3C2H3CH4C2H4CHSHCH10CH5C2H2CH2C2H2CHNCNHNH3NH2CHC2H2NH3CHCH8CHC5HNC2H7CHCHC2H4CH2CH3CH2CH3C4HCHC3H2C2H6CH3SCHC2SCSCH3S2HCH2C2H2NCHCHCHCFeC2HC2H6CFeSHFeS2FeS2FeS2HNFeHFeSHCHCHCH4C3HCH4C3HCHCSHCH4C7H4C2H2CHNHCHCHC2HCH4CH2CHCH7C2H3CSCH2CH3C2HC2SHCHCH3CSHNH2CH6CHFeS2FeSH2SC2H2FeS2HCHS2FeHSCH3SCSHCH8C6H4C6H4S2CFeCHCH5C2H5C2H11C2HNC2H2CH5NHCFeH7C3H2C2HCHC2H3CH5NH2C2HCH2NC3HC2H7FeH2CHSH2CS2C2HCHS3HSC2SC2H2FeS2FeS2FeSFeS3FeS2H2CFeCFeHS2HS2HSCSFeHSH3SC3HC2H2FeH2CH2C6H4CH2C2H4NC3HCHCH2CHC6H4C3H2CH3C2SC3H2NSC3HC2HCH7FeH2SHCH3CH2NC8H20CH2FeCH3C3HCHFe2HFeH4CHCH2NH3CHSNC8H9CH11FeC2H2CH7CH3SC2NC4HCSCH4CH3SCH5CH4NC2H8CHCH2SH7C2H8FeHCH3CHCHCHC3SHC5HCH3FeS2FeS2FeSFeS3CSH2SCH2FeSCSFeS2FeSFeSFeS3FeS2FeS2Fe2S3H2CHC6H2CHC6H4C6H9CH2NCH2CHC6H4C6H4C6H4CH3SH2NC6H15NC8H20CH4CHCH3C2H11CH3C2HSH5C3HCH2CH2CNH6CH3SCH2NH3CHCH8CHCHNCHCHCFeHCHSH2CH6CHCHC2H3CHCHCHC4H4CHNH6CHSNCH4C3H6CHCHFeCFeC2H4CHC3SCH3C2HCH3SCH2CHC2HSHSFeS2FeSHFeSFeS3FeSFeS2FeSFeHSHFeS2FeS2FeSFeS3FeS2FeS2FeSFeS3C2HC4H2C6H5C6H4C6H4C6H4C6H4C3H3CH3NC6H4NC5H5CH4CHSH5CH5C2H4CH2CH2CH7CHC2NC7H15CHNC4H11CNC8H20NC8H23CHCH5CH5CH2CH2C2HCHSHC2H4CHSC3HC2H3CHCH3CHC2H5CHSHNHC2HNHC2HC2HCH2CH3CH8CH3FeSH3NH6SH5C3HCFeH2SH2FeS2FeHCH2FeHS2FeS2FeSCFeCFeSNS2H3CFeH2C6H4C2H3CHNH2C2H2C2HC2H2C2H3CH3C8H4CNCHC3H3NHSNCH5C2H4NSCHCHCHCSFeH4CH2CH5CH6CHCH6CHC2HCHSHCHFeH2C2H3C4SH3SH2CHCHC2HSCH3CH2CH2CHCH3CH4CHCHCH8NHCH4SH5C2H6CHC2H2C2H3CHCHC3HCH3CH2CH2C2H3FeSHFeSHFe2SHSFeS2FeS2CFeS3HC2FeS2FeSCSHFeHFeS2HC2S3CH3CH3SC6H4C6H4C6H3C2HCH3CH5FeCHC3H3FeHCSCH2CH2NHCFeHCSHC2HSCHC2SC3H5C2H2C2HCHCH8CSH3C2H3CH6CHNCH2C2HNH5C2H4C4H2NCH3C2H2CHCH8NH2CNH2CHCH4CH2CHSC2H3SH6CHCHCHCH5CHCHCHCHCHSCH5CH3C2HNSHFeCHCHCHFeS2FeS2HFeCS2FeS2FeS2FeHSC6H7C3HC2H2CFeC2H2CH3CHCSHCHC2H3CH5SNCH3FeH2C2H2CH3CHCH7CHCSH5CH3CH3NHCH3CH3C2H2CH2CNCH3CH6FeS2FeS2FeSFeS3HSH5FeSHC3FeS2FeS2FeSFeS3FeS2FeS2FeSFeS3C6H4CH2C3HCH2C6H5CHC6H4C6H4C6H4SHCH2CH7C3H2NHC2H3CH4C2HCHNC8H12CH6NHC3H2CH8NCH3CHC2NC4H11CH4NCHC3NC8H24C3H5CH2SHCH2CH2C2HC3H4CH5C2H4CH3CH3CH3SCH2SH2CH2CSFeH2CH2FeH2CH5C3HCH4NH3CH3CH2CHNCFeSHFeSFeSFeS3FeS2FeS2FeSFeS2C6H9CH4SCH4CH2C2FeCH5C2NC3H3CH2C2H6CH3C2H2CH2CHCH3SCH2SHCH7CH2CHNH7CHCH7C4H2C2HCNHCHCHCHC2H2CHC3H3C2H4
_chemical_formula_sum              "Fe144 S288 C1008 H1728 N72"
_cell_length_a       84.9912
_cell_length_b       87.5391
_cell_length_c       33.0201
_cell_angle_alpha    89.74
_cell_angle_beta     84.4526
_cell_angle_gamma    110.104

_space_group_name_H-M_alt    "P 1"
_space_group_IT_number       1

loop_
  _space_group_symop_operation_xyz
  'x, y, z'

loop_
  _atom_site_type_symbol
  _atom_site_label
  _atom_site_symmetry_multiplicity
  _atom_site_fract_x
  _atom_site_fract_y
  _atom_site_fract_z
  _atom_site_occupancy
  Fe  Fe1       1.0  0.05643  0.47984  0.74544  1.0000
  S   S1        1.0  0.08221  0.47767  0.73442  1.0000
  S   S2        1.0  0.03295  0.46245  0.72126  1.0000
  C   C1        1.0  0.06919  0.48019  0.56334  1.0000
  C   C2        1.0  0.12566  0.48867  0.16694  1.0000
  S   S3        1.0  0.06108  0.47766  0.36437  1.0000
  S   S4        1.0  0.02235  0.49412  0.35469  1.0000
  H   H1        1.0  0.02835  0.47617  0.44208  1.0000
  S   S5        1.0  0.06595  0.47710  0.48154  1.0000
  H   H2        1.0  0.00568  0.40404  0.77759  1.0000
  H   H3        1.0  0.03028  0.42380  0.45958  1.0000
  H   H4        1.0  0.03635  0.44354  0.50950  1.0000
  C   C3        1.0  0.00769  0.47467  0.34783  1.0000
  C   C4        1.0  0.02588  0.44773  0.52103  1.0000
  H   H5        1.0  0.07592  0.49661  0.97832  1.0000
  Fe  Fe2       1.0  0.07179  0.49047  0.41986  1.0000
  H   H6        1.0  0.02608  0.46355  0.32914  1.0000
  H   H7        1.0  0.12029  0.48466  0.03309  1.0000
  H   H8        1.0  0.04252  0.48717  0.63071  1.0000
  C   C5        1.0  0.00275  0.37864  0.70426  1.0000
  H   H9        1.0  0.02502  0.42157  0.40752  1.0000
  Fe  Fe3       1.0  0.08423  0.49549  0.32790  1.0000
  S   S6        1.0  0.06173  0.49348  0.80325  1.0000
  H   H10       1.0  0.17808  0.47668  0.15765  1.0000
  C   C6        1.0  0.19030  0.48578  0.16451  1.0000
  H   H11       1.0  0.00711  0.42536  0.50844  1.0000
  H   H12       1.0  0.01442  0.38134  0.71960  1.0000
  H   H13       1.0  0.05815  0.46928  0.56736  1.0000
  C   C7        1.0  0.01835  0.41790  0.72258  1.0000
  H   H14       1.0  0.02086  0.46013  0.80773  1.0000
  Fe  Fe4       1.0  0.04963  0.49703  0.35938  1.0000
  H   H15       1.0  0.01071  0.48253  0.44750  1.0000
  H   H16       1.0  0.08279  0.49963  0.04316  1.0000
  C   C8        1.0  0.07570  0.48695  0.52397  1.0000
  H   H17       1.0  0.07220  0.48176  0.62770  1.0000
  H   H18       1.0  0.12665  0.48664  0.89535  1.0000
  C   C9        1.0  0.01264  0.45604  0.74783  1.0000
  C   C10       1.0  0.18114  0.49044  0.08282  1.0000
  H   H19       1.0  0.18950  0.48496  0.19831  1.0000
  H   H20       1.0  0.10919  0.47072  0.21101  1.0000
  H   H21       1.0  0.08929  0.49701  0.10685  1.0000
  C   C11       1.0  0.00945  0.43852  0.50216  1.0000
  H   H22       1.0  0.10013  0.48367  0.09049  1.0000
  C   C12       1.0  0.07714  0.48724  0.59759  1.0000
  S   S7        1.0  0.09793  0.48677  0.27484  1.0000
  H   H23       1.0  0.00473  0.43597  0.32417  1.0000
  H   H24       1.0  0.02544  0.44916  0.40104  1.0000
  H   H25       1.0  0.02952  0.48891  0.59202  1.0000
  C   C13       1.0  0.01014  0.45549  0.79036  1.0000
  H   H26       1.0  0.01659  0.42645  0.69998  1.0000
  H   H27       1.0  0.02022  0.47847  0.63988  1.0000
  S   S8        1.0  0.10277  0.48840  0.84087  1.0000
  C   C14       1.0  0.00335  0.45627  0.45131  1.0000
  N   N1        1.0  0.00904  0.44195  0.45742  1.0000
  C   C15       1.0  0.01570  0.47334  0.45896  1.0000
  H   H28       1.0  0.00560  0.38582  0.67522  1.0000
  H   H29       1.0  0.12643  0.48905  0.97909  1.0000
  H   H30       1.0  0.03604  0.45502  0.44482  1.0000
  C   C16       1.0  0.03182  0.43026  0.42971  1.0000
  H   H31       1.0  0.04542  0.43456  0.41826  1.0000
  C   C17       1.0  0.09944  0.49591  0.08446  1.0000
  H   H32       1.0  0.12788  0.47960  0.14730  1.0000
  H   H33       1.0  0.21440  0.48236  0.17113  1.0000
  C   C18       1.0  0.01282  0.46162  0.33616  1.0000
  Fe  Fe5       1.0  0.08830  0.49312  0.78995  1.0000
  C   C19       1.0  0.03064  0.48910  0.62509  1.0000
  C   C20       1.0  0.02581  0.44499  0.43277  1.0000
  H   H34       1.0  0.19958  0.46626  0.14571  1.0000
  C   C21       1.0  0.11162  0.49488  0.22942  1.0000
  H   H35       1.0  0.02319  0.40910  0.70675  1.0000
  C   C22       1.0  0.11499  0.48360  0.20321  1.0000
  H   H36       1.0  0.14161  0.49571  0.01459  1.0000
  H   H37       1.0  0.03007  0.46105  0.51599  1.0000
  H   H38       1.0  0.18283  0.49353  0.04964  1.0000
  C   C23       1.0  0.00212  0.40980  0.75147  1.0000
  C   C24       1.0  0.20476  0.47963  0.14919  1.0000
  H   H39       1.0  0.10480  0.49420  0.96047  1.0000
  H   H40       1.0  0.09219  0.48513  0.02759  1.0000
  H   H41       1.0  0.16791  0.48880  0.09388  1.0000
  H   H42       1.0  0.02839  0.42541  0.74073  1.0000
  C   C25       1.0  0.09499  0.49742  0.04049  1.0000
  H   H43       1.0  0.02383  0.44523  0.55450  1.0000
  C   C26       1.0  0.12833  0.49391  0.00983  1.0000
  H   H44       1.0  0.16515  0.49659  0.15816  1.0000
  C   C27       1.0  0.12917  0.49940  0.88834  1.0000
  H   H45       1.0  0.21113  0.48488  0.11893  1.0000
  H   H46       1.0  0.01659  0.47531  0.49185  1.0000
  H   H47       1.0  0.17245  0.49623  0.22976  1.0000
  H   H48       1.0  0.18335  0.47876  0.08623  1.0000
  Fe  Fe6       1.0  0.08983  0.63082  0.32428  1.0000
  S   S9        1.0  0.09055  0.65305  0.28862  1.0000
  S   S10       1.0  0.08545  0.62410  0.39189  1.0000
  Fe  Fe7       1.0  0.09010  0.61181  0.24803  1.0000
  S   S11       1.0  0.09055  0.63197  0.20551  1.0000
  S   S12       1.0  0.09128  0.58777  0.22849  1.0000
  Fe  Fe8       1.0  0.10970  0.64782  0.24368  1.0000
  S   S13       1.0  0.13427  0.66677  0.21648  1.0000
  Fe  Fe9       1.0  0.07136  0.63552  0.25287  1.0000
  S   S14       1.0  0.04967  0.64240  0.23488  1.0000
  S   S15       1.0  0.11074  0.62726  0.28288  1.0000
  S   S16       1.0  0.06909  0.61379  0.29155  1.0000
  Fe  Fe10      1.0  0.10732  0.61190  0.64054  1.0000
  S   S17       1.0  0.09487  0.61784  0.69813  1.0000
  S   S18       1.0  0.10919  0.58759  0.62655  1.0000
  Fe  Fe11      1.0  0.11433  0.64466  0.60064  1.0000
  S   S19       1.0  0.10266  0.65370  0.65564  1.0000
  S   S20       1.0  0.12342  0.65885  0.54007  1.0000
  Fe  Fe12      1.0  0.11657  0.64168  0.69288  1.0000
  S   S21       1.0  0.12499  0.64823  0.75653  1.0000
  Fe  Fe13      1.0  0.08215  0.62917  0.65724  1.0000
  S   S22       1.0  0.05426  0.62525  0.66468  1.0000
  S   S23       1.0  0.12997  0.63471  0.63742  1.0000
  S   S24       1.0  0.09284  0.62117  0.60039  1.0000
  Fe  Fe14      1.0  0.21620  0.71255  0.96369  1.0000
  S   S25       1.0  0.20734  0.69370  0.01615  1.0000
  Fe  Fe15      1.0  0.19663  0.68788  0.90280  1.0000
  S   S26       1.0  0.18679  0.66768  0.95037  1.0000
  S   S27       1.0  0.19369  0.68383  0.83507  1.0000
  Fe  Fe16      1.0  0.18194  0.68608  0.99223  1.0000
  S   S28       1.0  0.15557  0.67642  0.02579  1.0000
  Fe  Fe17      1.0  0.21262  0.67657  0.97051  1.0000
  S   S29       1.0  0.22539  0.65818  0.97881  1.0000
  S   S30       1.0  0.19005  0.70600  0.94284  1.0000
  S   S31       1.0  0.22324  0.69575  0.91999  1.0000
  Fe  Fe18      1.0  0.20250  0.54343  0.02873  1.0000
  S   S32       1.0  0.18954  0.54938  0.08666  1.0000
  Fe  Fe19      1.0  0.17299  0.54327  0.97926  1.0000
  S   S33       1.0  0.15852  0.54906  0.03381  1.0000
  S   S34       1.0  0.16148  0.54353  0.91946  1.0000
  Fe  Fe20      1.0  0.18338  0.56711  0.04681  1.0000
  S   S35       1.0  0.18079  0.59074  0.06835  1.0000
  Fe  Fe21      1.0  0.16559  0.53103  0.06932  1.0000
  H   H49       1.0  0.03623  0.54363  0.71007  1.0000
  S   S36       1.0  0.19781  0.56262  0.99001  1.0000
  S   S37       1.0  0.17855  0.52379  0.01358  1.0000
  H   H50       1.0  0.11583  0.52396  0.83110  1.0000
  S   S38       1.0  0.09828  0.51659  0.75292  1.0000
  S   S39       1.0  0.06468  0.53849  0.76647  1.0000
  H   H51       1.0  0.15001  0.62141  0.25324  1.0000
  C   C28       1.0  0.14295  0.60849  0.24776  1.0000
  H   H52       1.0  0.13625  0.52960  0.17380  1.0000
  C   C29       1.0  0.11031  0.53342  0.06210  1.0000
  H   H53       1.0  0.03732  0.63724  0.46407  1.0000
  Fe  Fe22      1.0  0.08217  0.52352  0.37701  1.0000
  H   H54       1.0  0.03511  0.61694  0.52856  1.0000
  S   S40       1.0  0.09301  0.54998  0.38939  1.0000
  H   H55       1.0  0.03113  0.65511  0.59604  1.0000
  H   H56       1.0  0.22279  0.54010  0.16866  1.0000
  C   C30       1.0  0.01611  0.51940  0.25234  1.0000
  H   H57       1.0  0.06035  0.59611  0.63701  1.0000
  H   H58       1.0  0.02302  0.52033  0.22171  1.0000
  H   H59       1.0  0.19694  0.63791  0.93076  1.0000
  S   S41       1.0  0.07161  0.51378  0.31885  1.0000
  H   H60       1.0  0.10506  0.72188  0.16465  1.0000
  H   H61       1.0  0.04098  0.54753  0.21520  1.0000
  C   C31       1.0  0.02695  0.55367  0.28399  1.0000
  H   H62       1.0  0.04142  0.51874  0.53788  1.0000
  H   H63       1.0  0.07084  0.67279  0.18808  1.0000
  C   C32       1.0  0.04176  0.54464  0.35822  1.0000
  H   H64       1.0  0.03607  0.51841  0.28717  1.0000
  H   H65       1.0  0.02605  0.57815  0.28818  1.0000
  H   H66       1.0  0.20083  0.74612  0.87989  1.0000
  C   C33       1.0  0.14547  0.52790  0.89756  1.0000
  H   H67       1.0  0.05037  0.65333  0.60835  1.0000
  C   C34       1.0  0.08215  0.66311  0.55155  1.0000
  H   H68       1.0  0.05918  0.56060  0.31040  1.0000
  H   H69       1.0  0.07814  0.65763  0.16645  1.0000
  H   H70       1.0  0.04420  0.61893  0.57430  1.0000
  H   H71       1.0  0.02212  0.52404  0.69964  1.0000
  H   H72       1.0  0.07458  0.67047  0.56366  1.0000
  H   H73       1.0  0.06621  0.61435  0.50016  1.0000
  S   S42       1.0  0.23127  0.73988  0.97032  1.0000
  C   C35       1.0  0.21299  0.63953  0.00415  1.0000
  C   C36       1.0  0.21891  0.62639  0.00296  1.0000
  C   C37       1.0  0.20897  0.61122  0.02169  1.0000
  C   C38       1.0  0.19320  0.60923  0.04237  1.0000
  C   C39       1.0  0.18731  0.62238  0.04360  1.0000
  C   C40       1.0  0.19709  0.63744  0.02424  1.0000
  H   H74       1.0  0.23119  0.62794  0.98741  1.0000
  H   H75       1.0  0.21365  0.60118  0.02082  1.0000
  H   H76       1.0  0.17507  0.62086  0.05921  1.0000
  H   H77       1.0  0.19240  0.64749  0.02523  1.0000
  C   C41       1.0  0.09503  0.57294  0.66099  1.0000
  C   C42       1.0  0.08156  0.57598  0.68298  1.0000
  C   C43       1.0  0.07193  0.56527  0.71509  1.0000
  C   C44       1.0  0.07551  0.55127  0.72422  1.0000
  C   C45       1.0  0.08791  0.54756  0.69947  1.0000
  C   C46       1.0  0.09784  0.55846  0.66835  1.0000
  H   H78       1.0  0.07868  0.58667  0.67575  1.0000
  H   H79       1.0  0.06199  0.56799  0.73319  1.0000
  H   H80       1.0  0.09014  0.53641  0.70440  1.0000
  H   H81       1.0  0.10794  0.55580  0.65071  1.0000
  C   C47       1.0  0.14436  0.65832  0.77710  1.0000
  C   C48       1.0  0.15992  0.66371  0.75324  1.0000
  C   C49       1.0  0.17489  0.67150  0.77142  1.0000
  C   C50       1.0  0.17448  0.67399  0.81357  1.0000
  C   C51       1.0  0.15893  0.66854  0.83740  1.0000
  C   C52       1.0  0.14401  0.66073  0.81926  1.0000
  H   H82       1.0  0.16041  0.66196  0.72079  1.0000
  H   H83       1.0  0.18683  0.67569  0.75263  1.0000
  H   H84       1.0  0.15836  0.67043  0.86980  1.0000
  H   H85       1.0  0.13205  0.65669  0.83800  1.0000
  C   C53       1.0  0.14079  0.66840  0.16360  1.0000
  C   C54       1.0  0.13054  0.65868  0.13618  1.0000
  C   C55       1.0  0.13559  0.66086  0.09412  1.0000
  C   C56       1.0  0.15102  0.67266  0.07900  1.0000
  C   C57       1.0  0.16154  0.68205  0.10644  1.0000
  C   C58       1.0  0.15638  0.67999  0.14860  1.0000
  H   H86       1.0  0.11859  0.64966  0.14723  1.0000
  H   H87       1.0  0.12737  0.65359  0.07303  1.0000
  H   H88       1.0  0.17339  0.69127  0.09512  1.0000
  H   H89       1.0  0.16442  0.68756  0.16960  1.0000
  C   C59       1.0  0.09885  0.63389  0.42866  1.0000
  C   C60       1.0  0.09936  0.62461  0.46288  1.0000
  C   C61       1.0  0.10762  0.63210  0.49614  1.0000
  C   C62       1.0  0.11501  0.64905  0.49618  1.0000
  C   C63       1.0  0.11506  0.65834  0.46128  1.0000
  C   C64       1.0  0.10705  0.65078  0.42748  1.0000
  H   H90       1.0  0.09299  0.61157  0.46399  1.0000
  H   H91       1.0  0.10818  0.62474  0.52181  1.0000
  H   H92       1.0  0.12091  0.67145  0.46085  1.0000
  H   H93       1.0  0.10660  0.65807  0.40137  1.0000
  C   C65       1.0  0.09353  0.57794  0.27274  1.0000
  C   C66       1.0  0.09663  0.56328  0.27055  1.0000
  C   C67       1.0  0.09715  0.55490  0.30644  1.0000
  C   C68       1.0  0.09462  0.56124  0.34439  1.0000
  C   C69       1.0  0.09231  0.57624  0.34644  1.0000
  C   C70       1.0  0.09168  0.58453  0.31069  1.0000
  H   H94       1.0  0.09840  0.55828  0.24125  1.0000
  H   H95       1.0  0.09956  0.54356  0.30473  1.0000
  H   H96       1.0  0.09039  0.58124  0.37569  1.0000
  H   H97       1.0  0.08926  0.59579  0.31296  1.0000
  H   H98       1.0  0.18425  0.51796  0.22423  1.0000
  C   C71       1.0  0.20837  0.72908  0.81392  1.0000
  C   C72       1.0  0.03298  0.52772  0.59562  1.0000
  H   H99       1.0  0.23662  0.74609  0.88241  1.0000
  C   C73       1.0  0.20787  0.51447  0.16503  1.0000
  H   H100      1.0  0.24050  0.74660  0.76926  1.0000
  H   H101      1.0  0.09476  0.52747  0.01408  1.0000
  H   H102      1.0  0.09976  0.52664  0.08504  1.0000
  H   H103      1.0  0.20219  0.73842  0.81407  1.0000
  C   C74       1.0  0.00727  0.60140  0.23993  1.0000
  H   H104      1.0  0.07649  0.54392  0.60831  1.0000
  H   H105      1.0  0.13867  0.54504  0.86239  1.0000
  C   C75       1.0  0.20692  0.72198  0.77115  1.0000
  N   N2        1.0  0.19220  0.50272  0.14999  1.0000
  H   H106      1.0  0.02054  0.52776  0.60967  1.0000
  H   H107      1.0  0.22504  0.71168  0.83999  1.0000
  C   C76       1.0  0.03123  0.53550  0.68506  1.0000
  H   H108      1.0  0.08474  0.69873  0.11188  1.0000
  H   H109      1.0  0.21923  0.51201  0.15150  1.0000
  Fe  Fe23      1.0  0.07161  0.51602  0.76246  1.0000
  H   H110      1.0  0.03982  0.53200  0.36894  1.0000
  C   C77       1.0  0.11932  0.51160  0.21861  1.0000
  H   H111      1.0  0.11077  0.54626  0.06188  1.0000
  H   H112      1.0  0.24839  0.56656  0.99318  1.0000
  H   H113      1.0  0.21360  0.53545  0.12200  1.0000
  H   H114      1.0  0.11664  0.53594  0.99698  1.0000
  H   H115      1.0  0.19219  0.51578  0.09400  1.0000
  H   H116      1.0  0.05001  0.55333  0.37827  1.0000
  N   N3        1.0  0.11497  0.56971  0.50247  1.0000
  C   C78       1.0  0.09721  0.56697  0.49282  1.0000
  C   C79       1.0  0.12434  0.58745  0.50850  1.0000
  C   C80       1.0  0.08696  0.57502  0.52100  1.0000
  C   C81       1.0  0.12604  0.59903  0.47165  1.0000
  H   H117      1.0  0.09708  0.57128  0.46110  1.0000
  H   H118      1.0  0.08975  0.55372  0.49360  1.0000
  H   H119      1.0  0.11852  0.59183  0.53561  1.0000
  H   H120      1.0  0.13741  0.58938  0.51555  1.0000
  H   H121      1.0  0.10706  0.56404  0.56672  1.0000
  H   H122      1.0  0.08603  0.57134  0.55352  1.0000
  H   H123      1.0  0.09216  0.58850  0.51759  1.0000
  H   H124      1.0  0.07391  0.57123  0.51224  1.0000
  H   H125      1.0  0.13438  0.59702  0.44582  1.0000
  H   H126      1.0  0.11374  0.59789  0.46107  1.0000
  C   C82       1.0  0.20019  0.60383  0.84357  1.0000
  C   C83       1.0  0.18647  0.61178  0.93167  1.0000
  H   H127      1.0  0.20780  0.59909  0.82113  1.0000
  H   H128      1.0  0.18709  0.59887  0.83556  1.0000
  H   H129      1.0  0.20121  0.59884  0.87372  1.0000
  H   H130      1.0  0.19347  0.60483  0.94559  1.0000
  H   H131      1.0  0.17838  0.60356  0.91095  1.0000
  H   H132      1.0  0.17814  0.61420  0.95701  1.0000
  C   C84       1.0  0.04614  0.53291  0.65892  1.0000
  C   C85       1.0  0.11412  0.56017  0.54122  1.0000
  H   H133      1.0  0.13188  0.61182  0.48056  1.0000
  H   H134      1.0  0.05151  0.52420  0.22395  1.0000
  H   H135      1.0  0.06849  0.53713  0.25033  1.0000
  H   H136      1.0  0.21192  0.62851  0.91784  1.0000
  C   C86       1.0  0.04694  0.59373  0.63964  1.0000
  H   H137      1.0  0.11613  0.70039  0.07377  1.0000
  H   H138      1.0  0.10666  0.54707  0.53907  1.0000
  H   H139      1.0  0.17361  0.61446  0.85806  1.0000
  H   H140      1.0  0.22077  0.62557  0.84869  1.0000
  C   C87       1.0  0.04062  0.60581  0.65317  1.0000
  H   H141      1.0  0.11365  0.60858  0.15118  1.0000
  H   H142      1.0  0.12201  0.56904  0.43774  1.0000
  C   C88       1.0  0.20761  0.62259  0.84105  1.0000
  C   C89       1.0  0.19907  0.62808  0.91217  1.0000
  H   H143      1.0  0.07366  0.63973  0.47754  1.0000
  H   H144      1.0  0.13298  0.59280  0.13436  1.0000
  H   H145      1.0  0.16922  0.65301  0.13346  1.0000
  C   C90       1.0  0.12402  0.56409  0.46723  1.0000
  H   H146      1.0  0.20852  0.62653  0.80847  1.0000
  H   H147      1.0  0.14739  0.60929  0.10418  1.0000
  H   H148      1.0  0.13502  0.57166  0.57777  1.0000
  H   H149      1.0  0.13791  0.56901  0.46811  1.0000
  C   C91       1.0  0.13116  0.56156  0.55643  1.0000
  H   H150      1.0  0.14141  0.56351  0.53155  1.0000
  N   N4        1.0  0.19853  0.63158  0.86762  1.0000
  C   C92       1.0  0.18085  0.62765  0.85607  1.0000
  C   C93       1.0  0.13844  0.60635  0.13242  1.0000
  C   C94       1.0  0.16513  0.63966  0.12974  1.0000
  C   C95       1.0  0.12382  0.61238  0.12557  1.0000
  H   H151      1.0  0.15817  0.63718  0.10239  1.0000
  H   H152      1.0  0.17679  0.63667  0.12434  1.0000
  H   H153      1.0  0.12817  0.62575  0.12033  1.0000
  H   H154      1.0  0.10499  0.53945  0.46431  1.0000
  C   C96       1.0  0.07656  0.66945  0.15930  1.0000
  S   S43       1.0  0.22571  0.53551  0.03392  1.0000
  C   C97       1.0  0.05732  0.60990  0.52782  1.0000
  H   H155      1.0  0.02461  0.54168  0.66724  1.0000
  H   H156      1.0  0.12362  0.53988  0.48741  1.0000
  C   C98       1.0  0.11883  0.54548  0.46340  1.0000
  H   H157      1.0  0.17056  0.61061  0.14021  1.0000
  H   H158      1.0  0.11813  0.60689  0.09782  1.0000
  H   H159      1.0  0.18118  0.63122  0.82344  1.0000
  H   H160      1.0  0.23112  0.66974  0.86054  1.0000
  H   H161      1.0  0.17643  0.51774  0.15206  1.0000
  H   H162      1.0  0.06388  0.51464  0.62862  1.0000
  C   C99       1.0  0.00141  0.62388  0.20994  1.0000
  N   N5        1.0  0.14745  0.61261  0.16931  1.0000
  C   C100      1.0  0.15406  0.63098  0.16872  1.0000
  H   H163      1.0  0.12991  0.54997  0.57266  1.0000
  H   H164      1.0  0.14357  0.63586  0.17393  1.0000
  H   H165      1.0  0.12443  0.54286  0.43357  1.0000
  C   C101      1.0  0.10466  0.58910  0.77149  1.0000
  C   C102      1.0  0.22666  0.65622  0.86210  1.0000
  H   H166      1.0  0.22984  0.65254  0.89149  1.0000
  H   H167      1.0  0.16900  0.63307  0.91439  1.0000
  H   H168      1.0  0.05436  0.63882  0.42591  1.0000
  C   C103      1.0  0.16211  0.60664  0.16910  1.0000
  C   C104      1.0  0.20754  0.64962  0.85838  1.0000
  H   H169      1.0  0.12593  0.61299  0.20971  1.0000
  H   H170      1.0  0.10768  0.72144  0.11061  1.0000
  H   H171      1.0  0.04090  0.56920  0.61939  1.0000
  C   C105      1.0  0.13519  0.60653  0.20695  1.0000
  H   H172      1.0  0.16180  0.63543  0.19439  1.0000
  H   H173      1.0  0.14603  0.58164  0.19270  1.0000
  H   H174      1.0  0.20213  0.65693  0.87905  1.0000
  H   H175      1.0  0.23383  0.65253  0.83645  1.0000
  C   C106      1.0  0.03589  0.57848  0.62962  1.0000
  C   C107      1.0  0.15761  0.58796  0.17231  1.0000
  H   H176      1.0  0.12730  0.59350  0.20508  1.0000
  H   H177      1.0  0.17049  0.61232  0.19289  1.0000
  H   H178      1.0  0.15613  0.58266  0.14181  1.0000
  H   H179      1.0  0.20580  0.65313  0.82703  1.0000
  C   C108      1.0  0.10040  0.68820  0.21944  1.0000
  H   H180      1.0  0.16784  0.58512  0.18564  1.0000
  S   S44       1.0  0.00499  0.55584  0.62026  1.0000
  H   H181      1.0  0.04588  0.57784  0.26542  1.0000
  C   C109      1.0  0.16995  0.63583  0.88127  1.0000
  H   H182      1.0  0.06439  0.60794  0.55272  1.0000
  H   H183      1.0  0.20085  0.53664  0.16834  1.0000
  H   H184      1.0  0.13259  0.60400  0.27291  1.0000
  H   H185      1.0  0.15115  0.60110  0.24995  1.0000
  H   H186      1.0  0.08773  0.66733  0.51995  1.0000
  H   H187      1.0  0.15698  0.63127  0.87208  1.0000
  H   H188      1.0  0.17468  0.64918  0.87538  1.0000
  H   H189      1.0  0.09996  0.70068  0.21795  1.0000
  H   H190      1.0  0.11030  0.68842  0.23936  1.0000
  H   H191      1.0  0.11861  0.71217  0.14025  1.0000
  C   C110      1.0  0.07094  0.53485  0.58569  1.0000
  H   H192      1.0  0.06561  0.65898  0.10332  1.0000
  H   H193      1.0  0.04041  0.54074  0.58737  1.0000
  H   H194      1.0  0.00674  0.52556  0.25148  1.0000
  H   H195      1.0  0.11413  0.55272  0.82579  1.0000
  H   H196      1.0  0.01820  0.61187  0.66671  1.0000
  C   C111      1.0  0.04898  0.54787  0.24021  1.0000
  C   C112      1.0  0.12294  0.57888  0.81166  1.0000
  H   H197      1.0  0.09281  0.66557  0.57046  1.0000
  H   H198      1.0  0.08370  0.56997  0.80654  1.0000
  C   C113      1.0  0.03550  0.57206  0.28970  1.0000
  H   H199      1.0  0.08102  0.63858  0.54297  1.0000
  H   H200      1.0  0.09418  0.58669  0.83762  1.0000
  C   C114      1.0  0.11617  0.56103  0.79873  1.0000
  C   C115      1.0  0.09038  0.58332  0.80697  1.0000
  H   H201      1.0  0.06076  0.67692  0.11914  1.0000
  H   H202      1.0  0.13615  0.58140  0.81875  1.0000
  C   C116      1.0  0.11703  0.68880  0.08495  1.0000
  H   H203      1.0  0.11595  0.57940  0.84138  1.0000
  N   N6        1.0  0.09337  0.68237  0.14534  1.0000
  C   C117      1.0  0.09073  0.69843  0.14027  1.0000
  N   N7        1.0  0.22599  0.73618  0.82662  1.0000
  H   H204      1.0  0.06880  0.64083  0.58715  1.0000
  N   N8        1.0  0.05668  0.63925  0.53159  1.0000
  H   H205      1.0  0.04830  0.59793  0.52028  1.0000
  H   H206      1.0  0.05864  0.54058  0.31139  1.0000
  H   H207      1.0  0.16217  0.51028  0.22035  1.0000
  N   N9        1.0  0.04154  0.52099  0.62542  1.0000
  H   H208      1.0  0.08155  0.69972  0.16536  1.0000
  H   H209      1.0  0.05354  0.52898  0.68011  1.0000
  C   C118      1.0  0.07205  0.64468  0.55440  1.0000
  H   H210      1.0  0.08068  0.58880  0.80187  1.0000
  C   C119      1.0  0.02798  0.52602  0.28561  1.0000
  C   C120      1.0  0.12309  0.52037  0.85196  1.0000
  H   H211      1.0  0.19369  0.71879  0.76395  1.0000
  H   H212      1.0  0.01639  0.50423  0.64650  1.0000
  N   N10       1.0  0.12233  0.59143  0.78098  1.0000
  H   H213      1.0  0.10398  0.55792  0.78561  1.0000
  H   H214      1.0  0.10103  0.57986  0.74805  1.0000
  H   H215      1.0  0.21507  0.73080  0.74708  1.0000
  C   C121      1.0  0.06285  0.66581  0.12967  1.0000
  H   H216      1.0  0.04032  0.57451  0.31994  1.0000
  C   C122      1.0  0.04755  0.62133  0.54096  1.0000
  H   H217      1.0  0.12540  0.55829  0.77648  1.0000
  H   H218      1.0  0.04608  0.62104  0.45851  1.0000
  H   H219      1.0  0.02033  0.55260  0.25606  1.0000
  H   H220      1.0  0.06640  0.65617  0.47936  1.0000
  H   H221      1.0  0.20775  0.51279  0.19851  1.0000
  H   H222      1.0  0.03223  0.63535  0.60301  1.0000
  H   H223      1.0  0.05029  0.66125  0.53370  1.0000
  H   H224      1.0  0.01979  0.52336  0.31507  1.0000
  C   C123      1.0  0.03951  0.64784  0.59058  1.0000
  H   H225      1.0  0.09110  0.67603  0.08218  1.0000
  C   C124      1.0  0.04485  0.64824  0.54440  1.0000
  C   C125      1.0  0.13033  0.51677  0.18191  1.0000
  C   C126      1.0  0.01209  0.58730  0.64628  1.0000
  C   C127      1.0  0.05020  0.54786  0.31396  1.0000
  C   C128      1.0  0.01843  0.57519  0.63301  1.0000
  H   H226      1.0  0.10992  0.61369  0.83015  1.0000
  N   N11       1.0  0.03850  0.54383  0.28098  1.0000
  C   C129      1.0  0.13256  0.58973  0.74225  1.0000
  C   C130      1.0  0.02396  0.61185  0.24385  1.0000
  H   H227      1.0  0.12118  0.60451  0.86148  1.0000
  H   H228      1.0  0.14025  0.59854  0.67908  1.0000
  H   H229      1.0  0.05806  0.56058  0.23905  1.0000
  H   H230      1.0  0.11825  0.68981  0.16776  1.0000
  H   H231      1.0  0.10414  0.60053  0.75793  1.0000
  H   H232      1.0  0.14528  0.58996  0.74867  1.0000
  H   H233      1.0  0.03272  0.60723  0.25681  1.0000
  C   C131      1.0  0.01781  0.63422  0.21419  1.0000
  H   H234      1.0  0.03300  0.64323  0.52965  1.0000
  C   C132      1.0  0.13073  0.60827  0.79592  1.0000
  H   H235      1.0  0.14463  0.61453  0.71412  1.0000
  C   C133      1.0  0.02922  0.62833  0.23084  1.0000
  C   C134      1.0  0.02317  0.60257  0.65631  1.0000
  H   H236      1.0  0.12746  0.69118  0.10436  1.0000
  H   H237      1.0  0.08138  0.53142  0.57057  1.0000
  H   H238      1.0  0.02171  0.64688  0.20419  1.0000
  H   H239      1.0  0.20022  0.71922  0.83612  1.0000
  C   C135      1.0  0.12231  0.61281  0.83512  1.0000
  H   H240      1.0  0.12069  0.68297  0.05751  1.0000
  H   H241      1.0  0.12649  0.57775  0.72869  1.0000
  C   C136      1.0  0.10650  0.71411  0.13904  1.0000
  H   H242      1.0  0.14408  0.61022  0.80062  1.0000
  H   H243      1.0  0.13117  0.61776  0.77288  1.0000
  H   H244      1.0  0.10528  0.66994  0.18215  1.0000
  C   C137      1.0  0.09999  0.67727  0.10554  1.0000
  H   H245      1.0  0.20967  0.71047  0.76999  1.0000
  H   H246      1.0  0.10109  0.66504  0.10957  1.0000
  C   C138      1.0  0.05948  0.53697  0.22818  1.0000
  H   H247      1.0  0.12330  0.60425  0.70176  1.0000
  H   H248      1.0  0.05433  0.54523  0.64663  1.0000
  H   H249      1.0  0.08834  0.67977  0.23473  1.0000
  C   C139      1.0  0.02968  0.51877  0.55565  1.0000
  C   C140      1.0  0.06227  0.64286  0.48671  1.0000
  C   C141      1.0  0.04904  0.63441  0.45765  1.0000
  C   C142      1.0  0.10495  0.68241  0.17728  1.0000
  H   H250      1.0  0.05072  0.65773  0.14591  1.0000
  C   C143      1.0  0.13523  0.60262  0.70775  1.0000
  H   H251      1.0  0.13018  0.62520  0.84322  1.0000
  C   C144      1.0  0.13602  0.53230  0.86988  1.0000
  C   C145      1.0  0.21123  0.53263  0.15527  1.0000
  C   C146      1.0  0.22427  0.74059  0.87050  1.0000
  H   H252      1.0  0.02953  0.54657  0.36220  1.0000
  H   H253      1.0  0.06604  0.54041  0.56193  1.0000
  C   C147      1.0  0.23369  0.72300  0.82336  1.0000
  C   C148      1.0  0.05763  0.51928  0.60585  1.0000
  H   H254      1.0  0.06711  0.54170  0.19862  1.0000
  H   H255      1.0  0.11689  0.52047  0.23858  1.0000
  H   H256      1.0  0.21780  0.72942  0.89022  1.0000
  H   H257      1.0  0.02390  0.52530  0.53618  1.0000
  H   H258      1.0  0.01656  0.54883  0.30900  1.0000
  H   H259      1.0  0.12244  0.53359  0.07201  1.0000
  C   C149      1.0  0.17405  0.50772  0.21288  1.0000
  H   H260      1.0  0.10962  0.51840  0.54932  1.0000
  H   H261      1.0  0.23534  0.71967  0.79117  1.0000
  H   H262      1.0  0.13441  0.51899  0.98992  1.0000
  S   S45       1.0  0.10273  0.50956  0.63474  1.0000
  C   C150      1.0  0.14207  0.51135  0.90645  1.0000
  H   H263      1.0  0.03213  0.50341  0.67688  1.0000
  C   C151      1.0  0.10727  0.52689  0.01918  1.0000
  C   C152      1.0  0.17669  0.50630  0.16635  1.0000
  S   S46       1.0  0.06404  0.50259  0.70671  1.0000
  C   C153      1.0  0.24802  0.54386  0.01919  1.0000
  S   S47       1.0  0.14679  0.50995  0.10894  1.0000
  C   C154      1.0  0.19380  0.50430  0.10407  1.0000
  H   H264      1.0  0.14952  0.50777  0.92683  1.0000
  H   H265      1.0  0.20669  0.50555  0.09038  1.0000
  H   H266      1.0  0.11320  0.51534  0.94669  1.0000
  S   S48       1.0  0.05906  0.50880  0.41647  1.0000
  S   S49       1.0  0.09604  0.50623  0.38450  1.0000
  H   H267      1.0  0.08491  0.51749  0.95761  1.0000
  C   C155      1.0  0.09819  0.50788  0.55335  1.0000
  H   H268      1.0  0.09522  0.50626  0.48895  1.0000
  H   H269      1.0  0.13061  0.51542  0.04249  1.0000
  C   C156      1.0  0.08628  0.50536  0.95806  1.0000
  C   C157      1.0  0.13348  0.50520  0.15589  1.0000
  H   H270      1.0  0.05521  0.51012  0.58193  1.0000
  H   H271      1.0  0.00319  0.58871  0.24977  1.0000
  N   N12       1.0  0.10785  0.51008  0.01181  1.0000
  C   C158      1.0  0.12562  0.51042  0.01394  1.0000
  H   H272      1.0  0.00890  0.50628  0.25953  1.0000
  C   C159      1.0  0.10387  0.50619  0.96857  1.0000
  H   H273      1.0  0.02072  0.50617  0.56123  1.0000
  C   C160      1.0  0.02975  0.50483  0.64466  1.0000
  H   H274      1.0  0.11132  0.50503  0.09197  1.0000
  C   C161      1.0  0.11953  0.50383  0.86116  1.0000
  Fe  Fe24      1.0  0.08983  0.50150  0.69866  1.0000
  C   C162      1.0  0.25107  0.72675  0.83895  1.0000
  C   C163      1.0  0.09005  0.50102  0.51915  1.0000
  H   H275      1.0  0.25121  0.73009  0.87126  1.0000
  C   C164      1.0  0.23599  0.75068  0.79864  1.0000
  C   C165      1.0  0.09184  0.50096  0.59266  1.0000
  H   H276      1.0  0.08474  0.50097  0.92660  1.0000
  H   H277      1.0  0.24667  0.77467  0.97276  1.0000
  H   H278      1.0  0.21891  0.76312  0.85809  1.0000
  H   H279      1.0  0.22769  0.75746  0.79064  1.0000
  H   H280      1.0  0.24801  0.77401  0.82686  1.0000
  H   H281      1.0  0.21675  0.75703  0.91078  1.0000
  C   C166      1.0  0.21462  0.75244  0.87972  1.0000
  Fe  Fe25      1.0  0.48603  0.09413  0.33873  1.0000
  S   S50       1.0  0.49074  0.07061  0.33742  1.0000
  H   H282      1.0  0.49858  0.18566  0.88299  1.0000
  Fe  Fe26      1.0  0.47779  0.09192  0.25012  1.0000
  S   S51       1.0  0.48113  0.06753  0.24245  1.0000
  S   S52       1.0  0.47120  0.10622  0.20033  1.0000
  Fe  Fe27      1.0  0.46740  0.06097  0.30526  1.0000
  S   S53       1.0  0.45267  0.03547  0.33120  1.0000
  S   S54       1.0  0.46164  0.08429  0.31070  1.0000
  Fe  Fe28      1.0  0.48270  0.06773  0.67952  1.0000
  S   S55       1.0  0.46344  0.07997  0.68784  1.0000
  S   S56       1.0  0.47971  0.04100  0.68529  1.0000
  H   H283      1.0  0.41920  0.00931  0.39199  1.0000
  N   N13       1.0  0.42861  0.03184  0.57263  1.0000
  Fe  Fe29      1.0  0.48368  0.10080  0.71392  1.0000
  H   H284      1.0  0.49250  0.14585  0.89326  1.0000
  Fe  Fe30      1.0  0.47480  0.09219  0.62626  1.0000
  S   S57       1.0  0.45882  0.08969  0.57377  1.0000
  H   H285      1.0  0.41428  0.02979  0.47583  1.0000
  C   C167      1.0  0.49112  0.23442  0.84254  1.0000
  H   H286      1.0  0.47723  0.12130  0.28099  1.0000
  C   C168      1.0  0.49017  0.11344  0.47477  1.0000
  H   H287      1.0  0.40683  0.03838  0.51934  1.0000
  C   C169      1.0  0.44471  0.03043  0.58467  1.0000
  H   H288      1.0  0.38175  0.01733  0.31641  1.0000
  H   H289      1.0  0.43379  0.02174  0.51479  1.0000
  H   H290      1.0  0.43562  0.05811  0.56664  1.0000
  H   H291      1.0  0.47674  0.02816  0.25243  1.0000
  C   C170      1.0  0.45940  0.02601  0.68734  1.0000
  C   C171      1.0  0.44496  0.02943  0.70151  1.0000
  C   C172      1.0  0.42895  0.01721  0.70280  1.0000
  H   H292      1.0  0.46099  0.05641  0.57966  1.0000
  C   C173      1.0  0.42902  0.03136  0.52688  1.0000
  H   H293      1.0  0.40164  0.01914  0.58912  1.0000
  H   H294      1.0  0.44613  0.04143  0.71199  1.0000
  H   H295      1.0  0.47658  0.13830  0.22604  1.0000
  H   H296      1.0  0.47459  0.20953  0.84962  1.0000
  C   C174      1.0  0.49164  0.15946  0.35301  1.0000
  C   C175      1.0  0.48631  0.12091  0.16564  1.0000
  C   C176      1.0  0.42888  0.05174  0.63063  1.0000
  H   H297      1.0  0.46740  0.12655  0.13569  1.0000
  C   C177      1.0  0.44078  0.02018  0.30081  1.0000
  H   H298      1.0  0.46335  0.04501  0.53534  1.0000
  C   C178      1.0  0.46101  0.04444  0.56902  1.0000
  S   S58       1.0  0.49279  0.07871  0.61697  1.0000
  H   H299      1.0  0.46757  0.15113  0.25309  1.0000
  C   C179      1.0  0.43326  0.02390  0.26811  1.0000
  H   H300      1.0  0.44629  0.01899  0.57361  1.0000
  H   H301      1.0  0.50053  0.17091  0.36372  1.0000
  H   H302      1.0  0.47861  0.18607  0.87266  1.0000
  H   H303      1.0  0.43542  0.03648  0.25972  1.0000
  C   C180      1.0  0.46899  0.09476  0.52365  1.0000
  C   C181      1.0  0.48340  0.10859  0.51531  1.0000
  C   C182      1.0  0.47768  0.13144  0.30165  1.0000
  C   C183      1.0  0.48310  0.10409  0.44231  1.0000
  C   C184      1.0  0.46905  0.08991  0.45069  1.0000
  C   C185      1.0  0.46183  0.08544  0.49117  1.0000
  C   C186      1.0  0.49655  0.14403  0.86215  1.0000
  H   H304      1.0  0.41426  0.01830  0.62701  1.0000
  H   H305      1.0  0.48652  0.02612  0.31929  1.0000
  H   H306      1.0  0.41786  0.01988  0.71424  1.0000
  H   H307      1.0  0.41600  0.01421  0.22308  1.0000
  C   C187      1.0  0.45927  0.12958  0.31576  1.0000
  C   C188      1.0  0.41403  0.01800  0.59340  1.0000
  H   H308      1.0  0.48888  0.11597  0.54004  1.0000
  H   H309      1.0  0.45357  0.11852  0.33620  1.0000
  C   C189      1.0  0.36971  0.00689  0.32171  1.0000
  H   H310      1.0  0.45822  0.14008  0.33296  1.0000
  N   N14       1.0  0.48832  0.14754  0.28071  1.0000
  H   H311      1.0  0.36242  0.00833  0.35022  1.0000
  C   C190      1.0  0.43784  0.00383  0.31156  1.0000
  H   H312      1.0  0.50077  0.17268  0.29488  1.0000
  C   C191      1.0  0.49156  0.12813  0.80050  1.0000
  H   H313      1.0  0.48929  0.23817  0.87415  1.0000
  C   C192      1.0  0.48658  0.13076  0.84106  1.0000
  C   C193      1.0  0.41213  0.02889  0.50963  1.0000
  H   H314      1.0  0.49498  0.17546  0.22889  1.0000
  C   C194      1.0  0.49240  0.14175  0.11057  1.0000
  H   H315      1.0  0.47078  0.21111  0.91784  1.0000
  H   H316      1.0  0.41398  0.04780  0.58049  1.0000
  H   H317      1.0  0.45164  0.12772  0.28954  1.0000
  H   H318      1.0  0.47856  0.16552  0.30675  1.0000
  C   C195      1.0  0.49426  0.18441  0.81952  1.0000
  H   H319      1.0  0.49572  0.00447  0.23091  1.0000
  H   H320      1.0  0.44427  0.02929  0.61824  1.0000
  C   C196      1.0  0.42228  0.01128  0.24743  1.0000
  H   H321      1.0  0.48722  0.18823  0.79735  1.0000
  C   C197      1.0  0.48077  0.12944  0.13715  1.0000
  H   H322      1.0  0.42733  0.06370  0.63596  1.0000
  H   H323      1.0  0.40275  0.01664  0.51818  1.0000
  H   H324      1.0  0.47109  0.01082  0.22155  1.0000
  H   H325      1.0  0.48086  0.21201  0.96318  1.0000
  H   H326      1.0  0.48795  0.14822  0.08892  1.0000
  H   H327      1.0  0.41930  0.04269  0.65198  1.0000
  H   H328      1.0  0.43818  0.04291  0.51229  1.0000
  C   C198      1.0  0.48979  0.16383  0.21354  1.0000
  C   C199      1.0  0.49229  0.19122  0.86210  1.0000
  H   H329      1.0  0.47487  0.12247  0.85623  1.0000
  H   H330      1.0  0.45057  0.07485  0.49729  1.0000
  H   H331      1.0  0.46344  0.08267  0.42590  1.0000
  C   C200      1.0  0.49771  0.21358  0.90845  1.0000
  S   S59       1.0  0.47842  0.11118  0.77548  1.0000
  C   C201      1.0  0.47982  0.14951  0.24382  1.0000
  H   H332      1.0  0.46878  0.00752  0.66354  1.0000
  H   H333      1.0  0.48172  0.23724  0.82553  1.0000
  C   C202      1.0  0.42666  0.04765  0.58564  1.0000
  H   H334      1.0  0.47185  0.04234  0.58128  1.0000
  H   H335      1.0  0.47536  0.19363  0.93652  1.0000
  H   H336      1.0  0.44166  0.05309  0.63841  1.0000
  C   C203      1.0  0.45769  0.01032  0.67430  1.0000
  C   C204      1.0  0.48002  0.20708  0.93217  1.0000
  H   H337      1.0  0.40424  0.00361  0.33298  1.0000
  C   C205      1.0  0.47735  0.01575  0.24908  1.0000
  C   C206      1.0  0.48989  0.16187  0.30732  1.0000
  S   S60       1.0  0.49201  0.11080  0.39186  1.0000
  H   H338      1.0  0.48313  0.12859  0.32850  1.0000
  C   C207      1.0  0.42723  0.00156  0.68939  1.0000
  H   H339      1.0  0.49649  0.14971  0.36054  1.0000
  C   C208      1.0  0.49996  0.03160  0.30702  1.0000
  H   H340      1.0  0.46986  0.00795  0.27539  1.0000
  H   H341      1.0  0.49011  0.21390  0.80717  1.0000
  H   H342      1.0  0.48887  0.17090  0.82215  1.0000
  C   C209      1.0  0.49579  0.01627  0.24350  1.0000
  S   S61       1.0  0.49312  0.11416  0.65269  1.0000
  H   H343      1.0  0.50092  0.12452  0.46857  1.0000
  N   N15       1.0  0.49888  0.20955  0.86417  1.0000
  H   H344      1.0  0.36231  0.00743  0.29611  1.0000
  H   H345      1.0  0.39345  0.01173  0.37075  1.0000
  C   C210      1.0  0.48821  0.21611  0.84011  1.0000
  H   H346      1.0  0.47946  0.15738  0.37175  1.0000
  H   H347      1.0  0.48122  0.16547  0.19184  1.0000
  H   H348      1.0  0.50068  0.04256  0.28857  1.0000
  H   H349      1.0  0.50002  0.16117  0.19467  1.0000
  H   H350      1.0  0.44363  0.00089  0.33686  1.0000
  H   H351      1.0  0.48188  0.00188  0.34745  1.0000
  C   C211      1.0  0.49621  0.42241  0.50035  1.0000
  H   H352      1.0  0.50007  0.27051  0.13374  1.0000
  Fe  Fe31      1.0  0.47346  0.42054  0.30468  1.0000
  S   S62       1.0  0.47845  0.39686  0.30389  1.0000
  S   S63       1.0  0.45154  0.42436  0.27815  1.0000
  Fe  Fe32      1.0  0.48500  0.40249  0.36818  1.0000
  S   S64       1.0  0.47739  0.38585  0.42458  1.0000
  H   H353      1.0  0.43254  0.39904  0.15822  1.0000
  H   H354      1.0  0.43212  0.45470  0.84849  1.0000
  S   S65       1.0  0.47728  0.42450  0.37032  1.0000
  C   C212      1.0  0.48541  0.39751  0.54200  1.0000
  C   C213      1.0  0.45876  0.40119  0.14272  1.0000
  H   H355      1.0  0.47164  0.37499  0.22504  1.0000
  H   H356      1.0  0.44397  0.40133  0.20183  1.0000
  Fe  Fe33      1.0  0.45813  0.40560  0.70381  1.0000
  S   S66       1.0  0.47470  0.43004  0.67788  1.0000
  S   S67       1.0  0.42993  0.39851  0.70704  1.0000
  H   H357      1.0  0.44650  0.48054  0.75517  1.0000
  C   C214      1.0  0.48070  0.38864  0.50690  1.0000
  H   H358      1.0  0.47249  0.49226  0.78188  1.0000
  S   S68       1.0  0.47214  0.39164  0.66759  1.0000
  S   S69       1.0  0.47183  0.40674  0.75939  1.0000
  Fe  Fe34      1.0  0.40743  0.47733  0.68500  1.0000
  H   H359      1.0  0.36875  0.49721  0.11924  1.0000
  S   S70       1.0  0.39355  0.45032  0.69352  1.0000
  C   C215      1.0  0.39283  0.45469  0.37771  1.0000
  H   H360      1.0  0.44689  0.39075  0.48984  1.0000
  H   H361      1.0  0.45882  0.40688  0.57991  1.0000
  H   H362      1.0  0.44408  0.49378  0.41930  1.0000
  S   S71       1.0  0.40409  0.48686  0.28982  1.0000
  C   C216      1.0  0.41898  0.46282  0.43782  1.0000
  S   S72       1.0  0.43233  0.48787  0.64704  1.0000
  H   H363      1.0  0.44005  0.38239  0.63374  1.0000
  C   C217      1.0  0.44760  0.41055  0.58742  1.0000
  H   H364      1.0  0.40346  0.44822  0.48995  1.0000
  H   H365      1.0  0.44540  0.40959  0.62128  1.0000
  H   H366      1.0  0.49442  0.38383  0.09473  1.0000
  H   H367      1.0  0.44673  0.40888  0.46554  1.0000
  H   H368      1.0  0.41236  0.43614  0.80132  1.0000
  H   H369      1.0  0.45863  0.45873  0.69798  1.0000
  H   H370      1.0  0.48990  0.40960  0.09887  1.0000
  H   H371      1.0  0.42201  0.44321  0.47451  1.0000
  C   C218      1.0  0.40431  0.43638  0.69527  1.0000
  C   C219      1.0  0.39533  0.42068  0.71160  1.0000
  C   C220      1.0  0.40337  0.40925  0.71469  1.0000
  C   C221      1.0  0.42050  0.41338  0.70164  1.0000
  C   C222      1.0  0.42948  0.42896  0.68421  1.0000
  C   C223      1.0  0.42137  0.44046  0.68091  1.0000
  H   H372      1.0  0.38210  0.41737  0.72234  1.0000
  H   H373      1.0  0.39628  0.39719  0.72776  1.0000
  H   H374      1.0  0.44256  0.43212  0.67301  1.0000
  H   H375      1.0  0.42825  0.45242  0.66713  1.0000
  C   C224      1.0  0.45240  0.44480  0.27641  1.0000
  C   C225      1.0  0.43831  0.44846  0.26693  1.0000
  C   C226      1.0  0.43879  0.46469  0.26560  1.0000
  C   C227      1.0  0.45346  0.47736  0.27314  1.0000
  C   C228      1.0  0.46755  0.47368  0.28248  1.0000
  C   C229      1.0  0.46696  0.45746  0.28457  1.0000
  H   H376      1.0  0.42700  0.43873  0.26056  1.0000
  H   H377      1.0  0.42790  0.46743  0.25810  1.0000
  H   H378      1.0  0.47892  0.48339  0.28851  1.0000
  H   H379      1.0  0.47783  0.45481  0.29234  1.0000
  S   S73       1.0  0.39550  0.49402  0.65820  1.0000
  S   S74       1.0  0.41516  0.49238  0.73966  1.0000
  C   C230      1.0  0.48446  0.38466  0.11818  1.0000
  Fe  Fe35      1.0  0.48967  0.43015  0.72973  1.0000
  C   C231      1.0  0.48818  0.37076  0.86611  1.0000
  H   H380      1.0  0.40430  0.45009  0.82725  1.0000
  C   C232      1.0  0.48394  0.39669  0.46844  1.0000
  H   H381      1.0  0.42085  0.42420  0.60452  1.0000
  H   H382      1.0  0.44704  0.41858  0.16779  1.0000
  H   H383      1.0  0.47464  0.37555  0.50946  1.0000
  H   H384      1.0  0.47233  0.37922  0.10511  1.0000
  H   H385      1.0  0.41865  0.48398  0.38084  1.0000
  C   C233      1.0  0.48792  0.37491  0.82497  1.0000
  C   C234      1.0  0.48152  0.42489  0.16097  1.0000
  H   H386      1.0  0.48844  0.40074  0.20703  1.0000
  H   H387      1.0  0.47833  0.37942  0.81620  1.0000
  H   H388      1.0  0.49288  0.27915  0.17729  1.0000
  H   H389      1.0  0.40902  0.41674  0.56119  1.0000
  H   H390      1.0  0.38788  0.45408  0.41023  1.0000
  C   C235      1.0  0.49760  0.30216  0.08931  1.0000
  C   C236      1.0  0.44457  0.43087  0.81693  1.0000
  H   H391      1.0  0.45923  0.41047  0.50685  1.0000
  H   H392      1.0  0.45971  0.40674  0.11171  1.0000
  H   H393      1.0  0.45373  0.38794  0.13834  1.0000
  H   H394      1.0  0.47344  0.46474  0.79540  1.0000
  H   H395      1.0  0.45746  0.44234  0.76000  1.0000
  H   H396      1.0  0.39433  0.46667  0.36380  1.0000
  H   H397      1.0  0.47359  0.42846  0.18539  1.0000
  H   H398      1.0  0.38303  0.44552  0.36203  1.0000
  H   H399      1.0  0.38175  0.48498  0.48907  1.0000
  H   H400      1.0  0.41006  0.46962  0.44324  1.0000
  H   H401      1.0  0.44585  0.38215  0.55532  1.0000
  C   C237      1.0  0.41425  0.44927  0.80384  1.0000
  C   C238      1.0  0.45341  0.42884  0.57441  1.0000
  H   H402      1.0  0.41847  0.37029  0.62758  1.0000
  N   N16       1.0  0.42376  0.46180  0.39300  1.0000
  C   C239      1.0  0.40930  0.45089  0.37177  1.0000
  C   C240      1.0  0.43881  0.45628  0.38605  1.0000
  H   H403      1.0  0.41186  0.45414  0.77491  1.0000
  H   H404      1.0  0.43169  0.47186  0.82090  1.0000
  C   C241      1.0  0.43542  0.43780  0.38674  1.0000
  H   H405      1.0  0.49444  0.41995  0.43613  1.0000
  H   H406      1.0  0.40579  0.43792  0.38142  1.0000
  H   H407      1.0  0.41308  0.45129  0.33836  1.0000
  H   H408      1.0  0.44580  0.46085  0.35562  1.0000
  H   H409      1.0  0.44797  0.46160  0.40855  1.0000
  N   N17       1.0  0.47584  0.40657  0.15841  1.0000
  H   H410      1.0  0.44354  0.41860  0.80600  1.0000
  C   C242      1.0  0.47546  0.39930  0.20019  1.0000
  Fe  Fe36      1.0  0.48753  0.39502  0.72122  1.0000
  H   H411      1.0  0.42760  0.43129  0.41440  1.0000
  H   H412      1.0  0.44764  0.43577  0.38567  1.0000
  H   H413      1.0  0.42960  0.43224  0.35917  1.0000
  H   H414      1.0  0.40353  0.43650  0.44701  1.0000
  H   H415      1.0  0.48314  0.39124  0.57144  1.0000
  H   H416      1.0  0.44397  0.43294  0.56161  1.0000
  H   H417      1.0  0.47368  0.47069  0.73026  1.0000
  C   C243      1.0  0.41175  0.44668  0.46328  1.0000
  C   C244      1.0  0.44714  0.40332  0.49555  1.0000
  C   C245      1.0  0.44601  0.44218  0.77980  1.0000
  H   H418      1.0  0.45741  0.49003  0.82613  1.0000
  H   H419      1.0  0.43534  0.43612  0.76189  1.0000
  C   C246      1.0  0.48832  0.40266  0.12827  1.0000
  C   C247      1.0  0.46446  0.38115  0.20884  1.0000
  H   H420      1.0  0.45632  0.48798  0.37776  1.0000
  C   C248      1.0  0.42872  0.47872  0.37379  1.0000
  H   H421      1.0  0.39675  0.49365  0.55065  1.0000
  C   C249      1.0  0.46243  0.46746  0.81008  1.0000
  C   C250      1.0  0.44495  0.40535  0.16951  1.0000
  H   H422      1.0  0.46450  0.48059  0.69760  1.0000
  H   H423      1.0  0.43011  0.47035  0.45273  1.0000
  H   H424      1.0  0.45718  0.43621  0.60143  1.0000
  C   C251      1.0  0.44710  0.46819  0.74998  1.0000
  H   H425      1.0  0.45598  0.43519  0.83342  1.0000
  H   H426      1.0  0.47834  0.49055  0.83160  1.0000
  H   H427      1.0  0.48853  0.29858  0.06603  1.0000
  H   H428      1.0  0.43519  0.36311  0.61082  1.0000
  H   H429      1.0  0.39949  0.41140  0.61206  1.0000
  N   N18       1.0  0.44682  0.45924  0.78924  1.0000
  H   H430      1.0  0.47871  0.37206  0.88881  1.0000
  H   H431      1.0  0.46504  0.43225  0.55273  1.0000
  C   C252      1.0  0.46182  0.46949  0.71727  1.0000
  C   C253      1.0  0.43167  0.45922  0.81722  1.0000
  H   H432      1.0  0.46046  0.37396  0.18198  1.0000
  C   C254      1.0  0.46777  0.48613  0.81236  1.0000
  H   H433      1.0  0.46085  0.46253  0.84194  1.0000
  H   H434      1.0  0.43550  0.46212  0.73527  1.0000
  N   N19       1.0  0.43254  0.39906  0.56900  1.0000
  C   C255      1.0  0.43354  0.38215  0.57044  1.0000
  C   C256      1.0  0.43193  0.40334  0.52499  1.0000
  C   C257      1.0  0.41630  0.39830  0.59338  1.0000
  H   H435      1.0  0.43314  0.42928  0.83812  1.0000
  C   C258      1.0  0.43168  0.37421  0.61329  1.0000
  C   C259      1.0  0.41144  0.41368  0.59203  1.0000
  H   H436      1.0  0.42373  0.37361  0.55325  1.0000
  H   H437      1.0  0.43074  0.41542  0.52092  1.0000
  H   H438      1.0  0.42042  0.39468  0.51337  1.0000
  H   H439      1.0  0.40552  0.38809  0.58347  1.0000
  H   H440      1.0  0.41663  0.39566  0.62622  1.0000
  H   H441      1.0  0.48511  0.37729  0.14488  1.0000
  H   H442      1.0  0.45312  0.38010  0.23005  1.0000
  Fe  Fe37      1.0  0.48973  0.41640  0.64511  1.0000
  H   H443      1.0  0.43027  0.47835  0.34001  1.0000
  H   H444      1.0  0.49047  0.29725  0.11918  1.0000
  C   C260      1.0  0.39440  0.49382  0.48595  1.0000
  H   H445      1.0  0.47079  0.40620  0.22387  1.0000
  S   S75       1.0  0.38052  0.49597  0.19771  1.0000
  H   H446      1.0  0.49926  0.35375  0.19483  1.0000
  H   H447      1.0  0.47995  0.43064  0.13213  1.0000
  C   C261      1.0  0.44507  0.49140  0.38639  1.0000
  S   S76       1.0  0.39078  0.49442  0.40423  1.0000
  S   S77       1.0  0.45461  0.49785  0.27214  1.0000
  C   C262      1.0  0.49181  0.41359  0.46541  1.0000
  C   C263      1.0  0.49325  0.41446  0.53862  1.0000
  H   H448      1.0  0.49445  0.47402  0.65174  1.0000
  C   C264      1.0  0.40288  0.49869  0.52088  1.0000
  H   H449      1.0  0.36761  0.49801  0.87232  1.0000
  S   S78       1.0  0.49978  0.35920  0.93004  1.0000
  S   S79       1.0  0.49987  0.43579  0.28199  1.0000
  S   S80       1.0  0.49973  0.42633  0.58095  1.0000
  H   H450      1.0  0.49409  0.49727  0.69483  1.0000
  S   S81       1.0  0.49980  0.37761  0.74309  1.0000
  C   C265      1.0  0.49981  0.37282  0.79524  1.0000
  C   C266      1.0  0.50049  0.36478  0.87807  1.0000
  S   S82       1.0  0.49929  0.45249  0.76604  1.0000
  C   C267      1.0  0.49991  0.43352  0.16991  1.0000
  C   C268      1.0  0.40206  0.50051  0.44720  1.0000
  H   H451      1.0  0.50099  0.40649  0.13949  1.0000
  H   H452      1.0  0.50099  0.42006  0.85720  1.0000
  Fe  Fe38      1.0  0.35182  0.54956  0.04826  1.0000
  S   S83       1.0  0.37278  0.55142  0.99979  1.0000
  S   S84       1.0  0.35248  0.54614  0.11603  1.0000
  Fe  Fe39      1.0  0.33049  0.55921  0.99006  1.0000
  S   S85       1.0  0.35051  0.56270  0.93669  1.0000
  S   S86       1.0  0.30601  0.56444  0.98241  1.0000
  Fe  Fe40      1.0  0.35244  0.53937  0.95979  1.0000
  S   S87       1.0  0.35377  0.51892  0.91887  1.0000
  Fe  Fe41      1.0  0.36975  0.57469  0.97983  1.0000
  S   S88       1.0  0.39466  0.59489  0.96036  1.0000
  S   S89       1.0  0.33140  0.53508  0.01081  1.0000
  S   S90       1.0  0.34986  0.57369  0.03060  1.0000
  Fe  Fe42      1.0  0.45200  0.67374  0.05626  1.0000
  S   S91       1.0  0.46582  0.68884  0.10542  1.0000
  S   S92       1.0  0.42549  0.65536  0.06997  1.0000
  H   H453      1.0  0.28137  0.51801  0.10425  1.0000
  H   H454      1.0  0.39589  0.54173  0.40496  1.0000
  C   C269      1.0  0.42017  0.65435  0.88649  1.0000
  Fe  Fe43      1.0  0.48805  0.68313  0.07685  1.0000
  C   C270      1.0  0.31462  0.55644  0.16906  1.0000
  Fe  Fe44      1.0  0.47386  0.71040  0.06013  1.0000
  H   H455      1.0  0.25442  0.71555  0.83738  1.0000
  S   S93       1.0  0.47371  0.66668  0.03045  1.0000
  S   S94       1.0  0.45802  0.69555  0.01365  1.0000
  H   H456      1.0  0.49817  0.55083  0.31066  1.0000
  S   S95       1.0  0.42992  0.52283  0.67294  1.0000
  S   S96       1.0  0.39458  0.52802  0.74226  1.0000
  H   H457      1.0  0.32002  0.55339  0.08221  1.0000
  S   S97       1.0  0.46474  0.51366  0.72174  1.0000
  C   C271      1.0  0.40680  0.64080  0.91389  1.0000
  S   S98       1.0  0.46669  0.58359  0.76856  1.0000
  Fe  Fe45      1.0  0.41987  0.53380  0.28459  1.0000
  H   H458      1.0  0.49041  0.62158  0.19342  1.0000
  S   S99       1.0  0.42902  0.56109  0.28251  1.0000
  H   H459      1.0  0.36500  0.54581  0.85775  1.0000
  H   H460      1.0  0.38050  0.54872  0.78863  1.0000
  H   H461      1.0  0.27716  0.54049  0.12494  1.0000
  S   S100      1.0  0.49234  0.60154  0.45860  1.0000
  C   C272      1.0  0.45087  0.56754  0.27179  1.0000
  C   C273      1.0  0.45879  0.55607  0.26455  1.0000
  C   C274      1.0  0.47636  0.56096  0.26024  1.0000
  H   H462      1.0  0.49445  0.61136  0.14933  1.0000
  C   C275      1.0  0.47815  0.58895  0.26740  1.0000
  C   C276      1.0  0.46055  0.58404  0.27255  1.0000
  H   H463      1.0  0.45146  0.54333  0.26347  1.0000
  H   H464      1.0  0.48238  0.55198  0.25597  1.0000
  Fe  Fe46      1.0  0.43910  0.50434  0.69914  1.0000
  H   H465      1.0  0.45452  0.59294  0.27867  1.0000
  H   H466      1.0  0.46689  0.57778  0.35381  1.0000
  C   C277      1.0  0.25818  0.53463  0.02738  1.0000
  H   H467      1.0  0.42792  0.60550  0.20064  1.0000
  H   H468      1.0  0.46987  0.55882  0.35250  1.0000
  C   C278      1.0  0.46593  0.53250  0.74167  1.0000
  C   C279      1.0  0.48140  0.54527  0.74092  1.0000
  C   C280      1.0  0.48180  0.56102  0.75022  1.0000
  C   C281      1.0  0.46673  0.56389  0.76074  1.0000
  C   C282      1.0  0.45139  0.55100  0.76325  1.0000
  C   C283      1.0  0.45101  0.53531  0.75417  1.0000
  H   H469      1.0  0.31378  0.54960  0.80709  1.0000
  H   H470      1.0  0.44541  0.64215  0.19979  1.0000
  H   H471      1.0  0.43971  0.55322  0.77061  1.0000
  H   H472      1.0  0.43903  0.52549  0.75563  1.0000
  C   C284      1.0  0.28091  0.56143  0.16014  1.0000
  H   H473      1.0  0.49523  0.51191  0.23905  1.0000
  H   H474      1.0  0.29716  0.50878  0.10088  1.0000
  C   C285      1.0  0.44990  0.64972  0.92032  1.0000
  C   C286      1.0  0.31555  0.57539  0.09570  1.0000
  H   H475      1.0  0.28884  0.54441  0.91487  1.0000
  H   H476      1.0  0.31873  0.55672  0.23298  1.0000
  H   H477      1.0  0.48414  0.67783  0.18241  1.0000
  H   H478      1.0  0.31758  0.57997  0.06347  1.0000
  N   N20       1.0  0.30311  0.54783  0.13790  1.0000
  C   C287      1.0  0.41426  0.67285  0.97146  1.0000
  C   C288      1.0  0.28372  0.55611  0.99745  1.0000
  C   C289      1.0  0.27356  0.56527  0.98906  1.0000
  H   H479      1.0  0.29712  0.54703  0.22482  1.0000
  C   C290      1.0  0.30332  0.52003  0.85144  1.0000
  H   H480      1.0  0.49371  0.57098  0.74845  1.0000
  C   C291      1.0  0.27584  0.54065  0.01653  1.0000
  H   H481      1.0  0.27938  0.57721  0.97416  1.0000
  H   H482      1.0  0.26310  0.73454  0.94282  1.0000
  C   C292      1.0  0.37392  0.51061  0.17389  1.0000
  H   H483      1.0  0.28329  0.53324  0.02247  1.0000
  C   C293      1.0  0.40326  0.61022  0.99497  1.0000
  C   C294      1.0  0.42081  0.61814  0.99257  1.0000
  C   C295      1.0  0.42786  0.63153  0.01676  1.0000
  C   C296      1.0  0.41739  0.63743  0.04255  1.0000
  C   C297      1.0  0.39990  0.62916  0.04593  1.0000
  C   C298      1.0  0.39286  0.61557  0.02243  1.0000
  H   H484      1.0  0.42896  0.61404  0.97157  1.0000
  H   H485      1.0  0.44136  0.63756  0.01463  1.0000
  H   H486      1.0  0.39171  0.63350  0.06618  1.0000
  H   H487      1.0  0.37934  0.60961  0.02451  1.0000
  C   C299      1.0  0.36155  0.53275  0.13652  1.0000
  C   C300      1.0  0.36703  0.53540  0.17551  1.0000
  C   C301      1.0  0.37342  0.52452  0.19387  1.0000
  H   H488      1.0  0.28264  0.53648  0.86716  1.0000
  H   H489      1.0  0.43295  0.69096  0.93283  1.0000
  C   C302      1.0  0.36247  0.51909  0.11597  1.0000
  H   H490      1.0  0.36633  0.54590  0.19167  1.0000
  H   H491      1.0  0.37755  0.52668  0.22394  1.0000
  H   H492      1.0  0.47251  0.63460  0.09733  1.0000
  C   C303      1.0  0.38323  0.52516  0.79145  1.0000
  C   C304      1.0  0.37958  0.51090  0.81537  1.0000
  S   S101      1.0  0.48558  0.68912  0.92173  1.0000
  C   C305      1.0  0.36532  0.52177  0.87001  1.0000
  C   C306      1.0  0.36905  0.53608  0.84619  1.0000
  C   C307      1.0  0.37783  0.53769  0.80701  1.0000
  H   H493      1.0  0.41326  0.53896  0.37589  1.0000
  H   H494      1.0  0.32783  0.55736  0.15896  1.0000
  N   N21       1.0  0.45449  0.61432  0.17749  1.0000
  S   S102      1.0  0.49283  0.62793  0.73939  1.0000
  C   C308      1.0  0.46003  0.62624  0.21060  1.0000
  C   C309      1.0  0.46775  0.60676  0.16582  1.0000
  C   C310      1.0  0.45035  0.62190  0.14064  1.0000
  H   H495      1.0  0.30046  0.52642  0.06969  1.0000
  C   C311      1.0  0.44782  0.63515  0.22508  1.0000
  C   C312      1.0  0.31380  0.55669  0.83481  1.0000
  H   H496      1.0  0.49215  0.59101  0.54084  1.0000
  C   C313      1.0  0.29516  0.52067  0.10023  1.0000
  H   H497      1.0  0.44737  0.50312  0.36978  1.0000
  H   H498      1.0  0.47232  0.63590  0.20147  1.0000
  H   H499      1.0  0.46232  0.62000  0.23776  1.0000
  H   H500      1.0  0.46678  0.59689  0.18845  1.0000
  H   H501      1.0  0.46571  0.60078  0.13612  1.0000
  H   H502      1.0  0.44757  0.61311  0.11583  1.0000
  H   H503      1.0  0.43839  0.62446  0.14699  1.0000
  Fe  Fe47      1.0  0.42112  0.50559  0.62349  1.0000
  H   H504      1.0  0.35820  0.51686  0.08604  1.0000
  H   H505      1.0  0.38358  0.50114  0.80375  1.0000
  S   S103      1.0  0.49433  0.61260  0.34177  1.0000
  H   H506      1.0  0.33001  0.54777  0.86642  1.0000
  C   C314      1.0  0.31007  0.52620  0.92330  1.0000
  H   H507      1.0  0.49295  0.53065  0.25462  1.0000
  H   H508      1.0  0.30582  0.53170  0.95072  1.0000
  H   H509      1.0  0.45748  0.64489  0.10623  1.0000
  C   C315      1.0  0.26581  0.74746  0.94611  1.0000
  H   H510      1.0  0.30820  0.50563  0.96312  1.0000
  H   H511      1.0  0.46100  0.55118  0.67397  1.0000
  N   N22       1.0  0.42179  0.56103  0.87699  1.0000
  C   C316      1.0  0.42981  0.57578  0.90109  1.0000
  C   C317      1.0  0.40558  0.55055  0.90076  1.0000
  C   C318      1.0  0.41792  0.56589  0.83624  1.0000
  C   C319      1.0  0.43390  0.55189  0.86958  1.0000
  C   C320      1.0  0.44557  0.58889  0.87913  1.0000
  C   C321      1.0  0.40734  0.54357  0.94241  1.0000
  C   C322      1.0  0.40705  0.57687  0.83736  1.0000
  C   C323      1.0  0.42652  0.53467  0.85288  1.0000
  H   H512      1.0  0.42055  0.58174  0.91153  1.0000
  H   H513      1.0  0.43382  0.57216  0.92963  1.0000
  H   H514      1.0  0.39866  0.54019  0.88261  1.0000
  H   H515      1.0  0.39690  0.55748  0.90733  1.0000
  H   H516      1.0  0.42971  0.57215  0.81600  1.0000
  H   H517      1.0  0.41115  0.55496  0.81965  1.0000
  H   H518      1.0  0.44479  0.55885  0.84744  1.0000
  H   H519      1.0  0.43960  0.55066  0.89783  1.0000
  H   H520      1.0  0.44275  0.59443  0.85175  1.0000
  H   H521      1.0  0.45049  0.59890  0.90015  1.0000
  H   H522      1.0  0.45586  0.58406  0.87051  1.0000
  H   H523      1.0  0.39489  0.53468  0.95460  1.0000
  H   H524      1.0  0.41634  0.53693  0.94060  1.0000
  H   H525      1.0  0.41094  0.55325  0.96485  1.0000
  H   H526      1.0  0.41299  0.58860  0.85173  1.0000
  H   H527      1.0  0.39422  0.57066  0.85287  1.0000
  H   H528      1.0  0.40547  0.57982  0.80559  1.0000
  H   H529      1.0  0.41728  0.52598  0.87559  1.0000
  H   H530      1.0  0.43691  0.52984  0.84543  1.0000
  H   H531      1.0  0.42054  0.53466  0.82452  1.0000
  C   C324      1.0  0.41907  0.51040  0.51726  1.0000
  H   H532      1.0  0.44023  0.55446  0.35903  1.0000
  H   H533      1.0  0.45976  0.57784  0.44772  1.0000
  Fe  Fe48      1.0  0.39718  0.50389  0.24894  1.0000
  C   C325      1.0  0.41843  0.51187  0.44356  1.0000
  H   H534      1.0  0.48269  0.56020  0.65547  1.0000
  H   H535      1.0  0.46411  0.59582  0.40079  1.0000
  H   H536      1.0  0.32793  0.58041  0.10812  1.0000
  C   C326      1.0  0.30925  0.55660  0.09678  1.0000
  C   C327      1.0  0.31707  0.54824  0.87259  1.0000
  C   C328      1.0  0.42685  0.51686  0.47844  1.0000
  H   H537      1.0  0.40907  0.55775  0.37012  1.0000
  C   C329      1.0  0.30416  0.53097  0.13457  1.0000
  H   H538      1.0  0.44024  0.59625  0.22503  1.0000
  Fe  Fe49      1.0  0.43069  0.50400  0.27599  1.0000
  Fe  Fe50      1.0  0.48088  0.68933  0.99067  1.0000
  H   H539      1.0  0.44646  0.55887  0.46838  1.0000
  Fe  Fe51      1.0  0.40533  0.51003  0.71029  1.0000
  H   H540      1.0  0.30655  0.58043  0.11166  1.0000
  H   H541      1.0  0.27588  0.51722  0.94875  1.0000
  H   H542      1.0  0.32989  0.52171  0.85698  1.0000
  H   H543      1.0  0.48346  0.67055  0.25572  1.0000
  C   C330      1.0  0.43859  0.60090  0.19490  1.0000
  H   H544      1.0  0.48476  0.51870  0.36289  1.0000
  C   C331      1.0  0.28494  0.54591  0.14996  1.0000
  H   H545      1.0  0.42039  0.57714  0.18465  1.0000
  H   H546      1.0  0.26937  0.55814  0.18205  1.0000
  N   N23       1.0  0.30437  0.53163  0.88545  1.0000
  H   H547      1.0  0.25231  0.52265  0.04196  1.0000
  H   H548      1.0  0.41993  0.54459  0.44618  1.0000
  H   H549      1.0  0.48079  0.73860  0.19976  1.0000
  C   C332      1.0  0.28754  0.53376  0.89535  1.0000
  H   H550      1.0  0.47333  0.56981  0.39791  1.0000
  S   S104      1.0  0.42981  0.51782  0.56030  1.0000
  N   N24       1.0  0.44985  0.57407  0.63527  1.0000
  C   C333      1.0  0.46757  0.57440  0.63869  1.0000
  C   C334      1.0  0.45133  0.59092  0.62065  1.0000
  C   C335      1.0  0.44257  0.56200  0.60359  1.0000
  C   C336      1.0  0.43980  0.56910  0.67644  1.0000
  C   C337      1.0  0.46967  0.55794  0.64766  1.0000
  C   C338      1.0  0.45937  0.60477  0.64915  1.0000
  C   C339      1.0  0.42443  0.55952  0.59477  1.0000
  C   C340      1.0  0.42352  0.57330  0.68456  1.0000
  H   H551      1.0  0.47589  0.57970  0.61025  1.0000
  H   H552      1.0  0.47311  0.58230  0.66363  1.0000
  H   H553      1.0  0.43902  0.59173  0.61506  1.0000
  H   H554      1.0  0.45897  0.59410  0.59039  1.0000
  H   H555      1.0  0.45076  0.56536  0.57411  1.0000
  H   H556      1.0  0.44221  0.54963  0.61251  1.0000
  H   H557      1.0  0.43629  0.55583  0.68262  1.0000
  H   H558      1.0  0.44774  0.57484  0.70089  1.0000
  H   H559      1.0  0.46802  0.55024  0.62070  1.0000
  C   C341      1.0  0.44648  0.55765  0.38737  1.0000
  H   H560      1.0  0.29928  0.55265  0.07571  1.0000
  H   H561      1.0  0.47308  0.60734  0.64917  1.0000
  H   H562      1.0  0.45804  0.61620  0.63786  1.0000
  H   H563      1.0  0.45328  0.60225  0.68086  1.0000
  H   H564      1.0  0.42124  0.55097  0.56955  1.0000
  H   H565      1.0  0.42277  0.57089  0.58473  1.0000
  H   H566      1.0  0.41526  0.55353  0.62127  1.0000
  H   H567      1.0  0.41324  0.56246  0.69905  1.0000
  H   H568      1.0  0.41877  0.57692  0.65754  1.0000
  H   H569      1.0  0.42528  0.58300  0.70705  1.0000
  H   H570      1.0  0.49819  0.60600  0.60442  1.0000
  Fe  Fe52      1.0  0.49164  0.60205  0.74538  1.0000
  C   C342      1.0  0.44153  0.66185  0.93697  1.0000
  C   C343      1.0  0.40915  0.54818  0.39213  1.0000
  H   H571      1.0  0.41433  0.68056  0.90963  1.0000
  H   H572      1.0  0.39484  0.64334  0.91922  1.0000
  C   C344      1.0  0.49220  0.67151  0.19173  1.0000
  H   H573      1.0  0.43429  0.57877  0.36112  1.0000
  H   H574      1.0  0.43319  0.65578  0.96430  1.0000
  H   H575      1.0  0.44048  0.63825  0.91152  1.0000
  H   H576      1.0  0.31229  0.50226  0.91078  1.0000
  H   H577      1.0  0.40503  0.66036  0.97279  1.0000
  H   H578      1.0  0.45969  0.65497  0.89457  1.0000
  H   H579      1.0  0.40414  0.62895  0.89898  1.0000
  C   C345      1.0  0.42365  0.67862  0.92867  1.0000
  H   H580      1.0  0.26106  0.73614  0.81925  1.0000
  H   H581      1.0  0.41083  0.63881  0.94356  1.0000
  H   H582      1.0  0.26150  0.52211  0.92015  1.0000
  S   S105      1.0  0.42407  0.51959  0.23098  1.0000
  C   C346      1.0  0.31019  0.54859  0.21247  1.0000
  C   C347      1.0  0.49184  0.66737  0.23327  1.0000
  N   N25       1.0  0.43773  0.56658  0.41508  1.0000
  C   C348      1.0  0.41994  0.55516  0.42723  1.0000
  C   C349      1.0  0.44630  0.57031  0.45364  1.0000
  C   C350      1.0  0.48601  0.57731  0.26359  1.0000
  C   C351      1.0  0.43690  0.58146  0.39327  1.0000
  H   H583      1.0  0.27930  0.53686  0.17583  1.0000
  C   C352      1.0  0.43844  0.57894  0.48604  1.0000
  S   S106      1.0  0.42915  0.51995  0.32798  1.0000
  C   C353      1.0  0.45247  0.59728  0.39221  1.0000
  H   H584      1.0  0.47760  0.52347  0.31657  1.0000
  H   H585      1.0  0.41269  0.56133  0.44663  1.0000
  H   H586      1.0  0.48566  0.60171  0.26722  1.0000
  H   H587      1.0  0.30200  0.55948  0.83988  1.0000
  C   C354      1.0  0.25590  0.55925  0.99984  1.0000
  H   H588      1.0  0.31238  0.53682  0.21389  1.0000
  H   H589      1.0  0.31535  0.56925  0.17204  1.0000
  H   H590      1.0  0.42604  0.58467  0.40724  1.0000
  S   S107      1.0  0.39263  0.51906  0.30046  1.0000
  C   C355      1.0  0.37053  0.50917  0.85426  1.0000
  H   H591      1.0  0.32407  0.53084  0.92224  1.0000
  H   H592      1.0  0.44725  0.58339  0.50966  1.0000
  H   H593      1.0  0.43627  0.58965  0.47310  1.0000
  H   H594      1.0  0.42647  0.57042  0.50165  1.0000
  H   H595      1.0  0.44560  0.54590  0.40228  1.0000
  C   C356      1.0  0.36843  0.50795  0.13486  1.0000
  H   H596      1.0  0.29875  0.52354  0.16327  1.0000
  H   H597      1.0  0.42907  0.58904  0.13861  1.0000
  H   H598      1.0  0.42451  0.51699  0.41401  1.0000
  H   H599      1.0  0.44962  0.60648  0.41176  1.0000
  N   N26       1.0  0.43238  0.66798  0.90744  1.0000
  C   C357      1.0  0.44560  0.67853  0.87533  1.0000
  C   C358      1.0  0.43929  0.68738  0.84343  1.0000
  H   H600      1.0  0.45031  0.69491  0.82249  1.0000
  H   H601      1.0  0.45554  0.68813  0.88981  1.0000
  H   H602      1.0  0.45224  0.67135  0.85773  1.0000
  H   H603      1.0  0.42694  0.64846  0.86470  1.0000
  H   H604      1.0  0.43056  0.67875  0.82434  1.0000
  H   H605      1.0  0.43338  0.69584  0.85745  1.0000
  H   H606      1.0  0.47514  0.53379  0.36154  1.0000
  H   H607      1.0  0.48589  0.67877  0.83947  1.0000
  C   C359      1.0  0.27332  0.51925  0.91724  1.0000
  H   H608      1.0  0.41294  0.65923  0.86684  1.0000
  C   C360      1.0  0.50086  0.62945  0.50263  1.0000
  H   H609      1.0  0.45646  0.64648  0.94473  1.0000
  H   H610      1.0  0.45140  0.67221  0.94914  1.0000
  S   S108      1.0  0.47103  0.73430  0.08403  1.0000
  H   H611      1.0  0.27852  0.56711  0.13227  1.0000
  H   H612      1.0  0.40716  0.68099  0.98107  1.0000
  H   H613      1.0  0.43942  0.52584  0.47540  1.0000
  H   H614      1.0  0.42319  0.67386  0.99455  1.0000
  H   H615      1.0  0.45550  0.60280  0.36077  1.0000
  H   H616      1.0  0.43577  0.62671  0.24046  1.0000
  H   H617      1.0  0.49300  0.54322  0.73161  1.0000
  C   C361      1.0  0.46519  0.56677  0.37275  1.0000
  C   C362      1.0  0.43219  0.58588  0.16862  1.0000
  H   H618      1.0  0.49990  0.72385  0.19659  1.0000
  H   H619      1.0  0.31791  0.55673  0.89806  1.0000
  H   H620      1.0  0.32420  0.56857  0.82866  1.0000
  H   H621      1.0  0.45370  0.64407  0.24788  1.0000
  H   H622      1.0  0.48931  0.72081  0.15187  1.0000
  H   H623      1.0  0.31754  0.53164  0.12993  1.0000
  H   H624      1.0  0.44122  0.57924  0.16452  1.0000
  H   H625      1.0  0.29066  0.57057  0.17561  1.0000
  Fe  Fe53      1.0  0.40224  0.50382  0.33985  1.0000
  H   H626      1.0  0.29429  0.50767  0.86070  1.0000
  C   C363      1.0  0.32033  0.51842  0.83493  1.0000
  H   H627      1.0  0.32551  0.52580  0.80611  1.0000
  H   H628      1.0  0.31829  0.50559  0.82720  1.0000
  H   H629      1.0  0.27089  0.50799  0.89993  1.0000
  C   C364      1.0  0.49544  0.67645  0.89648  1.0000
  H   H630      1.0  0.50035  0.51188  0.30749  1.0000
  C   C365      1.0  0.49537  0.60409  0.54028  1.0000
  H   H631      1.0  0.29798  0.52388  0.82538  1.0000
  C   C366      1.0  0.49659  0.61254  0.50324  1.0000
  H   H632      1.0  0.47128  0.64569  0.14282  1.0000
  C   C367      1.0  0.48380  0.52867  0.34385  1.0000
  C   C368      1.0  0.46385  0.63751  0.12095  1.0000
  C   C369      1.0  0.49279  0.74383  0.17967  1.0000
  S   S109      1.0  0.49729  0.70556  0.03444  1.0000
  H   H633      1.0  0.48901  0.62913  0.14324  1.0000
  C   C370      1.0  0.49874  0.61255  0.57637  1.0000
  C   C371      1.0  0.48636  0.61806  0.16276  1.0000
  C   C372      1.0  0.49354  0.67351  0.85508  1.0000
  C   C373      1.0  0.30498  0.50768  0.93221  1.0000
  C   C374      1.0  0.50087  0.54240  0.33198  1.0000
  H   H634      1.0  0.49721  0.53018  0.66181  1.0000
  C   C375      1.0  0.49936  0.72991  0.16738  1.0000
  H   H635      1.0  0.29141  0.50089  0.93148  1.0000
  H   H636      1.0  0.50043  0.66213  0.80146  1.0000
  H   H637      1.0  0.48971  0.74970  0.15327  1.0000
  Fe  Fe54      1.0  0.33903  0.84045  0.00625  1.0000
  S   S110      1.0  0.36098  0.85587  0.96397  1.0000
  S   S111      1.0  0.33333  0.84588  0.07233  1.0000
  Fe  Fe55      1.0  0.32601  0.81472  0.94274  1.0000
  S   S112      1.0  0.34740  0.82863  0.89505  1.0000
  S   S113      1.0  0.30807  0.78857  0.93273  1.0000
  Fe  Fe56      1.0  0.36415  0.83246  0.94581  1.0000
  S   S114      1.0  0.39086  0.83241  0.93594  1.0000
  Fe  Fe57      1.0  0.34288  0.85134  0.91630  1.0000
  S   S115      1.0  0.34475  0.87491  0.88237  1.0000
  S   S116      1.0  0.34353  0.81714  0.99159  1.0000
  S   S117      1.0  0.32025  0.83731  0.96046  1.0000
  C   C376      1.0  0.48376  0.90601  0.17163  1.0000
  S   S118      1.0  0.47476  0.83193  0.11935  1.0000
  H   H638      1.0  0.42168  0.99680  0.60133  1.0000
  H   H639      1.0  0.41146  0.98780  0.38987  1.0000
  S   S119      1.0  0.47401  0.86747  0.09253  1.0000
  C   C377      1.0  0.47995  0.78339  0.08755  1.0000
  H   H640      1.0  0.25735  0.75905  0.83848  1.0000
  H   H641      1.0  0.49102  0.88188  0.26958  1.0000
  Fe  Fe58      1.0  0.46012  0.84156  0.07931  1.0000
  S   S120      1.0  0.43165  0.83027  0.08585  1.0000
  C   C378      1.0  0.33814  0.89728  0.01485  1.0000
  S   S121      1.0  0.47644  0.84207  0.02171  1.0000
  Fe  Fe59      1.0  0.38773  0.92495  0.66658  1.0000
  S   S122      1.0  0.40030  0.92303  0.60403  1.0000
  S   S123      1.0  0.37476  0.89992  0.69906  1.0000
  Fe  Fe60      1.0  0.40405  0.96229  0.66243  1.0000
  S   S124      1.0  0.41801  0.96267  0.60145  1.0000
  Fe  Fe61      1.0  0.39389  0.94457  0.58436  1.0000
  S   S125      1.0  0.38950  0.95239  0.52188  1.0000
  Fe  Fe62      1.0  0.42304  0.94132  0.62582  1.0000
  S   S126      1.0  0.44818  0.93864  0.61244  1.0000
  S   S127      1.0  0.37921  0.94522  0.64473  1.0000
  S   S128      1.0  0.41119  0.94220  0.68900  1.0000
  Fe  Fe63      1.0  0.38664  0.92245  0.30014  1.0000
  S   S129      1.0  0.37599  0.93302  0.25126  1.0000
  S   S130      1.0  0.37334  0.91185  0.36247  1.0000
  Fe  Fe64      1.0  0.42020  0.92948  0.25012  1.0000
  S   S131      1.0  0.41270  0.94087  0.19817  1.0000
  S   S132      1.0  0.44550  0.92635  0.24690  1.0000
  Fe  Fe65      1.0  0.40126  0.95314  0.24570  1.0000
  Fe  Fe66      1.0  0.38813  0.91982  0.20678  1.0000
  S   S133      1.0  0.38103  0.91100  0.14378  1.0000
  S   S134      1.0  0.41082  0.94351  0.29732  1.0000
  S   S135      1.0  0.39664  0.90748  0.25598  1.0000
  H   H642      1.0  0.41510  0.87873  0.74171  1.0000
  H   H643      1.0  0.39290  0.86616  0.79326  1.0000
  C   C379      1.0  0.44166  0.99821  0.67482  1.0000
  H   H644      1.0  0.48874  0.95014  0.21338  1.0000
  C   C380      1.0  0.45600  0.93454  0.28933  1.0000
  C   C381      1.0  0.45256  0.94712  0.31006  1.0000
  C   C382      1.0  0.46010  0.95285  0.34552  1.0000
  C   C383      1.0  0.47172  0.94651  0.35922  1.0000
  C   C384      1.0  0.47581  0.93447  0.33751  1.0000
  C   C385      1.0  0.46776  0.92831  0.30298  1.0000
  H   H645      1.0  0.44444  0.95276  0.29824  1.0000
  H   H646      1.0  0.45724  0.96246  0.36164  1.0000
  C   C386      1.0  0.47549  0.91435  0.10868  1.0000
  H   H647      1.0  0.47051  0.91858  0.28732  1.0000
  C   C387      1.0  0.38619  0.94008  0.47910  1.0000
  C   C388      1.0  0.39451  0.94697  0.44113  1.0000
  C   C389      1.0  0.39107  0.93820  0.40558  1.0000
  C   C390      1.0  0.37890  0.92262  0.40730  1.0000
  C   C391      1.0  0.37073  0.91559  0.44544  1.0000
  C   C392      1.0  0.37446  0.92423  0.48131  1.0000
  H   H648      1.0  0.40364  0.95919  0.43917  1.0000
  H   H649      1.0  0.39765  0.94366  0.37678  1.0000
  H   H650      1.0  0.36129  0.90352  0.44718  1.0000
  H   H651      1.0  0.36779  0.91887  0.51039  1.0000
  C   C393      1.0  0.45954  0.94602  0.65390  1.0000
  C   C394      1.0  0.47246  0.94045  0.66240  1.0000
  C   C395      1.0  0.48115  0.94591  0.69640  1.0000
  C   C396      1.0  0.47678  0.95672  0.72244  1.0000
  C   C397      1.0  0.46384  0.96229  0.71393  1.0000
  C   C398      1.0  0.45535  0.95706  0.67941  1.0000
  H   H652      1.0  0.47563  0.93174  0.64319  1.0000
  H   H653      1.0  0.43153  0.93922  0.75465  1.0000
  H   H654      1.0  0.46050  0.97076  0.73373  1.0000
  H   H655      1.0  0.44563  0.96166  0.67247  1.0000
  H   H656      1.0  0.43399  0.93356  0.80604  1.0000
  H   H657      1.0  0.26778  0.78832  0.03685  1.0000
  H   H658      1.0  0.29246  0.78233  0.12162  1.0000
  H   H659      1.0  0.36786  0.99622  0.40673  1.0000
  H   H660      1.0  0.38217  0.97372  0.43428  1.0000
  C   C399      1.0  0.49748  0.77955  0.02943  1.0000
  H   H661      1.0  0.47507  0.95776  0.52109  1.0000
  H   H662      1.0  0.40444  0.85913  0.05250  1.0000
  N   N27       1.0  0.28780  0.79788  0.07584  1.0000
  C   C400      1.0  0.28655  0.77535  0.94282  1.0000
  H   H663      1.0  0.37698  0.85949  0.12021  1.0000
  H   H664      1.0  0.28745  0.81775  0.00859  1.0000
  C   C401      1.0  0.27127  0.78548  0.06677  1.0000
  H   H665      1.0  0.27611  0.79398  0.95811  1.0000
  C   C402      1.0  0.42051  0.83119  0.04406  1.0000
  C   C403      1.0  0.40284  0.82593  0.04960  1.0000
  C   C404      1.0  0.39360  0.82662  0.01692  1.0000
  C   C405      1.0  0.40199  0.83218  0.97823  1.0000
  C   C406      1.0  0.41965  0.83724  0.97265  1.0000
  C   C407      1.0  0.42889  0.83690  0.00551  1.0000
  H   H666      1.0  0.39627  0.82135  0.07929  1.0000
  H   H667      1.0  0.37999  0.82256  0.02144  1.0000
  H   H668      1.0  0.42620  0.84151  0.94276  1.0000
  H   H669      1.0  0.44249  0.84098  0.00084  1.0000
  C   C408      1.0  0.35405  0.88178  0.83189  1.0000
  C   C409      1.0  0.35885  0.89844  0.82076  1.0000
  C   C410      1.0  0.36555  0.90431  0.78058  1.0000
  C   C411      1.0  0.36716  0.89349  0.75074  1.0000
  C   C412      1.0  0.36244  0.87686  0.76194  1.0000
  C   C413      1.0  0.35610  0.87105  0.80231  1.0000
  H   H670      1.0  0.35716  0.90684  0.84315  1.0000
  H   H671      1.0  0.36902  0.91711  0.77241  1.0000
  H   H672      1.0  0.36357  0.86836  0.73912  1.0000
  H   H673      1.0  0.35236  0.85819  0.81023  1.0000
  C   C414      1.0  0.34676  0.86371  0.09300  1.0000
  C   C415      1.0  0.35972  0.87519  0.06825  1.0000
  C   C416      1.0  0.36994  0.88956  0.08454  1.0000
  C   C417      1.0  0.36772  0.89244  0.12611  1.0000
  C   C418      1.0  0.35507  0.88077  0.15138  1.0000
  C   C419      1.0  0.34450  0.86652  0.13472  1.0000
  H   H674      1.0  0.36180  0.87302  0.03647  1.0000
  H   H675      1.0  0.37977  0.89847  0.06489  1.0000
  H   H676      1.0  0.35323  0.88287  0.18348  1.0000
  H   H677      1.0  0.33457  0.85766  0.15426  1.0000
  C   C420      1.0  0.40079  0.87895  0.79814  1.0000
  H   H678      1.0  0.30532  0.81852  0.14100  1.0000
  H   H679      1.0  0.35819  0.95379  0.36233  1.0000
  H   H680      1.0  0.49072  0.93172  0.05864  1.0000
  S   S136      1.0  0.40369  0.97948  0.23549  1.0000
  H   H681      1.0  0.35660  0.88823  0.95546  1.0000
  H   H682      1.0  0.48695  0.94485  0.14128  1.0000
  N   N28       1.0  0.41333  0.87535  0.10152  1.0000
  C   C421      1.0  0.42851  0.88509  0.07298  1.0000
  C   C422      1.0  0.40701  0.88697  0.12599  1.0000
  C   C423      1.0  0.41651  0.86314  0.12897  1.0000
  C   C424      1.0  0.43732  0.87517  0.04699  1.0000
  C   C425      1.0  0.41846  0.89711  0.15683  1.0000
  C   C426      1.0  0.43318  0.86862  0.14909  1.0000
  H   H683      1.0  0.43830  0.89389  0.08902  1.0000
  H   H684      1.0  0.42495  0.89292  0.05148  1.0000
  H   H685      1.0  0.40451  0.89575  0.10521  1.0000
  H   H686      1.0  0.39481  0.88046  0.14421  1.0000
  H   H687      1.0  0.40605  0.85865  0.15400  1.0000
  H   H688      1.0  0.41605  0.85209  0.11205  1.0000
  H   H689      1.0  0.43969  0.86568  0.06512  1.0000
  H   H690      1.0  0.43009  0.86954  0.02143  1.0000
  H   H691      1.0  0.44979  0.88345  0.03298  1.0000
  H   H692      1.0  0.43117  0.90462  0.14303  1.0000
  H   H693      1.0  0.41926  0.88943  0.18278  1.0000
  H   H694      1.0  0.41268  0.90582  0.17009  1.0000
  H   H695      1.0  0.43044  0.86786  0.18278  1.0000
  H   H696      1.0  0.44182  0.88103  0.14034  1.0000
  H   H697      1.0  0.44013  0.86015  0.14153  1.0000
  N   N29       1.0  0.43027  0.92028  0.46990  1.0000
  C   C427      1.0  0.44065  0.93421  0.49377  1.0000
  C   C428      1.0  0.43879  0.90772  0.46834  1.0000
  C   C429      1.0  0.41306  0.91315  0.49330  1.0000
  C   C430      1.0  0.42922  0.92692  0.42834  1.0000
  C   C431      1.0  0.43333  0.94784  0.50324  1.0000
  C   C432      1.0  0.45683  0.91335  0.44641  1.0000
  C   C433      1.0  0.40035  0.89821  0.47576  1.0000
  C   C434      1.0  0.42458  0.91469  0.39388  1.0000
  H   H698      1.0  0.44291  0.92965  0.52352  1.0000
  H   H699      1.0  0.45333  0.94040  0.47711  1.0000
  H   H700      1.0  0.43155  0.89657  0.45354  1.0000
  H   H701      1.0  0.43944  0.90344  0.49981  1.0000
  H   H702      1.0  0.41421  0.90973  0.52517  1.0000
  H   H703      1.0  0.40666  0.92227  0.49575  1.0000
  H   H704      1.0  0.42003  0.93341  0.43042  1.0000
  H   H705      1.0  0.44149  0.93635  0.41707  1.0000
  H   H706      1.0  0.43017  0.95290  0.47558  1.0000
  H   H707      1.0  0.42214  0.94366  0.52613  1.0000
  H   H708      1.0  0.44284  0.95799  0.51704  1.0000
  H   H709      1.0  0.46596  0.92236  0.46396  1.0000
  H   H710      1.0  0.46109  0.90272  0.44330  1.0000
  H   H711      1.0  0.45744  0.91844  0.41533  1.0000
  H   H712      1.0  0.39679  0.90129  0.44618  1.0000
  H   H713      1.0  0.38853  0.89421  0.49680  1.0000
  H   H714      1.0  0.40468  0.88766  0.47331  1.0000
  H   H715      1.0  0.41467  0.91693  0.37755  1.0000
  H   H716      1.0  0.41970  0.90170  0.40356  1.0000
  H   H717      1.0  0.43557  0.91684  0.37068  1.0000
  C   C435      1.0  0.28016  0.81969  0.03651  1.0000
  H   H718      1.0  0.29787  0.82416  0.08046  1.0000
  H   H719      1.0  0.49341  0.90933  0.19346  1.0000
  H   H720      1.0  0.28225  0.83294  0.03710  1.0000
  H   H721      1.0  0.26650  0.81338  0.03458  1.0000
  C   C436      1.0  0.36942  0.97396  0.43187  1.0000
  H   H722      1.0  0.35462  0.97799  0.38692  1.0000
  C   C437      1.0  0.46638  0.89989  0.19722  1.0000
  H   H723      1.0  0.38992  0.96749  0.37411  1.0000
  H   H724      1.0  0.40036  0.99205  0.58850  1.0000
  H   H725      1.0  0.38582  0.90175  0.92962  1.0000
  C   C438      1.0  0.43432  0.77821  0.07133  1.0000
  C   C439      1.0  0.47942  0.75575  0.07139  1.0000
  H   H726      1.0  0.44047  0.98624  0.66434  1.0000
  H   H727      1.0  0.49114  0.94159  0.70244  1.0000
  H   H728      1.0  0.42295  0.76029  0.00538  1.0000
  H   H729      1.0  0.35779  0.94509  0.03305  1.0000
  H   H730      1.0  0.45681  0.90447  0.18673  1.0000
  H   H731      1.0  0.49177  0.98091  0.65376  1.0000
  H   H732      1.0  0.48183  0.94602  0.57466  1.0000
  H   H733      1.0  0.48789  0.98437  0.34241  1.0000
  H   H734      1.0  0.36494  0.93226  0.92060  1.0000
  H   H735      1.0  0.33926  0.90139  0.92765  1.0000
  H   H736      1.0  0.34402  0.89585  0.04268  1.0000
  C   C440      1.0  0.42733  0.99124  0.29000  1.0000
  H   H737      1.0  0.44511  0.77452  0.07794  1.0000
  H   H738      1.0  0.31851  0.80962  0.11063  1.0000
  H   H739      1.0  0.41734  0.99961  0.55005  1.0000
  C   C441      1.0  0.48333  0.93404  0.16259  1.0000
  C   C442      1.0  0.43573  0.76984  0.00121  1.0000
  H   H740      1.0  0.34784  0.92536  0.89058  1.0000
  S   S137      1.0  0.48179  0.95407  0.40236  1.0000
  H   H741      1.0  0.36040  0.98102  0.31772  1.0000
  H   H742      1.0  0.48254  0.96974  0.59076  1.0000
  H   H743      1.0  0.42509  0.97872  0.29877  1.0000
  H   H744      1.0  0.30326  0.77455  0.06728  1.0000
  H   H745      1.0  0.47694  0.90326  0.09485  1.0000
  C   C443      1.0  0.27340  0.78106  0.95513  1.0000
  C   C444      1.0  0.28578  0.81439  0.07572  1.0000
  C   C445      1.0  0.30189  0.79832  0.04377  1.0000
  H   H746      1.0  0.36560  0.95757  0.30855  1.0000
  C   C446      1.0  0.39975  0.86632  0.07513  1.0000
  H   H747      1.0  0.29737  0.79702  0.01307  1.0000
  H   H748      1.0  0.27657  0.81505  0.10151  1.0000
  C   C447      1.0  0.38348  0.85392  0.09732  1.0000
  H   H749      1.0  0.39604  0.87502  0.05682  1.0000
  H   H750      1.0  0.37451  0.84859  0.07449  1.0000
  C   C448      1.0  0.29133  0.79447  0.11823  1.0000
  N   N30       1.0  0.38021  0.98646  0.35818  1.0000
  H   H751      1.0  0.44392  0.80245  0.09786  1.0000
  H   H752      1.0  0.38586  0.84360  0.11185  1.0000
  H   H753      1.0  0.43451  0.78583  0.13401  1.0000
  H   H754      1.0  0.46210  0.91054  0.12133  1.0000
  H   H755      1.0  0.48527  0.89533  0.15579  1.0000
  H   H756      1.0  0.31759  0.87398  0.02461  1.0000
  C   C449      1.0  0.41914  0.99492  0.25855  1.0000
  H   H757      1.0  0.40822  0.91015  0.80924  1.0000
  H   H758      1.0  0.40995  0.87849  0.81941  1.0000
  H   H759      1.0  0.32835  0.90258  0.02531  1.0000
  S   S138      1.0  0.48744  0.96313  0.76552  1.0000
  C   C450      1.0  0.35106  0.92761  0.92237  1.0000
  H   H760      1.0  0.32301  0.79139  0.06084  1.0000
  H   H761      1.0  0.42096  0.79913  0.04110  1.0000
  N   N31       1.0  0.42252  0.90411  0.75754  1.0000
  H   H762      1.0  0.46782  0.90298  0.22950  1.0000
  H   H763      1.0  0.37044  0.93255  0.98352  1.0000
  H   H764      1.0  0.43269  0.90237  0.81433  1.0000
  C   C451      1.0  0.28254  0.75847  0.93806  1.0000
  H   H765      1.0  0.43784  0.77342  0.96832  1.0000
  C   C452      1.0  0.43672  0.89987  0.68774  1.0000
  H   H766      1.0  0.28048  0.79398  0.14073  1.0000
  H   H767      1.0  0.43893  0.89150  0.77429  1.0000
  H   H768      1.0  0.36925  0.89710  0.99473  1.0000
  H   H769      1.0  0.41755  0.91069  0.69802  1.0000
  H   H770      1.0  0.44294  0.90683  0.65887  1.0000
  H   H771      1.0  0.44386  0.75297  0.03655  1.0000
  H   H772      1.0  0.38555  0.92116  0.94487  1.0000
  H   H773      1.0  0.43735  0.92276  0.71150  1.0000
  C   C453      1.0  0.32838  0.88001  0.00139  1.0000
  H   H774      1.0  0.32965  0.91234  0.96064  1.0000
  C   C454      1.0  0.42035  0.79511  0.97803  1.0000
  H   H775      1.0  0.47373  0.93720  0.08459  1.0000
  N   N32       1.0  0.35110  0.90846  0.98323  1.0000
  C   C455      1.0  0.42488  0.93272  0.78353  1.0000
  H   H776      1.0  0.40319  0.91508  0.76098  1.0000
  C   C456      1.0  0.37751  0.90908  0.93560  1.0000
  H   H777      1.0  0.32325  0.88013  0.97181  1.0000
  C   C457      1.0  0.37279  0.99050  0.32149  1.0000
  Fe  Fe67      1.0  0.49193  0.83339  0.06230  1.0000
  H   H778      1.0  0.45338  0.80149  0.95179  1.0000
  C   C458      1.0  0.34211  0.91171  0.94861  1.0000
  H   H779      1.0  0.39404  0.97365  0.32255  1.0000
  S   S139      1.0  0.40689  0.98662  0.69036  1.0000
  H   H780      1.0  0.44995  0.75393  0.98303  1.0000
  H   H781      1.0  0.42060  0.78620  0.95452  1.0000
  C   C459      1.0  0.42836  0.91012  0.71387  1.0000
  H   H782      1.0  0.47552  0.79129  0.10704  1.0000
  H   H783      1.0  0.39203  0.88472  0.81259  1.0000
  H   H784      1.0  0.41663  0.93943  0.79593  1.0000
  H   H785      1.0  0.45967  0.91982  0.80171  1.0000
  H   H786      1.0  0.45358  0.92832  0.75983  1.0000
  H   H787      1.0  0.39932  0.88750  0.73766  1.0000
  C   C460      1.0  0.45389  0.91681  0.77265  1.0000
  H   H788      1.0  0.46283  0.91271  0.75268  1.0000
  C   C461      1.0  0.40945  0.88729  0.75652  1.0000
  H   H789      1.0  0.27332  0.76290  0.09279  1.0000
  C   C462      1.0  0.41386  0.91491  0.77798  1.0000
  C   C463      1.0  0.36049  0.92365  0.00435  1.0000
  H   H790      1.0  0.42721  0.88842  0.67904  1.0000
  H   H791      1.0  0.42286  0.76714  0.07786  1.0000
  H   H792      1.0  0.44652  0.89707  0.70291  1.0000
  C   C464      1.0  0.43654  0.90303  0.78096  1.0000
  H   H793      1.0  0.42120  0.79270  0.10588  1.0000
  C   C465      1.0  0.43344  0.79066  0.10363  1.0000
  H   H794      1.0  0.31016  0.80197  0.16145  1.0000
  C   C466      1.0  0.46156  0.80094  0.97538  1.0000
  H   H795      1.0  0.45043  0.80991  0.02726  1.0000
  C   C467      1.0  0.36325  0.90002  0.96869  1.0000
  C   C468      1.0  0.49177  0.79015  0.05391  1.0000
  C   C469      1.0  0.47768  0.92695  0.07385  1.0000
  C   C470      1.0  0.45253  0.79838  0.01914  1.0000
  H   H796      1.0  0.46717  0.79146  0.96794  1.0000
  H   H797      1.0  0.46206  0.79760  0.03912  1.0000
  H   H798      1.0  0.40932  0.77876  0.03023  1.0000
  H   H799      1.0  0.40822  0.79727  0.97741  1.0000
  C   C471      1.0  0.42130  0.78903  0.02122  1.0000
  H   H800      1.0  0.43036  0.80704  0.97000  1.0000
  N   N33       1.0  0.43627  0.78406  0.02738  1.0000
  H   H801      1.0  0.49284  0.91499  0.94342  1.0000
  H   H802      1.0  0.46104  0.77022  0.01358  1.0000
  H   H803      1.0  0.48493  0.92964  0.34782  1.0000
  H   H804      1.0  0.46475  0.76139  0.12230  1.0000
  H   H805      1.0  0.34261  0.92646  0.05405  1.0000
  H   H806      1.0  0.37247  0.91007  0.90632  1.0000
  C   C472      1.0  0.38426  0.97129  0.34899  1.0000
  H   H807      1.0  0.49514  0.93472  0.57706  1.0000
  S   S140      1.0  0.49491  0.89078  0.99934  1.0000
  N   N34       1.0  0.48690  0.92008  0.14187  1.0000
  C   C473      1.0  0.31066  0.78565  0.04875  1.0000
  H   H808      1.0  0.47788  0.97200  0.48020  1.0000
  H   H809      1.0  0.26089  0.78582  0.08975  1.0000
  H   H810      1.0  0.36045  0.96125  0.43194  1.0000
  H   H811      1.0  0.31205  0.81047  0.04266  1.0000
  C   C474      1.0  0.34951  0.93283  0.02505  1.0000
  C   C475      1.0  0.47387  0.76637  0.09617  1.0000
  C   C476      1.0  0.25271  0.75315  0.95897  1.0000
  H   H812      1.0  0.34609  0.93731  0.93248  1.0000
  H   H813      1.0  0.31370  0.78152  0.01814  1.0000
  H   H814      1.0  0.36745  0.92064  0.02843  1.0000
  H   H815      1.0  0.47751  0.98947  0.30297  1.0000
  H   H816      1.0  0.37308  0.94537  0.33930  1.0000
  H   H817      1.0  0.34045  0.93452  0.00507  1.0000
  C   C477      1.0  0.27041  0.76766  0.06441  1.0000
  H   H818      1.0  0.33630  0.87223  0.99984  1.0000
  C   C478      1.0  0.44844  0.76138  0.00926  1.0000
  H   H819      1.0  0.27856  0.76599  0.03767  1.0000
  Fe  Fe68      1.0  0.49040  0.85829  0.12777  1.0000
  C   C479      1.0  0.36763  0.98420  0.39531  1.0000
  Fe  Fe69      1.0  0.49168  0.86762  0.03693  1.0000
  C   C480      1.0  0.30727  0.80693  0.13317  1.0000
  C   C481      1.0  0.49135  0.76251  0.03795  1.0000
  H   H820      1.0  0.47228  0.81267  0.97310  1.0000
  H   H821      1.0  0.46961  0.93103  0.17151  1.0000
  H   H822      1.0  0.46122  0.88638  0.19747  1.0000
  H   H823      1.0  0.46944  0.92095  0.05016  1.0000
  C   C482      1.0  0.36926  0.95629  0.33941  1.0000
  H   H824      1.0  0.36571  0.97895  0.46067  1.0000
  C   C483      1.0  0.48071  0.97080  0.51199  1.0000
  C   C484      1.0  0.49253  0.94003  0.20072  1.0000
  C   C485      1.0  0.25666  0.77005  0.96321  1.0000
  S   S141      1.0  0.49973  0.81160  0.04095  1.0000
  C   C486      1.0  0.49321  0.94456  0.55903  1.0000
  H   H825      1.0  0.25734  0.75992  0.05948  1.0000
  H   H826      1.0  0.47429  0.97780  0.53094  1.0000
  H   H827      1.0  0.38103  0.99063  0.29293  1.0000
  C   C487      1.0  0.49534  0.97908  0.58815  1.0000
  C   C488      1.0  0.48674  0.99477  0.32504  1.0000
  H   H828      1.0  0.49081  0.94038  0.52777  1.0000
  C   C489      1.0  0.50000  0.97767  0.51316  1.0000
  H   H829      1.0  0.26133  0.76872  0.78939  1.0000
  H   H830      1.0  0.48904  0.93046  0.22529  1.0000
  H   H831      1.0  0.49335  0.99083  0.58271  1.0000
  S   S142      1.0  0.49410  0.86729  0.19278  1.0000
  C   C490      1.0  0.40743  0.99848  0.39471  1.0000
  H   H832      1.0  0.49580  0.75462  0.01847  1.0000
  H   H833      1.0  0.29253  0.75385  0.92842  1.0000
  C   C491      1.0  0.25138  0.76354  0.81509  1.0000
  H   H834      1.0  0.40139  0.99825  0.42608  1.0000
  C   C492      1.0  0.41351  0.00072  0.58253  1.0000
  C   C493      1.0  0.39623  0.00053  0.36264  1.0000
  H   H835      1.0  0.57755  0.05098  0.45497  1.0000
  S   S143      1.0  0.52771  0.07326  0.25948  1.0000
  H   H836      1.0  0.52416  0.24204  0.86029  1.0000
  S   S144      1.0  0.53738  0.10845  0.62447  1.0000
  Fe  Fe70      1.0  0.67810  0.19726  0.02048  1.0000
  S   S145      1.0  0.65788  0.18292  0.06846  1.0000
  S   S146      1.0  0.67709  0.19128  0.95352  1.0000
  Fe  Fe71      1.0  0.69575  0.22370  0.07975  1.0000
  S   S147      1.0  0.67622  0.21090  0.13193  1.0000
  H   H837      1.0  0.53298  0.00837  0.24926  1.0000
  Fe  Fe72      1.0  0.67860  0.18770  0.10920  1.0000
  S   S148      1.0  0.67892  0.16648  0.14855  1.0000
  Fe  Fe73      1.0  0.65708  0.20713  0.08734  1.0000
  S   S149      1.0  0.63198  0.20967  0.10675  1.0000
  S   S150      1.0  0.69941  0.20035  0.05951  1.0000
  S   S151      1.0  0.67601  0.22152  0.03693  1.0000
  Fe  Fe74      1.0  0.52852  0.21094  0.98554  1.0000
  S   S152      1.0  0.54476  0.20786  0.93058  1.0000
  Fe  Fe75      1.0  0.52753  0.17837  0.02566  1.0000
  S   S153      1.0  0.54366  0.17360  0.97235  1.0000
  S   S154      1.0  0.52516  0.16158  0.08133  1.0000
  Fe  Fe76      1.0  0.55922  0.19993  0.97464  1.0000
  S   S155      1.0  0.58749  0.20696  0.96166  1.0000
  Fe  Fe77      1.0  0.52789  0.18154  0.93199  1.0000
  H   H838      1.0  0.74552  0.21222  0.08803  1.0000
  S   S156      1.0  0.54424  0.20467  0.02987  1.0000
  H   H839      1.0  0.58369  0.11487  0.21675  1.0000
  Fe  Fe78      1.0  0.59171  0.11947  0.78421  1.0000
  S   S157      1.0  0.59034  0.10598  0.84255  1.0000
  S   S158      1.0  0.57466  0.13390  0.77928  1.0000
  Fe  Fe79      1.0  0.61833  0.10803  0.74231  1.0000
  S   S159      1.0  0.61962  0.09356  0.79820  1.0000
  S   S160      1.0  0.63416  0.10992  0.68150  1.0000
  Fe  Fe80      1.0  0.59129  0.08522  0.80390  1.0000
  S   S161      1.0  0.57139  0.06054  0.82169  1.0000
  Fe  Fe81      1.0  0.61861  0.11547  0.83323  1.0000
  S   S162      1.0  0.62995  0.12313  0.89309  1.0000
  S   S163      1.0  0.59015  0.09800  0.74614  1.0000
  S   S164      1.0  0.61984  0.13061  0.77697  1.0000
  Fe  Fe82      1.0  0.60023  0.11891  0.36818  1.0000
  S   S165      1.0  0.61933  0.11113  0.33074  1.0000
  S   S166      1.0  0.58241  0.12843  0.34024  1.0000
  Fe  Fe83      1.0  0.61433  0.11639  0.44882  1.0000
  S   S167      1.0  0.63556  0.10981  0.41707  1.0000
  S   S168      1.0  0.60434  0.11554  0.51535  1.0000
  Fe  Fe84      1.0  0.63745  0.12880  0.36806  1.0000
  S   S169      1.0  0.65933  0.15031  0.33861  1.0000
  Fe  Fe85      1.0  0.61531  0.09285  0.38263  1.0000
  S   S170      1.0  0.61287  0.06626  0.38411  1.0000
  S   S171      1.0  0.61818  0.13701  0.40398  1.0000
  S   S172      1.0  0.59420  0.09898  0.41573  1.0000
  C   C494      1.0  0.59433  0.05119  0.37081  1.0000
  C   C495      1.0  0.58168  0.05532  0.35444  1.0000
  H   H840      1.0  0.58313  0.06798  0.34977  1.0000
  C   C496      1.0  0.55085  0.12823  0.88066  1.0000
  C   C497      1.0  0.58447  0.04341  0.76576  1.0000
  C   C498      1.0  0.57174  0.04286  0.79650  1.0000
  C   C499      1.0  0.55864  0.02800  0.80683  1.0000
  H   H841      1.0  0.59463  0.05479  0.75763  1.0000
  H   H842      1.0  0.54877  0.02747  0.83065  1.0000
  C   C500      1.0  0.62554  0.10966  0.63468  1.0000
  C   C501      1.0  0.63618  0.11287  0.59789  1.0000
  C   C502      1.0  0.62989  0.11421  0.56051  1.0000
  C   C503      1.0  0.61285  0.11213  0.55978  1.0000
  C   C504      1.0  0.60213  0.10820  0.59621  1.0000
  C   C505      1.0  0.60842  0.10706  0.63349  1.0000
  H   H843      1.0  0.64945  0.11486  0.59851  1.0000
  H   H844      1.0  0.63831  0.11734  0.53261  1.0000
  H   H845      1.0  0.58893  0.10641  0.59561  1.0000
  H   H846      1.0  0.60005  0.10449  0.66130  1.0000
  H   H847      1.0  0.55785  0.04630  0.32917  1.0000
  C   C506      1.0  0.61960  0.20897  0.06649  1.0000
  C   C507      1.0  0.62674  0.21071  0.02602  1.0000
  C   C508      1.0  0.61681  0.21040  0.99422  1.0000
  C   C509      1.0  0.59963  0.20804  0.00259  1.0000
  C   C510      1.0  0.59246  0.20626  0.04307  1.0000
  C   C511      1.0  0.60248  0.20686  0.07496  1.0000
  H   H848      1.0  0.63992  0.21236  0.01910  1.0000
  H   H849      1.0  0.62244  0.21186  0.96297  1.0000
  H   H850      1.0  0.57921  0.20440  0.04980  1.0000
  H   H851      1.0  0.59689  0.20553  0.10621  1.0000
  C   C512      1.0  0.67150  0.16212  0.20084  1.0000
  C   C513      1.0  0.67100  0.17431  0.22772  1.0000
  C   C514      1.0  0.66677  0.17049  0.26983  1.0000
  C   C515      1.0  0.66232  0.15438  0.28523  1.0000
  C   C516      1.0  0.66199  0.14210  0.25804  1.0000
  C   C517      1.0  0.66684  0.14601  0.21621  1.0000
  H   H852      1.0  0.67421  0.18670  0.21633  1.0000
  H   H853      1.0  0.66709  0.18006  0.29070  1.0000
  H   H854      1.0  0.65884  0.12970  0.26954  1.0000
  H   H855      1.0  0.66726  0.13651  0.19574  1.0000
  C   C518      1.0  0.66398  0.17230  0.93685  1.0000
  C   C519      1.0  0.65693  0.15869  0.96356  1.0000
  C   C520      1.0  0.64679  0.14374  0.94933  1.0000
  C   C521      1.0  0.64334  0.14223  0.90843  1.0000
  C   C522      1.0  0.65023  0.15588  0.88171  1.0000
  C   C523      1.0  0.66064  0.17080  0.89583  1.0000
  H   H856      1.0  0.65953  0.15960  0.99505  1.0000
  H   H857      1.0  0.64160  0.13324  0.97020  1.0000
  H   H858      1.0  0.64772  0.15490  0.85016  1.0000
  H   H859      1.0  0.66610  0.18125  0.87489  1.0000
  C   C524      1.0  0.54823  0.11715  0.66569  1.0000
  C   C525      1.0  0.56458  0.11726  0.66767  1.0000
  C   C526      1.0  0.57288  0.12296  0.70208  1.0000
  C   C527      1.0  0.56488  0.12861  0.73454  1.0000
  C   C528      1.0  0.54882  0.12931  0.73172  1.0000
  C   C529      1.0  0.54037  0.12332  0.69753  1.0000
  H   H860      1.0  0.57059  0.11249  0.64312  1.0000
  H   H861      1.0  0.58552  0.12302  0.70341  1.0000
  H   H862      1.0  0.54273  0.13409  0.75623  1.0000
  H   H863      1.0  0.52776  0.12346  0.69587  1.0000
  C   C530      1.0  0.58410  0.02918  0.74559  1.0000
  C   C531      1.0  0.52891  0.23183  0.86178  1.0000
  C   C532      1.0  0.56737  0.04300  0.34279  1.0000
  H   H864      1.0  0.52198  0.05959  0.82284  1.0000
  H   H865      1.0  0.53528  0.10779  0.25969  1.0000
  H   H866      1.0  0.52709  0.05909  0.43453  1.0000
  C   C533      1.0  0.59231  0.03468  0.37659  1.0000
  H   H867      1.0  0.69430  0.21756  0.22447  1.0000
  H   H868      1.0  0.52859  0.14021  0.14275  1.0000
  H   H869      1.0  0.60210  0.03141  0.38895  1.0000
  N   N35       1.0  0.53096  0.04821  0.72397  1.0000
  C   C534      1.0  0.54439  0.08888  0.27694  1.0000
  C   C535      1.0  0.55700  0.08529  0.29503  1.0000
  C   C536      1.0  0.56923  0.09761  0.31335  1.0000
  C   C537      1.0  0.56878  0.11343  0.31326  1.0000
  C   C538      1.0  0.55666  0.11714  0.29357  1.0000
  C   C539      1.0  0.54452  0.10487  0.27526  1.0000
  H   H870      1.0  0.55698  0.07293  0.29607  1.0000
  H   H871      1.0  0.57867  0.09476  0.32847  1.0000
  H   H872      1.0  0.55642  0.12942  0.29324  1.0000
  H   H873      1.0  0.55552  0.11552  0.51224  1.0000
  N   N36       1.0  0.53902  0.10154  0.43920  1.0000
  C   C540      1.0  0.53469  0.10473  0.39734  1.0000
  C   C541      1.0  0.54086  0.08500  0.43903  1.0000
  C   C542      1.0  0.55572  0.11432  0.44551  1.0000
  C   C543      1.0  0.52520  0.10253  0.47032  1.0000
  C   C544      1.0  0.53544  0.12222  0.38740  1.0000
  H   H874      1.0  0.51069  0.13719  0.75005  1.0000
  H   H875      1.0  0.64195  0.24750  0.09892  1.0000
  H   H876      1.0  0.52046  0.10175  0.53656  1.0000
  H   H877      1.0  0.54311  0.10172  0.37327  1.0000
  H   H878      1.0  0.52170  0.09668  0.39243  1.0000
  C   C545      1.0  0.51844  0.01801  0.75002  1.0000
  H   H879      1.0  0.55163  0.08513  0.41663  1.0000
  H   H880      1.0  0.56539  0.11440  0.42009  1.0000
  H   H881      1.0  0.52939  0.01458  0.73831  1.0000
  H   H882      1.0  0.50706  0.00700  0.74836  1.0000
  C   C546      1.0  0.56263  0.06199  0.69931  1.0000
  H   H883      1.0  0.52962  0.12230  0.35871  1.0000
  S   S173      1.0  0.54773  0.01148  0.33086  1.0000
  H   H884      1.0  0.54865  0.13072  0.38181  1.0000
  H   H885      1.0  0.59081  0.02431  0.46457  1.0000
  H   H886      1.0  0.52661  0.11547  0.47547  1.0000
  H   H887      1.0  0.51887  0.09150  0.90067  1.0000
  H   H888      1.0  0.52577  0.04067  0.25043  1.0000
  C   C547      1.0  0.54370  0.09210  0.87469  1.0000
  H   H889      1.0  0.51866  0.04716  0.64531  1.0000
  H   H890      1.0  0.73265  0.23248  0.14874  1.0000
  H   H891      1.0  0.50442  0.03323  0.73464  1.0000
  H   H892      1.0  0.53192  0.03135  0.29099  1.0000
  H   H893      1.0  0.66983  0.24614  0.17820  1.0000
  C   C548      1.0  0.51679  0.03203  0.72418  1.0000
  C   C549      1.0  0.52887  0.11533  0.83627  1.0000
  H   H894      1.0  0.53627  0.13555  0.95231  1.0000
  H   H895      1.0  0.62546  0.09044  0.49220  1.0000
  H   H896      1.0  0.57118  0.06111  0.67248  1.0000
  H   H897      1.0  0.71695  0.18852  0.13096  1.0000
  C   C550      1.0  0.72623  0.19159  0.15404  1.0000
  H   H898      1.0  0.51318  0.00739  0.32694  1.0000
  H   H899      1.0  0.53950  0.11459  0.81490  1.0000
  C   C551      1.0  0.51167  0.15489  0.84283  1.0000
  H   H900      1.0  0.55975  0.07316  0.69362  1.0000
  H   H901      1.0  0.51357  0.07062  0.44693  1.0000
  C   C552      1.0  0.50363  0.12481  0.16716  1.0000
  H   H902      1.0  0.50766  0.18761  0.80717  1.0000
  H   H903      1.0  0.54511  0.04043  0.67466  1.0000
  H   H904      1.0  0.50601  0.20880  0.92488  1.0000
  H   H905      1.0  0.55565  0.09502  0.88896  1.0000
  H   H906      1.0  0.73846  0.19221  0.13740  1.0000
  H   H907      1.0  0.65210  0.23807  0.15032  1.0000
  H   H908      1.0  0.52695  0.12660  0.82599  1.0000
  C   C553      1.0  0.57786  0.02236  0.36557  1.0000
  H   H909      1.0  0.51807  0.21708  0.81231  1.0000
  C   C554      1.0  0.51296  0.10111  0.82772  1.0000
  C   C555      1.0  0.53206  0.10026  0.89733  1.0000
  N   N37       1.0  0.59922  0.05867  0.52227  1.0000
  C   C556      1.0  0.61520  0.07008  0.53720  1.0000
  C   C557      1.0  0.58683  0.05191  0.55941  1.0000
  C   C558      1.0  0.59246  0.06863  0.49597  1.0000
  C   C559      1.0  0.60339  0.04569  0.49804  1.0000
  C   C560      1.0  0.59282  0.04299  0.59181  1.0000
  C   C561      1.0  0.57581  0.05953  0.47821  1.0000
  C   C562      1.0  0.58888  0.02930  0.49479  1.0000
  H   H910      1.0  0.61235  0.07880  0.55870  1.0000
  H   H911      1.0  0.62136  0.06326  0.55482  1.0000
  H   H912      1.0  0.57464  0.04335  0.55153  1.0000
  H   H913      1.0  0.58358  0.06190  0.57490  1.0000
  H   H914      1.0  0.59074  0.07899  0.51314  1.0000
  H   H915      1.0  0.60159  0.07420  0.46897  1.0000
  H   H916      1.0  0.60880  0.05041  0.46645  1.0000
  H   H917      1.0  0.61342  0.04249  0.51161  1.0000
  H   H918      1.0  0.58193  0.03610  0.61392  1.0000
  H   H919      1.0  0.59839  0.03419  0.57834  1.0000
  H   H920      1.0  0.60209  0.05177  0.60962  1.0000
  H   H921      1.0  0.57492  0.13101  0.21665  1.0000
  H   H922      1.0  0.57184  0.06852  0.46197  1.0000
  H   H923      1.0  0.56535  0.05328  0.50180  1.0000
  H   H924      1.0  0.65393  0.23936  0.06418  1.0000
  C   C563      1.0  0.66271  0.24936  0.15505  1.0000
  H   H925      1.0  0.71520  0.22515  0.23805  1.0000
  N   N38       1.0  0.61185  0.14465  0.21639  1.0000
  C   C564      1.0  0.60382  0.15377  0.24533  1.0000
  C   C565      1.0  0.62861  0.15573  0.19631  1.0000
  C   C566      1.0  0.61461  0.16279  0.27874  1.0000
  C   C567      1.0  0.62868  0.17144  0.17472  1.0000
  H   H926      1.0  0.59990  0.16269  0.22858  1.0000
  H   H927      1.0  0.59777  0.14779  0.16769  1.0000
  H   H928      1.0  0.63794  0.15940  0.21887  1.0000
  H   H929      1.0  0.63398  0.14928  0.17291  1.0000
  H   H930      1.0  0.62472  0.13648  0.26081  1.0000
  H   H931      1.0  0.62649  0.17234  0.26605  1.0000
  H   H932      1.0  0.60732  0.16894  0.29798  1.0000
  H   H933      1.0  0.61746  0.15428  0.29943  1.0000
  H   H934      1.0  0.62101  0.16887  0.14860  1.0000
  H   H935      1.0  0.64181  0.17851  0.16206  1.0000
  H   H936      1.0  0.62459  0.17949  0.19577  1.0000
  C   C568      1.0  0.61472  0.13127  0.24024  1.0000
  N   N39       1.0  0.60146  0.15656  0.94590  1.0000
  C   C569      1.0  0.60255  0.15445  0.90039  1.0000
  C   C570      1.0  0.60043  0.14063  0.96567  1.0000
  C   C571      1.0  0.61738  0.16994  0.95490  1.0000
  C   C572      1.0  0.58615  0.16117  0.95817  1.0000
  C   C573      1.0  0.60622  0.17000  0.87342  1.0000
  C   C574      1.0  0.58472  0.12586  0.95894  1.0000
  C   C575      1.0  0.62217  0.17075  0.99891  1.0000
  C   C576      1.0  0.58067  0.16118  0.00415  1.0000
  H   H937      1.0  0.61256  0.14928  0.89056  1.0000
  H   H938      1.0  0.59067  0.14556  0.89135  1.0000
  H   H939      1.0  0.60091  0.14132  0.99899  1.0000
  H   H940      1.0  0.61167  0.13747  0.95458  1.0000
  H   H941      1.0  0.62845  0.16893  0.93567  1.0000
  H   H942      1.0  0.61688  0.18211  0.94669  1.0000
  H   H943      1.0  0.58811  0.17365  0.94611  1.0000
  H   H944      1.0  0.57501  0.15346  0.94355  1.0000
  H   H945      1.0  0.60580  0.16660  0.84103  1.0000
  H   H946      1.0  0.59670  0.17593  0.88013  1.0000
  H   H947      1.0  0.61901  0.17889  0.87596  1.0000
  H   H948      1.0  0.58470  0.12236  0.92671  1.0000
  H   H949      1.0  0.58496  0.11519  0.97691  1.0000
  H   H950      1.0  0.57288  0.12795  0.96961  1.0000
  H   H951      1.0  0.62564  0.16017  0.00757  1.0000
  H   H952      1.0  0.61233  0.17214  0.02146  1.0000
  H   H953      1.0  0.63365  0.18163  0.00066  1.0000
  H   H954      1.0  0.58606  0.17356  0.01585  1.0000
  H   H955      1.0  0.58381  0.15252  0.02333  1.0000
  H   H956      1.0  0.56672  0.15751  0.00915  1.0000
  N   N40       1.0  0.61920  0.15913  0.63730  1.0000
  C   C577      1.0  0.60183  0.14951  0.62589  1.0000
  C   C578      1.0  0.61931  0.15524  0.68188  1.0000
  C   C579      1.0  0.63177  0.15363  0.61132  1.0000
  C   C580      1.0  0.62238  0.17691  0.62876  1.0000
  C   C581      1.0  0.59917  0.15041  0.58044  1.0000
  C   C582      1.0  0.60825  0.16174  0.71190  1.0000
  C   C583      1.0  0.64860  0.15544  0.62821  1.0000
  C   C584      1.0  0.63889  0.18907  0.64167  1.0000
  H   H957      1.0  0.59857  0.13638  0.63437  1.0000
  H   H958      1.0  0.59197  0.15336  0.64285  1.0000
  H   H959      1.0  0.63210  0.16011  0.69197  1.0000
  H   H960      1.0  0.61540  0.14180  0.68755  1.0000
  H   H961      1.0  0.62621  0.14050  0.60538  1.0000
  H   H962      1.0  0.63491  0.15992  0.58066  1.0000
  H   H963      1.0  0.62282  0.17942  0.59553  1.0000
  H   H964      1.0  0.61167  0.18051  0.64203  1.0000
  H   H965      1.0  0.59971  0.16271  0.57056  1.0000
  H   H966      1.0  0.60816  0.14653  0.56018  1.0000
  H   H967      1.0  0.58637  0.14188  0.57593  1.0000
  H   H968      1.0  0.60915  0.15787  0.74342  1.0000
  H   H969      1.0  0.61264  0.17523  0.71083  1.0000
  H   H970      1.0  0.59475  0.15683  0.70712  1.0000
  H   H971      1.0  0.64666  0.14659  0.65407  1.0000
  H   H972      1.0  0.65533  0.16791  0.63749  1.0000
  H   H973      1.0  0.65700  0.15242  0.60411  1.0000
  H   H974      1.0  0.64942  0.19103  0.61727  1.0000
  H   H975      1.0  0.64248  0.18543  0.67050  1.0000
  H   H976      1.0  0.63717  0.20091  0.64770  1.0000
  H   H977      1.0  0.52358  0.07135  0.39559  1.0000
  H   H978      1.0  0.51907  0.02077  0.78267  1.0000
  H   H979      1.0  0.55983  0.12421  0.86053  1.0000
  C   C585      1.0  0.53378  0.05386  0.76654  1.0000
  H   H980      1.0  0.57628  0.12011  0.17187  1.0000
  C   C586      1.0  0.56546  0.02649  0.34802  1.0000
  H   H981      1.0  0.52799  0.14344  0.28324  1.0000
  H   H982      1.0  0.63193  0.12473  0.19441  1.0000
  H   H983      1.0  0.60327  0.12434  0.26085  1.0000
  H   H984      1.0  0.55044  0.14708  0.83611  1.0000
  H   H985      1.0  0.54133  0.23554  0.84317  1.0000
  C   C587      1.0  0.74075  0.21177  0.20190  1.0000
  H   H986      1.0  0.51307  0.05969  0.71115  1.0000
  H   H987      1.0  0.53133  0.23027  0.89370  1.0000
  H   H988      1.0  0.62284  0.11028  0.23580  1.0000
  H   H989      1.0  0.64090  0.08592  0.51779  1.0000
  H   H990      1.0  0.55509  0.12824  0.91145  1.0000
  C   C588      1.0  0.62889  0.08028  0.50409  1.0000
  H   H991      1.0  0.56952  0.06371  0.72678  1.0000
  H   H992      1.0  0.61013  0.11138  0.19684  1.0000
  C   C589      1.0  0.52329  0.09392  0.51257  1.0000
  H   H993      1.0  0.70813  0.17329  0.19826  1.0000
  H   H994      1.0  0.72085  0.21724  0.11873  1.0000
  C   C590      1.0  0.55819  0.01380  0.78641  1.0000
  C   C591      1.0  0.52395  0.02866  0.26533  1.0000
  H   H995      1.0  0.54009  0.06172  0.64003  1.0000
  C   C592      1.0  0.57097  0.01434  0.75580  1.0000
  H   H996      1.0  0.59406  0.02966  0.72204  1.0000
  S   S174      1.0  0.52484  0.17192  0.86748  1.0000
  H   H997      1.0  0.52105  0.15661  0.31556  1.0000
  C   C593      1.0  0.58293  0.12525  0.19872  1.0000
  C   C594      1.0  0.56314  0.11304  0.48557  1.0000
  H   H998      1.0  0.54389  0.06604  0.76587  1.0000
  H   H999      1.0  0.57656  0.00969  0.36954  1.0000
  H   H1000     1.0  0.70045  0.20049  0.17337  1.0000
  H   H1001     1.0  0.63132  0.07291  0.47860  1.0000
  C   C595      1.0  0.54692  0.04631  0.70450  1.0000
  H   H1002     1.0  0.60654  0.13230  0.15982  1.0000
  S   S175      1.0  0.51803  0.23218  0.98875  1.0000
  C   C596      1.0  0.51658  0.14528  0.29856  1.0000
  C   C597      1.0  0.60037  0.13787  0.18384  1.0000
  C   C598      1.0  0.62020  0.11885  0.21481  1.0000
  H   H1003     1.0  0.52011  0.13368  0.89044  1.0000
  C   C599      1.0  0.72131  0.17674  0.18416  1.0000
  C   C600      1.0  0.52067  0.12241  0.90466  1.0000
  H   H1004     1.0  0.52252  0.11495  0.96771  1.0000
  H   H1005     1.0  0.54696  0.15186  0.88877  1.0000
  H   H1006     1.0  0.53733  0.07867  0.87623  1.0000
  C   C601      1.0  0.52704  0.05919  0.65416  1.0000
  H   H1007     1.0  0.51275  0.09704  0.45834  1.0000
  C   C602      1.0  0.53197  0.01942  0.23483  1.0000
  H   H1008     1.0  0.54801  0.00245  0.79451  1.0000
  H   H1009     1.0  0.52259  0.06852  0.64116  1.0000
  H   H1010     1.0  0.59195  0.14531  0.26169  1.0000
  C   C603      1.0  0.71036  0.20560  0.19427  1.0000
  H   H1011     1.0  0.50813  0.11830  0.18856  1.0000
  C   C604      1.0  0.52621  0.06059  0.70078  1.0000
  C   C605      1.0  0.50542  0.14688  0.26584  1.0000
  H   H1012     1.0  0.70720  0.19665  0.22045  1.0000
  H   H1013     1.0  0.51067  0.10233  0.79548  1.0000
  H   H1014     1.0  0.75104  0.23373  0.09069  1.0000
  H   H1015     1.0  0.52823  0.16065  0.78684  1.0000
  H   H1016     1.0  0.54693  0.09565  0.84192  1.0000
  C   C606      1.0  0.50973  0.14577  0.11249  1.0000
  H   H1017     1.0  0.56516  0.10133  0.49004  1.0000
  S   S176      1.0  0.71403  0.24834  0.09872  1.0000
  H   H1018     1.0  0.63076  0.24636  0.03618  1.0000
  N   N41       1.0  0.53313  0.11653  0.87975  1.0000
  H   H1019     1.0  0.50322  0.04426  0.36374  1.0000
  C   C607      1.0  0.70772  0.22087  0.21204  1.0000
  C   C608      1.0  0.51829  0.05530  0.79240  1.0000
  H   H1020     1.0  0.52330  0.20666  0.85220  1.0000
  N   N42       1.0  0.72746  0.20769  0.17255  1.0000
  H   H1021     1.0  0.52836  0.12676  0.41151  1.0000
  C   C609      1.0  0.52525  0.07082  0.42846  1.0000
  C   C610      1.0  0.51522  0.13724  0.14102  1.0000
  H   H1022     1.0  0.53397  0.07329  0.70722  1.0000
  C   C611      1.0  0.55383  0.14604  0.86734  1.0000
  C   C612      1.0  0.52388  0.12606  0.94943  1.0000
  H   H1023     1.0  0.55058  0.03768  0.72313  1.0000
  C   C613      1.0  0.51659  0.15233  0.80220  1.0000
  H   H1024     1.0  0.51540  0.02763  0.69274  1.0000
  H   H1025     1.0  0.53860  0.04577  0.78375  1.0000
  C   C614      1.0  0.51713  0.21571  0.84609  1.0000
  H   H1026     1.0  0.53441  0.09132  0.52085  1.0000
  H   H1027     1.0  0.72199  0.16603  0.16710  1.0000
  H   H1028     1.0  0.54414  0.08158  0.46850  1.0000
  C   C615      1.0  0.50668  0.13900  0.78122  1.0000
  H   H1029     1.0  0.72996  0.17863  0.20819  1.0000
  H   H1030     1.0  0.53551  0.10142  0.92908  1.0000
  H   H1031     1.0  0.58939  0.02008  0.51735  1.0000
  H   H1032     1.0  0.56743  0.15329  0.86672  1.0000
  H   H1033     1.0  0.55485  0.12670  0.44498  1.0000
  H   H1034     1.0  0.73561  0.20479  0.23141  1.0000
  H   H1035     1.0  0.52523  0.01618  0.20729  1.0000
  H   H1036     1.0  0.51220  0.08247  0.51538  1.0000
  C   C616      1.0  0.73146  0.22022  0.13798  1.0000
  H   H1037     1.0  0.57576  0.12269  0.48455  1.0000
  H   H1038     1.0  0.54507  0.02744  0.22454  1.0000
  H   H1039     1.0  0.71010  0.23081  0.18883  1.0000
  Fe  Fe86      1.0  0.51012  0.09936  0.64782  1.0000
  S   S177      1.0  0.51040  0.18472  0.98494  1.0000
  H   H1040     1.0  0.57609  0.02996  0.49709  1.0000
  H   H1041     1.0  0.51423  0.13092  0.96348  1.0000
  H   H1042     1.0  0.50790  0.04342  0.79749  1.0000
  N   N43       1.0  0.50561  0.02009  0.28034  1.0000
  H   H1043     1.0  0.67740  0.24490  0.10273  1.0000
  H   H1044     1.0  0.50364  0.24192  0.82763  1.0000
  H   H1045     1.0  0.52253  0.00144  0.55761  1.0000
  H   H1046     1.0  0.50767  0.11341  0.90527  1.0000
  H   H1047     1.0  0.51323  0.15808  0.24759  1.0000
  H   H1048     1.0  0.50155  0.10130  0.84673  1.0000
  S   S178      1.0  0.50200  0.08735  0.71003  1.0000
  H   H1049     1.0  0.51036  0.13468  0.31993  1.0000
  H   H1050     1.0  0.52265  0.04672  0.33422  1.0000
  H   H1051     1.0  0.51454  0.08916  0.83153  1.0000
  H   H1052     1.0  0.74111  0.23757  0.20818  1.0000
  H   H1053     1.0  0.51365  0.06434  0.77876  1.0000
  C   C617      1.0  0.50994  0.03777  0.34391  1.0000
  C   C618      1.0  0.74893  0.22994  0.21149  1.0000
  C   C619      1.0  0.74761  0.22228  0.10953  1.0000
  H   H1054     1.0  0.51097  0.02777  0.36289  1.0000
  C   C620      1.0  0.50418  0.00468  0.30348  1.0000
  Fe  Fe87      1.0  0.50396  0.07866  0.27523  1.0000
  H   H1055     1.0  0.50250  0.22692  0.91239  1.0000
  H   H1056     1.0  0.50402  0.13662  0.24507  1.0000
  S   S179      1.0  0.50164  0.10332  0.27890  1.0000
  H   H1057     1.0  0.50192  0.02560  0.21834  1.0000
  H   H1058     1.0  0.74110  0.24999  0.03347  1.0000
  Fe  Fe88      1.0  0.65690  0.46050  0.03579  1.0000
  S   S180      1.0  0.64409  0.47743  0.01730  1.0000
  S   S181      1.0  0.64199  0.43386  0.05193  1.0000
  Fe  Fe89      1.0  0.69243  0.48682  0.02323  1.0000
  H   H1059     1.0  0.51619  0.40064  0.83638  1.0000
  C   C621      1.0  0.53479  0.31695  0.10297  1.0000
  H   H1060     1.0  0.50701  0.47561  0.69266  1.0000
  H   H1061     1.0  0.55923  0.39718  0.86838  1.0000
  Fe  Fe90      1.0  0.66500  0.48569  0.96662  1.0000
  H   H1062     1.0  0.59136  0.47331  0.46078  1.0000
  S   S182      1.0  0.67281  0.47816  0.07794  1.0000
  S   S183      1.0  0.67723  0.46764  0.98328  1.0000
  Fe  Fe91      1.0  0.54102  0.33389  0.98800  1.0000
  S   S184      1.0  0.54559  0.35329  0.93774  1.0000
  S   S185      1.0  0.54863  0.31080  0.98389  1.0000
  Fe  Fe92      1.0  0.52794  0.35368  0.05096  1.0000
  S   S186      1.0  0.53125  0.37408  0.00629  1.0000
  C   C622      1.0  0.65360  0.41486  0.94546  1.0000
  Fe  Fe93      1.0  0.52051  0.35480  0.96209  1.0000
  C   C623      1.0  0.57583  0.48046  0.28370  1.0000
  Fe  Fe94      1.0  0.55618  0.37175  0.98466  1.0000
  S   S187      1.0  0.57673  0.39614  0.96527  1.0000
  N   N44       1.0  0.64651  0.43264  0.89144  1.0000
  S   S188      1.0  0.55376  0.35258  0.03297  1.0000
  S   S189      1.0  0.51785  0.45931  0.38277  1.0000
  H   H1063     1.0  0.56398  0.28613  0.98406  1.0000
  H   H1064     1.0  0.53426  0.46960  0.45899  1.0000
  H   H1065     1.0  0.67547  0.27292  0.02112  1.0000
  C   C624      1.0  0.53852  0.46539  0.48646  1.0000
  Fe  Fe95      1.0  0.66135  0.49576  0.05514  1.0000
  H   H1066     1.0  0.66353  0.41539  0.81766  1.0000
  H   H1067     1.0  0.73759  0.45592  0.09400  1.0000
  C   C625      1.0  0.52114  0.46054  0.75404  1.0000
  C   C626      1.0  0.52832  0.45743  0.71654  1.0000
  C   C627      1.0  0.54580  0.46188  0.70871  1.0000
  C   C628      1.0  0.55617  0.47024  0.73758  1.0000
  C   C629      1.0  0.54909  0.47459  0.77380  1.0000
  C   C630      1.0  0.53152  0.46945  0.78241  1.0000
  H   H1068     1.0  0.52120  0.26747  0.06961  1.0000
  H   H1069     1.0  0.55129  0.45891  0.68021  1.0000
  H   H1070     1.0  0.55517  0.33709  0.12357  1.0000
  H   H1071     1.0  0.52602  0.47201  0.81135  1.0000
  C   C631      1.0  0.52710  0.47723  0.35302  1.0000
  C   C632      1.0  0.52388  0.47818  0.31249  1.0000
  H   H1072     1.0  0.53903  0.32075  0.07034  1.0000
  H   H1073     1.0  0.53615  0.45247  0.21772  1.0000
  H   H1074     1.0  0.59161  0.48629  0.18335  1.0000
  C   C633      1.0  0.53855  0.49056  0.36979  1.0000
  H   H1075     1.0  0.52595  0.47790  0.52742  1.0000
  N   N45       1.0  0.66792  0.26345  0.08358  1.0000
  H   H1076     1.0  0.50894  0.43396  0.14294  1.0000
  H   H1077     1.0  0.54080  0.49002  0.40132  1.0000
  C   C634      1.0  0.53980  0.28894  0.98277  1.0000
  C   C635      1.0  0.52251  0.28042  0.98238  1.0000
  H   H1078     1.0  0.51274  0.30387  0.16319  1.0000
  H   H1079     1.0  0.60760  0.47347  0.90414  1.0000
  C   C636      1.0  0.54428  0.26255  0.98498  1.0000
  C   C637      1.0  0.55059  0.27980  0.98384  1.0000
  H   H1080     1.0  0.52526  0.41493  0.87267  1.0000
  C   C638      1.0  0.52046  0.39451  0.19813  1.0000
  C   C639      1.0  0.51186  0.29527  0.07818  1.0000
  H   H1081     1.0  0.70598  0.28106  0.02066  1.0000
  H   H1082     1.0  0.64190  0.26756  0.04101  1.0000
  C   C640      1.0  0.66993  0.45379  0.84341  1.0000
  C   C641      1.0  0.68033  0.26768  0.04579  1.0000
  H   H1083     1.0  0.54455  0.29545  0.06435  1.0000
  H   H1084     1.0  0.53599  0.44099  0.53988  1.0000
  H   H1085     1.0  0.65022  0.40335  0.92907  1.0000
  C   C642      1.0  0.53893  0.47779  0.51971  1.0000
  H   H1086     1.0  0.58015  0.48188  0.96947  1.0000
  H   H1087     1.0  0.55445  0.41495  0.88309  1.0000
  H   H1088     1.0  0.52571  0.26545  0.12179  1.0000
  C   C643      1.0  0.50777  0.36580  0.18486  1.0000
  C   C644      1.0  0.51736  0.36809  0.14671  1.0000
  C   C645      1.0  0.62268  0.42378  0.03158  1.0000
  C   C646      1.0  0.61473  0.40689  0.03867  1.0000
  C   C647      1.0  0.60011  0.39832  0.02020  1.0000
  C   C648      1.0  0.59339  0.40658  0.99426  1.0000
  C   C649      1.0  0.60104  0.42354  0.98819  1.0000
  C   C650      1.0  0.61558  0.43211  0.00680  1.0000
  H   H1089     1.0  0.62010  0.40035  0.05788  1.0000
  H   H1090     1.0  0.59437  0.38525  0.02500  1.0000
  H   H1091     1.0  0.59584  0.43002  0.96841  1.0000
  H   H1092     1.0  0.62150  0.44507  0.00113  1.0000
  C   C651      1.0  0.66381  0.44560  0.88636  1.0000
  N   N46       1.0  0.55483  0.46241  0.47529  1.0000
  C   C652      1.0  0.56767  0.47842  0.45854  1.0000
  H   H1093     1.0  0.54738  0.29276  0.11608  1.0000
  C   C653      1.0  0.55269  0.45031  0.44194  1.0000
  C   C654      1.0  0.56146  0.45700  0.51149  1.0000
  C   C655      1.0  0.58469  0.47782  0.43894  1.0000
  H   H1094     1.0  0.54312  0.47445  0.54817  1.0000
  H   H1095     1.0  0.64532  0.43511  0.95666  1.0000
  H   H1096     1.0  0.66429  0.45547  0.90777  1.0000
  N   N47       1.0  0.60556  0.49917  0.95978  1.0000
  H   H1097     1.0  0.57084  0.48738  0.48291  1.0000
  S   S190      1.0  0.50637  0.41864  0.69509  1.0000
  N   N48       1.0  0.52525  0.29883  0.10723  1.0000
  C   C656      1.0  0.51208  0.36678  0.80713  1.0000
  H   H1098     1.0  0.51398  0.28712  0.98098  1.0000
  H   H1099     1.0  0.50279  0.25683  0.98388  1.0000
  H   H1100     1.0  0.50309  0.42770  0.19617  1.0000
  H   H1101     1.0  0.52201  0.35825  0.85720  1.0000
  H   H1102     1.0  0.54125  0.39473  0.80905  1.0000
  C   C657      1.0  0.55023  0.43607  0.82345  1.0000
  C   C658      1.0  0.64320  0.42530  0.93423  1.0000
  H   H1103     1.0  0.68340  0.46158  0.84277  1.0000
  H   H1104     1.0  0.67368  0.44105  0.89520  1.0000
  H   H1105     1.0  0.69752  0.29246  0.05519  1.0000
  H   H1106     1.0  0.66319  0.46210  0.83589  1.0000
  N   N49       1.0  0.57730  0.47509  0.24059  1.0000
  S   S191      1.0  0.51238  0.41606  0.34893  1.0000
  C   C659      1.0  0.58387  0.46112  0.24010  1.0000
  H   H1107     1.0  0.52829  0.29532  0.17048  1.0000
  C   C660      1.0  0.56069  0.47101  0.22262  1.0000
  H   H1108     1.0  0.55282  0.25584  0.98607  1.0000
  C   C661      1.0  0.58911  0.45620  0.19742  1.0000
  H   H1109     1.0  0.68214  0.25649  0.03362  1.0000
  C   C662      1.0  0.54843  0.45321  0.22811  1.0000
  S   S192      1.0  0.65647  0.48450  0.90300  1.0000
  Fe  Fe96      1.0  0.50541  0.41251  0.28464  1.0000
  H   H1110     1.0  0.57455  0.45000  0.25588  1.0000
  H   H1111     1.0  0.59512  0.46409  0.25745  1.0000
  H   H1112     1.0  0.57270  0.45369  0.50144  1.0000
  H   H1113     1.0  0.54688  0.49034  0.50891  1.0000
  C   C663      1.0  0.53652  0.43514  0.44610  1.0000
  H   H1114     1.0  0.56272  0.47380  0.18917  1.0000
  H   H1115     1.0  0.65247  0.49446  0.16177  1.0000
  C   C664      1.0  0.73970  0.49230  0.01419  1.0000
  H   H1116     1.0  0.65062  0.25542  0.00721  1.0000
  H   H1117     1.0  0.57992  0.45583  0.17548  1.0000
  H   H1118     1.0  0.60175  0.46469  0.18508  1.0000
  H   H1119     1.0  0.59007  0.44388  0.19967  1.0000
  H   H1120     1.0  0.52537  0.43843  0.44102  1.0000
  C   C665      1.0  0.50920  0.37897  0.21037  1.0000
  H   H1121     1.0  0.61328  0.48198  0.99332  1.0000
  H   H1122     1.0  0.55303  0.44486  0.20920  1.0000
  H   H1123     1.0  0.51688  0.48233  0.64153  1.0000
  H   H1124     1.0  0.57424  0.43871  0.78553  1.0000
  H   H1125     1.0  0.66908  0.44494  0.81920  1.0000
  H   H1126     1.0  0.63740  0.44958  0.86058  1.0000
  C   C666      1.0  0.61551  0.43003  0.88388  1.0000
  H   H1127     1.0  0.54737  0.43845  0.85596  1.0000
  C   C667      1.0  0.54943  0.44227  0.53804  1.0000
  H   H1128     1.0  0.63372  0.44903  0.91414  1.0000
  H   H1129     1.0  0.65039  0.41131  0.97844  1.0000
  H   H1130     1.0  0.57089  0.49070  0.28507  1.0000
  H   H1131     1.0  0.66735  0.42152  0.94125  1.0000
  H   H1132     1.0  0.65364  0.39951  0.85536  1.0000
  H   H1133     1.0  0.55262  0.45630  0.41208  1.0000
  C   C668      1.0  0.50615  0.48181  0.66408  1.0000
  H   H1134     1.0  0.55364  0.47887  0.23512  1.0000
  C   C669      1.0  0.52330  0.41375  0.83981  1.0000
  C   C670      1.0  0.56423  0.46767  0.31564  1.0000
  H   H1135     1.0  0.55716  0.48127  0.79591  1.0000
  C   C671      1.0  0.53277  0.49223  0.28817  1.0000
  H   H1136     1.0  0.55924  0.41485  0.74013  1.0000
  S   S193      1.0  0.57790  0.47490  0.72856  1.0000
  H   H1137     1.0  0.53422  0.42832  0.47553  1.0000
  C   C672      1.0  0.51258  0.36299  0.84843  1.0000
  H   H1138     1.0  0.52720  0.40591  0.76366  1.0000
  Fe  Fe97      1.0  0.50422  0.43774  0.34784  1.0000
  H   H1139     1.0  0.54670  0.44504  0.80587  1.0000
  H   H1140     1.0  0.68920  0.28881  0.12371  1.0000
  C   C673      1.0  0.59034  0.48919  0.21602  1.0000
  C   C674      1.0  0.56961  0.44107  0.81643  1.0000
  H   H1141     1.0  0.51768  0.30016  0.04698  1.0000
  H   H1142     1.0  0.73196  0.27949  0.13004  1.0000
  H   H1143     1.0  0.59242  0.46438  0.94785  1.0000
  C   C675      1.0  0.53762  0.29039  0.09452  1.0000
  C   C676      1.0  0.53064  0.27172  0.09166  1.0000
  C   C677      1.0  0.53610  0.41823  0.76959  1.0000
  C   C678      1.0  0.63389  0.44114  0.88775  1.0000
  S   S194      1.0  0.52325  0.41137  0.22962  1.0000
  H   H1144     1.0  0.53057  0.49286  0.25657  1.0000
  H   H1145     1.0  0.54120  0.26762  0.08010  1.0000
  H   H1146     1.0  0.50174  0.43551  0.49763  1.0000
  S   S195      1.0  0.51513  0.33420  0.00875  1.0000
  H   H1147     1.0  0.65770  0.25862  0.16793  1.0000
  H   H1148     1.0  0.60715  0.43738  0.88792  1.0000
  C   C679      1.0  0.69798  0.28012  0.04989  1.0000
  H   H1149     1.0  0.58853  0.48518  0.29493  1.0000
  C   C680      1.0  0.55116  0.42225  0.73662  1.0000
  H   H1150     1.0  0.56350  0.44582  0.43839  1.0000
  C   C681      1.0  0.73442  0.26314  0.08312  1.0000
  C   C682      1.0  0.52698  0.25404  0.98528  1.0000
  H   H1151     1.0  0.67102  0.28785  0.15812  1.0000
  S   S196      1.0  0.72040  0.49448  0.03588  1.0000
  C   C683      1.0  0.64412  0.41980  0.86005  1.0000
  H   H1152     1.0  0.51470  0.46809  0.29977  1.0000
  H   H1153     1.0  0.55087  0.43074  0.52752  1.0000
  H   H1154     1.0  0.63922  0.48332  0.83206  1.0000
  C   C684      1.0  0.55053  0.32356  0.12619  1.0000
  H   H1155     1.0  0.55865  0.43545  0.73497  1.0000
  H   H1156     1.0  0.56648  0.46721  0.53207  1.0000
  C   C685      1.0  0.66406  0.27820  0.09843  1.0000
  H   H1157     1.0  0.56113  0.41025  0.80463  1.0000
  H   H1158     1.0  0.63242  0.40924  0.86929  1.0000
  C   C686      1.0  0.65859  0.41297  0.85035  1.0000
  H   H1159     1.0  0.57451  0.43500  0.83916  1.0000
  C   C687      1.0  0.74515  0.26094  0.05054  1.0000
  H   H1160     1.0  0.56100  0.31978  0.11248  1.0000
  H   H1161     1.0  0.55252  0.44376  0.57006  1.0000
  H   H1162     1.0  0.55083  0.46453  0.31048  1.0000
  C   C688      1.0  0.60590  0.47082  0.93750  1.0000
  H   H1163     1.0  0.50872  0.27021  0.18078  1.0000
  H   H1164     1.0  0.66306  0.28571  0.07214  1.0000
  H   H1165     1.0  0.65146  0.27429  0.11653  1.0000
  H   H1166     1.0  0.70454  0.27644  0.07344  1.0000
  C   C689      1.0  0.51807  0.29460  0.15106  1.0000
  H   H1167     1.0  0.59299  0.49042  0.42907  1.0000
  C   C690      1.0  0.54834  0.40673  0.82119  1.0000
  H   H1168     1.0  0.57530  0.45441  0.82014  1.0000
  C   C691      1.0  0.55003  0.40355  0.86638  1.0000
  H   H1169     1.0  0.61420  0.42498  0.85311  1.0000
  H   H1170     1.0  0.62986  0.41728  0.94119  1.0000
  H   H1171     1.0  0.50172  0.44632  0.17758  1.0000
  H   H1172     1.0  0.56539  0.47313  0.34601  1.0000
  H   H1173     1.0  0.50562  0.28212  0.07424  1.0000
  H   H1174     1.0  0.64195  0.42463  0.83058  1.0000
  H   H1175     1.0  0.61064  0.41981  0.90679  1.0000
  H   H1176     1.0  0.66936  0.41776  0.86848  1.0000
  N   N50       1.0  0.53994  0.41894  0.81339  1.0000
  H   H1177     1.0  0.68674  0.26358  0.12446  1.0000
  C   C692      1.0  0.51619  0.26316  0.98381  1.0000
  H   H1178     1.0  0.56764  0.45660  0.31771  1.0000
  H   H1179     1.0  0.53753  0.42663  0.42194  1.0000
  H   H1180     1.0  0.52812  0.45409  0.49700  1.0000
  H   H1181     1.0  0.54778  0.32013  0.15911  1.0000
  S   S197      1.0  0.51542  0.35111  0.11606  1.0000
  H   H1182     1.0  0.67828  0.30250  0.11720  1.0000
  H   H1183     1.0  0.53584  0.38560  0.10493  1.0000
  H   H1184     1.0  0.53876  0.40878  0.15026  1.0000
  H   H1185     1.0  0.52657  0.32393  0.11356  1.0000
  H   H1186     1.0  0.60304  0.49166  0.22656  1.0000
  C   C693      1.0  0.52836  0.38370  0.13416  1.0000
  C   C694      1.0  0.52998  0.39682  0.15992  1.0000
  H   H1187     1.0  0.52041  0.45162  0.69340  1.0000
  H   H1188     1.0  0.54576  0.44841  0.25998  1.0000
  H   H1189     1.0  0.58327  0.47054  0.41127  1.0000
  H   H1190     1.0  0.52968  0.42694  0.76289  1.0000
  H   H1191     1.0  0.56250  0.48403  0.43509  1.0000
  H   H1192     1.0  0.54623  0.41948  0.70651  1.0000
  C   C695      1.0  0.74006  0.27756  0.10473  1.0000
  H   H1193     1.0  0.52123  0.36499  0.78427  1.0000
  C   C696      1.0  0.51142  0.42317  0.83215  1.0000
  C   C697      1.0  0.67454  0.25552  0.11541  1.0000
  H   H1194     1.0  0.72953  0.47794  0.96400  1.0000
  H   H1195     1.0  0.53785  0.39538  0.88209  1.0000
  C   C698      1.0  0.74072  0.48358  0.97915  1.0000
  C   C699      1.0  0.67650  0.28968  0.12577  1.0000
  H   H1196     1.0  0.61263  0.46225  0.94284  1.0000
  H   H1197     1.0  0.74783  0.46141  0.04366  1.0000
  H   H1198     1.0  0.74586  0.43348  0.07076  1.0000
  C   C700      1.0  0.65182  0.25085  0.07246  1.0000
  H   H1199     1.0  0.51794  0.43654  0.83119  1.0000
  C   C701      1.0  0.50424  0.27769  0.16056  1.0000
  H   H1200     1.0  0.50213  0.48982  0.75368  1.0000
  C   C702      1.0  0.64353  0.25561  0.03715  1.0000
  C   C703      1.0  0.74992  0.45892  0.07526  1.0000
  C   C704      1.0  0.58853  0.49262  0.98416  1.0000
  H   H1201     1.0  0.64523  0.49741  0.23545  1.0000
  C   C705      1.0  0.64181  0.49534  0.84390  1.0000
  H   H1202     1.0  0.50192  0.37702  0.23987  1.0000
  H   H1203     1.0  0.50543  0.41950  0.80362  1.0000
  H   H1204     1.0  0.70993  0.49833  0.12678  1.0000
  C   C706      1.0  0.51364  0.50003  0.75935  1.0000
  H   H1205     1.0  0.62727  0.49142  0.94978  1.0000
  H   H1206     1.0  0.59274  0.49282  0.90511  1.0000
  C   C707      1.0  0.65041  0.49941  0.87881  1.0000
  H   H1207     1.0  0.53075  0.49475  0.71359  1.0000
  H   H1208     1.0  0.51945  0.49570  0.78359  1.0000
  C   C708      1.0  0.61367  0.48630  0.96138  1.0000
  C   C709      1.0  0.50505  0.49879  0.67187  1.0000
  H   H1209     1.0  0.58931  0.48755  0.01462  1.0000
  H   H1210     1.0  0.56996  0.50062  0.01917  1.0000
  H   H1211     1.0  0.50225  0.31563  0.08907  1.0000
  Fe  Fe98      1.0  0.61539  0.53299  0.30881  1.0000
  S   S198      1.0  0.60476  0.54940  0.27687  1.0000
  H   H1212     1.0  0.59237  0.52177  0.92249  1.0000
  Fe  Fe99      1.0  0.59318  0.53205  0.39022  1.0000
  S   S199      1.0  0.58030  0.54760  0.36317  1.0000
  H   H1213     1.0  0.55563  0.65463  0.44862  1.0000
  Fe  Fe100     1.0  0.57999  0.53310  0.30753  1.0000
  Fe  Fe101     1.0  0.60610  0.56262  0.33571  1.0000
  S   S200      1.0  0.61467  0.58983  0.34303  1.0000
  H   H1214     1.0  0.54847  0.60594  0.79077  1.0000
  S   S201      1.0  0.61933  0.54781  0.36560  1.0000
  Fe  Fe102     1.0  0.60748  0.53252  0.67791  1.0000
  S   S202      1.0  0.58014  0.51760  0.69204  1.0000
  S   S203      1.0  0.61885  0.54296  0.61405  1.0000
  Fe  Fe103     1.0  0.61486  0.52996  0.76688  1.0000
  S   S204      1.0  0.58794  0.51506  0.78702  1.0000
  S   S205      1.0  0.63300  0.53691  0.81571  1.0000
  C   C710      1.0  0.55300  0.63713  0.88729  1.0000
  Fe  Fe104     1.0  0.58116  0.53238  0.74770  1.0000
  S   S206      1.0  0.55897  0.53976  0.77138  1.0000
  S   S207      1.0  0.61693  0.51550  0.71176  1.0000
  S   S208      1.0  0.60802  0.54859  0.73159  1.0000
  H   H1215     1.0  0.62976  0.51842  0.95902  1.0000
  C   C711      1.0  0.63182  0.58499  0.43981  1.0000
  C   C712      1.0  0.57454  0.56177  0.47118  1.0000
  Fe  Fe105     1.0  0.51666  0.63342  0.76946  1.0000
  S   S209      1.0  0.51448  0.60728  0.77871  1.0000
  S   S210      1.0  0.52461  0.64774  0.82560  1.0000
  Fe  Fe106     1.0  0.52872  0.61000  0.71674  1.0000
  S   S211      1.0  0.55136  0.60311  0.69565  1.0000
  C   C713      1.0  0.58750  0.65532  0.49183  1.0000
  S   S212      1.0  0.53284  0.63661  0.70966  1.0000
  H   H1216     1.0  0.57710  0.62907  0.49309  1.0000
  Fe  Fe107     1.0  0.51342  0.63729  0.32434  1.0000
  H   H1217     1.0  0.66043  0.51831  0.92040  1.0000
  Fe  Fe108     1.0  0.54174  0.62689  0.35318  1.0000
  S   S213      1.0  0.52458  0.60153  0.37010  1.0000
  S   S214      1.0  0.56863  0.63379  0.36847  1.0000
  H   H1218     1.0  0.63484  0.53326  0.13284  1.0000
  C   C714      1.0  0.52905  0.74717  0.06870  1.0000
  C   C715      1.0  0.56232  0.59555  0.82703  1.0000
  S   S215      1.0  0.53259  0.62796  0.29167  1.0000
  S   S216      1.0  0.52451  0.63893  0.38460  1.0000
  S   S217      1.0  0.65116  0.51360  0.08950  1.0000
  C   C716      1.0  0.52349  0.71107  0.17193  1.0000
  H   H1219     1.0  0.55264  0.63071  0.62514  1.0000
  H   H1220     1.0  0.68007  0.52117  0.14364  1.0000
  H   H1221     1.0  0.59551  0.57218  0.42530  1.0000
  C   C717      1.0  0.53470  0.51489  0.65014  1.0000
  H   H1222     1.0  0.60809  0.64064  0.81171  1.0000
  H   H1223     1.0  0.57115  0.51289  0.53830  1.0000
  H   H1224     1.0  0.58332  0.58253  0.52763  1.0000
  S   S218      1.0  0.59036  0.51603  0.33674  1.0000
  C   C718      1.0  0.55666  0.55702  0.74888  1.0000
  C   C719      1.0  0.56895  0.56690  0.71957  1.0000
  C   C720      1.0  0.56703  0.58088  0.70296  1.0000
  C   C721      1.0  0.55276  0.58495  0.71527  1.0000
  C   C722      1.0  0.54023  0.57485  0.74382  1.0000
  C   C723      1.0  0.54224  0.56095  0.76074  1.0000
  H   H1225     1.0  0.58008  0.56392  0.71022  1.0000
  H   H1226     1.0  0.57676  0.58866  0.68090  1.0000
  H   H1227     1.0  0.52916  0.57787  0.75337  1.0000
  H   H1228     1.0  0.53267  0.55329  0.78333  1.0000
  C   C724      1.0  0.60098  0.60124  0.34789  1.0000
  C   C725      1.0  0.58354  0.59445  0.34528  1.0000
  C   C726      1.0  0.57333  0.60428  0.35066  1.0000
  C   C727      1.0  0.58054  0.62083  0.35906  1.0000
  C   C728      1.0  0.59789  0.62741  0.36177  1.0000
  C   C729      1.0  0.60802  0.61775  0.35597  1.0000
  H   H1229     1.0  0.57800  0.58173  0.33883  1.0000
  H   H1230     1.0  0.55994  0.59907  0.34840  1.0000
  H   H1231     1.0  0.60360  0.64015  0.36807  1.0000
  H   H1232     1.0  0.62144  0.62313  0.35787  1.0000
  C   C730      1.0  0.59313  0.52623  0.49776  1.0000
  C   C731      1.0  0.61010  0.53613  0.49541  1.0000
  C   C732      1.0  0.61795  0.54074  0.53132  1.0000
  C   C733      1.0  0.60897  0.53545  0.56981  1.0000
  C   C734      1.0  0.59213  0.52517  0.57205  1.0000
  C   C735      1.0  0.58425  0.52060  0.53618  1.0000
  H   H1233     1.0  0.61715  0.54035  0.46600  1.0000
  H   H1234     1.0  0.63102  0.54859  0.52934  1.0000
  H   H1235     1.0  0.58510  0.52097  0.60142  1.0000
  C   C736      1.0  0.56124  0.60994  0.80154  1.0000
  C   C737      1.0  0.63571  0.51690  0.22611  1.0000
  H   H1236     1.0  0.56418  0.58623  0.80629  1.0000
  C   C738      1.0  0.64275  0.50513  0.21304  1.0000
  H   H1237     1.0  0.62850  0.52462  0.03172  1.0000
  H   H1238     1.0  0.57159  0.64769  0.56878  1.0000
  H   H1239     1.0  0.61015  0.57177  0.56232  1.0000
  C   C739      1.0  0.72268  0.56498  0.13122  1.0000
  H   H1240     1.0  0.56009  0.53122  0.62908  1.0000
  H   H1241     1.0  0.58878  0.56808  0.58159  1.0000
  H   H1242     1.0  0.57163  0.55529  0.50138  1.0000
  H   H1243     1.0  0.54904  0.63368  0.78572  1.0000
  H   H1244     1.0  0.71883  0.56670  0.16350  1.0000
  Fe  Fe109     1.0  0.51393  0.60344  0.31170  1.0000
  C   C740      1.0  0.64860  0.52647  0.87363  1.0000
  H   H1245     1.0  0.60347  0.59479  0.53962  1.0000
  C   C741      1.0  0.63255  0.52676  0.19683  1.0000
  C   C742      1.0  0.63687  0.52520  0.15510  1.0000
  C   C743      1.0  0.52654  0.50521  0.72118  1.0000
  H   H1246     1.0  0.59309  0.65598  0.52100  1.0000
  H   H1247     1.0  0.62720  0.53590  0.20638  1.0000
  H   H1248     1.0  0.64325  0.58187  0.44318  1.0000
  Fe  Fe110     1.0  0.50685  0.61333  0.39856  1.0000
  H   H1249     1.0  0.58097  0.59404  0.43510  1.0000
  C   C744      1.0  0.63990  0.52237  0.83885  1.0000
  S   S219      1.0  0.63159  0.51910  0.27918  1.0000
  C   C745      1.0  0.70606  0.51973  0.10260  1.0000
  H   H1250     1.0  0.72428  0.55477  0.04224  1.0000
  H   H1251     1.0  0.54016  0.50498  0.64846  1.0000
  C   C746      1.0  0.58843  0.60218  0.45729  1.0000
  H   H1252     1.0  0.55146  0.61273  0.45341  1.0000
  H   H1253     1.0  0.59757  0.65577  0.46722  1.0000
  N   N51       1.0  0.70416  0.53588  0.11254  1.0000
  H   H1254     1.0  0.61278  0.52477  0.97510  1.0000
  C   C747      1.0  0.50175  0.66407  0.83347  1.0000
  Fe  Fe111     1.0  0.50869  0.62833  0.68020  1.0000
  H   H1255     1.0  0.67294  0.54239  0.18173  1.0000
  C   C748      1.0  0.64422  0.51367  0.14207  1.0000
  S   S220      1.0  0.50742  0.58273  0.26940  1.0000
  H   H1256     1.0  0.70710  0.55058  0.01187  1.0000
  C   C749      1.0  0.62010  0.51267  0.02218  1.0000
  C   C750      1.0  0.50344  0.66798  0.16265  1.0000
  H   H1257     1.0  0.61473  0.52910  0.90584  1.0000
  S   S221      1.0  0.55734  0.52214  0.27403  1.0000
  C   C751      1.0  0.54759  0.63215  0.59608  1.0000
  H   H1258     1.0  0.55423  0.74695  0.17404  1.0000
  C   C752      1.0  0.54484  0.50522  0.30459  1.0000
  C   C753      1.0  0.55135  0.62274  0.85899  1.0000
  S   S222      1.0  0.58236  0.52099  0.45375  1.0000
  C   C754      1.0  0.56201  0.63607  0.56103  1.0000
  C   C755      1.0  0.50205  0.52418  0.25002  1.0000
  C   C756      1.0  0.50553  0.66975  0.91622  1.0000
  H   H1259     1.0  0.56795  0.62658  0.56313  1.0000
  H   H1260     1.0  0.50678  0.65091  0.53838  1.0000
  H   H1261     1.0  0.69518  0.53144  0.17689  1.0000
  H   H1262     1.0  0.69630  0.55341  0.08012  1.0000
  H   H1263     1.0  0.50330  0.73279  0.08728  1.0000
  C   C757      1.0  0.54707  0.65610  0.47451  1.0000
  C   C758      1.0  0.55095  0.65139  0.51649  1.0000
  H   H1264     1.0  0.50915  0.71000  0.12096  1.0000
  H   H1265     1.0  0.54523  0.61092  0.52699  1.0000
  C   C759      1.0  0.51416  0.66073  0.89428  1.0000
  C   C760      1.0  0.52722  0.55103  0.28595  1.0000
  H   H1266     1.0  0.53066  0.72095  0.11085  1.0000
  C   C761      1.0  0.60256  0.51903  0.90417  1.0000
  H   H1267     1.0  0.57018  0.65185  0.73720  1.0000
  C   C762      1.0  0.53644  0.56701  0.30640  1.0000
  H   H1268     1.0  0.52555  0.51885  0.39754  1.0000
  H   H1269     1.0  0.55144  0.61261  0.87927  1.0000
  H   H1270     1.0  0.53717  0.62059  0.59243  1.0000
  H   H1271     1.0  0.53710  0.54708  0.26903  1.0000
  H   H1272     1.0  0.52038  0.55442  0.26226  1.0000
  H   H1273     1.0  0.52989  0.51503  0.62002  1.0000
  H   H1274     1.0  0.54878  0.66927  0.47340  1.0000
  H   H1275     1.0  0.53708  0.53304  0.33347  1.0000
  C   C763      1.0  0.72081  0.54704  0.12446  1.0000
  S   S223      1.0  0.50568  0.67428  0.11054  1.0000
  H   H1276     1.0  0.52942  0.54545  0.36619  1.0000
  H   H1277     1.0  0.54232  0.57686  0.28251  1.0000
  H   H1278     1.0  0.52772  0.57098  0.32729  1.0000
  C   C764      1.0  0.57415  0.64336  0.75542  1.0000
  C   C765      1.0  0.68164  0.54562  0.15314  1.0000
  H   H1279     1.0  0.57294  0.59914  0.84602  1.0000
  H   H1280     1.0  0.53967  0.62615  0.44779  1.0000
  H   H1281     1.0  0.65133  0.53857  0.88510  1.0000
  C   C766      1.0  0.54326  0.62139  0.51164  1.0000
  H   H1282     1.0  0.69047  0.55810  0.15598  1.0000
  H   H1283     1.0  0.72362  0.54249  0.15343  1.0000
  H   H1284     1.0  0.53089  0.62153  0.52565  1.0000
  H   H1285     1.0  0.52139  0.64914  0.22608  1.0000
  H   H1286     1.0  0.58400  0.66622  0.48682  1.0000
  H   H1287     1.0  0.58079  0.60115  0.48692  1.0000
  C   C767      1.0  0.54097  0.61646  0.46722  1.0000
  H   H1288     1.0  0.59328  0.55740  0.53835  1.0000
  N   N52       1.0  0.55711  0.63720  0.51860  1.0000
  C   C768      1.0  0.65373  0.51501  0.89373  1.0000
  H   H1289     1.0  0.62465  0.57667  0.41761  1.0000
  H   H1290     1.0  0.52260  0.65702  0.15319  1.0000
  C   C769      1.0  0.62152  0.58322  0.48182  1.0000
  C   C770      1.0  0.57251  0.63939  0.48909  1.0000
  H   H1291     1.0  0.62899  0.59301  0.50093  1.0000
  N   N53       1.0  0.52074  0.51133  0.68463  1.0000
  H   H1292     1.0  0.71388  0.53435  0.02544  1.0000
  H   H1293     1.0  0.73151  0.54686  0.10233  1.0000
  H   H1294     1.0  0.62137  0.57159  0.49581  1.0000
  H   H1295     1.0  0.52728  0.53552  0.70921  1.0000
  H   H1296     1.0  0.51196  0.70534  0.19311  1.0000
  C   C771      1.0  0.59372  0.56902  0.45856  1.0000
  C   C772      1.0  0.59664  0.58319  0.52529  1.0000
  H   H1297     1.0  0.56821  0.57087  0.47117  1.0000
  H   H1298     1.0  0.51033  0.51035  0.77208  1.0000
  H   H1299     1.0  0.56870  0.55246  0.44922  1.0000
  H   H1300     1.0  0.61098  0.60014  0.42880  1.0000
  C   C773      1.0  0.51317  0.65529  0.21675  1.0000
  C   C774      1.0  0.59729  0.56925  0.55311  1.0000
  C   C775      1.0  0.60509  0.59921  0.46066  1.0000
  C   C776      1.0  0.51383  0.65978  0.17540  1.0000
  H   H1301     1.0  0.52924  0.60574  0.46676  1.0000
  H   H1302     1.0  0.55036  0.58953  0.84668  1.0000
  N   N54       1.0  0.60381  0.58341  0.48155  1.0000
  C   C777      1.0  0.56208  0.63820  0.79484  1.0000
  H   H1303     1.0  0.63626  0.59770  0.42712  1.0000
  H   H1304     1.0  0.59138  0.61477  0.44479  1.0000
  H   H1305     1.0  0.61350  0.60976  0.47609  1.0000
  C   C778      1.0  0.51382  0.74174  0.10142  1.0000
  C   C779      1.0  0.51987  0.71924  0.13408  1.0000
  H   H1306     1.0  0.55971  0.66250  0.52913  1.0000
  H   H1307     1.0  0.56970  0.63897  0.45695  1.0000
  C   C780      1.0  0.51670  0.52635  0.69561  1.0000
  H   H1308     1.0  0.53908  0.64894  0.53691  1.0000
  C   C781      1.0  0.52527  0.53462  0.34714  1.0000
  H   H1309     1.0  0.58982  0.51153  0.24569  1.0000
  H   H1310     1.0  0.53387  0.64911  0.46931  1.0000
  H   H1311     1.0  0.54611  0.54174  0.64569  1.0000
  H   H1312     1.0  0.54251  0.64221  0.60000  1.0000
  H   H1313     1.0  0.55018  0.74317  0.12217  1.0000
  H   H1314     1.0  0.52733  0.74388  0.19636  1.0000
  H   H1315     1.0  0.57372  0.63302  0.73584  1.0000
  H   H1316     1.0  0.59991  0.51899  0.87188  1.0000
  N   N55       1.0  0.51535  0.53739  0.31406  1.0000
  H   H1317     1.0  0.58721  0.65021  0.76196  1.0000
  H   H1318     1.0  0.59839  0.55868  0.46106  1.0000
  C   C782      1.0  0.58185  0.63204  0.83785  1.0000
  N   N56       1.0  0.56461  0.62578  0.82293  1.0000
  H   H1319     1.0  0.60823  0.50930  0.04277  1.0000
  H   H1320     1.0  0.54682  0.56590  0.32282  1.0000
  C   C783      1.0  0.58697  0.50544  0.21655  1.0000
  H   H1321     1.0  0.59974  0.61933  0.82152  1.0000
  C   C784      1.0  0.59659  0.62977  0.81004  1.0000
  H   H1322     1.0  0.56495  0.64094  0.90160  1.0000
  H   H1323     1.0  0.52240  0.65608  0.90945  1.0000
  H   H1324     1.0  0.53364  0.73719  0.05931  1.0000
  H   H1325     1.0  0.73611  0.57273  0.12378  1.0000
  C   C785      1.0  0.54962  0.53097  0.65232  1.0000
  H   H1326     1.0  0.55629  0.51472  0.35885  1.0000
  H   H1327     1.0  0.67369  0.54541  0.12823  1.0000
  C   C786      1.0  0.63648  0.50672  0.82414  1.0000
  H   H1328     1.0  0.58535  0.64523  0.84410  1.0000
  S   S224      1.0  0.68162  0.50555  0.00252  1.0000
  C   C787      1.0  0.69040  0.53287  0.14736  1.0000
  C   C788      1.0  0.70827  0.50960  0.13868  1.0000
  H   H1329     1.0  0.71966  0.51611  0.15378  1.0000
  H   H1330     1.0  0.68701  0.53318  0.06662  1.0000
  H   H1331     1.0  0.54258  0.63317  0.91239  1.0000
  S   S225      1.0  0.50554  0.60190  0.68406  1.0000
  H   H1332     1.0  0.59473  0.62833  0.77747  1.0000
  H   H1333     1.0  0.51575  0.54805  0.66463  1.0000
  H   H1334     1.0  0.52805  0.70107  0.16193  1.0000
  H   H1335     1.0  0.53848  0.61884  0.84867  1.0000
  H   H1336     1.0  0.59553  0.51390  0.19224  1.0000
  H   H1337     1.0  0.71717  0.52143  0.07997  1.0000
  C   C789      1.0  0.61718  0.51430  0.97724  1.0000
  H   H1338     1.0  0.56980  0.61121  0.77331  1.0000
  C   C790      1.0  0.52922  0.74718  0.16314  1.0000
  H   H1339     1.0  0.62981  0.50343  0.79739  1.0000
  C   C791      1.0  0.50237  0.65929  0.24605  1.0000
  H   H1340     1.0  0.56333  0.64971  0.81039  1.0000
  C   C792      1.0  0.54743  0.50452  0.34557  1.0000
  H   H1341     1.0  0.55166  0.64780  0.87187  1.0000
  H   H1342     1.0  0.58156  0.62580  0.86758  1.0000
  H   H1343     1.0  0.69496  0.51180  0.08814  1.0000
  H   H1344     1.0  0.57387  0.50391  0.21093  1.0000
  H   H1345     1.0  0.53341  0.71949  0.18859  1.0000
  C   C793      1.0  0.71200  0.54557  0.03684  1.0000
  H   H1346     1.0  0.58638  0.51704  0.99438  1.0000
  C   C794      1.0  0.50973  0.52234  0.28945  1.0000
  H   H1347     1.0  0.50158  0.63603  0.47428  1.0000
  C   C795      1.0  0.51236  0.65789  0.85281  1.0000
  H   H1348     1.0  0.62663  0.50390  0.02675  1.0000
  C   C796      1.0  0.50374  0.63784  0.53897  1.0000
  H   H1349     1.0  0.71573  0.56986  0.11112  1.0000
  C   C797      1.0  0.64683  0.50340  0.17126  1.0000
  H   H1350     1.0  0.51142  0.50838  0.36246  1.0000
  S   S226      1.0  0.50208  0.65503  0.29885  1.0000
  C   C798      1.0  0.69909  0.54207  0.07496  1.0000
  H   H1351     1.0  0.53789  0.51464  0.73079  1.0000
  H   H1352     1.0  0.50715  0.67199  0.94801  1.0000
  H   H1353     1.0  0.55457  0.53228  0.68238  1.0000
  H   H1354     1.0  0.50429  0.54966  0.35945  1.0000
  H   H1355     1.0  0.52055  0.51828  0.28026  1.0000
  C   C799      1.0  0.51627  0.52014  0.37747  1.0000
  H   H1356     1.0  0.51642  0.53275  0.63021  1.0000
  H   H1357     1.0  0.51206  0.53068  0.22548  1.0000
  H   H1358     1.0  0.69698  0.50562  0.16133  1.0000
  C   C800      1.0  0.51118  0.53467  0.66094  1.0000
  C   C801      1.0  0.50279  0.62944  0.57597  1.0000
  H   H1359     1.0  0.50623  0.52239  0.39783  1.0000
  N   N57       1.0  0.51611  0.73473  0.14135  1.0000
  S   S227      1.0  0.50687  0.64047  0.62082  1.0000
  H   H1360     1.0  0.50611  0.52339  0.72024  1.0000
  Fe  Fe112     1.0  0.58953  0.50193  0.72986  1.0000
  C   C802      1.0  0.54796  0.75002  0.14877  1.0000
  H   H1361     1.0  0.50148  0.50298  0.64338  1.0000
  C   C803      1.0  0.57849  0.50427  0.99040  1.0000
  H   H1362     1.0  0.61493  0.50180  0.89593  1.0000
  C   C804      1.0  0.60384  0.50242  0.91571  1.0000
  H   H1363     1.0  0.57071  0.50370  0.96488  1.0000
  Fe  Fe113     1.0  0.53254  0.94916  0.32011  1.0000
  S   S228      1.0  0.51890  0.96704  0.31929  1.0000
  S   S229      1.0  0.53632  0.93601  0.26185  1.0000
  Fe  Fe114     1.0  0.54219  0.95832  0.40642  1.0000
  S   S230      1.0  0.52899  0.97647  0.41180  1.0000
  S   S231      1.0  0.55775  0.95713  0.45738  1.0000
  H   H1364     1.0  0.51766  0.95838  0.53248  1.0000
  Fe  Fe115     1.0  0.54048  0.98465  0.34815  1.0000
  C   C805      1.0  0.58309  0.97029  0.79684  1.0000
  S   S232      1.0  0.52073  0.93837  0.38276  1.0000
  S   S233      1.0  0.55529  0.96773  0.34390  1.0000
  Fe  Fe116     1.0  0.53353  0.93999  0.78628  1.0000
  S   S234      1.0  0.53173  0.96474  0.79823  1.0000
  S   S235      1.0  0.53901  0.92358  0.83302  1.0000
  Fe  Fe117     1.0  0.52979  0.94299  0.69430  1.0000
  S   S236      1.0  0.52799  0.96782  0.69978  1.0000
  S   S237      1.0  0.52429  0.92957  0.63558  1.0000
  Fe  Fe118     1.0  0.54882  0.97309  0.74008  1.0000
  H   H1365     1.0  0.57143  0.94246  0.85729  1.0000
  S   S238      1.0  0.55219  0.94886  0.73016  1.0000
  C   C806      1.0  0.54790  0.94992  0.50679  1.0000
  C   C807      1.0  0.55500  0.95794  0.54093  1.0000
  C   C808      1.0  0.54777  0.95204  0.58067  1.0000
  C   C809      1.0  0.53371  0.93773  0.58647  1.0000
  C   C810      1.0  0.52675  0.92963  0.55227  1.0000
  C   C811      1.0  0.53363  0.93583  0.51259  1.0000
  H   H1366     1.0  0.56618  0.96873  0.53665  1.0000
  H   H1367     1.0  0.55329  0.95831  0.60680  1.0000
  H   H1368     1.0  0.57650  0.97040  0.94096  1.0000
  H   H1369     1.0  0.52817  0.92945  0.48656  1.0000
  H   H1370     1.0  0.58039  0.94004  0.42515  1.0000
  H   H1371     1.0  0.54930  0.96345  0.93648  1.0000
  H   H1372     1.0  0.53759  0.91955  0.33545  1.0000
  C   C812      1.0  0.56878  0.90351  0.35100  1.0000
  C   C813      1.0  0.58007  0.95118  0.87666  1.0000
  C   C814      1.0  0.50520  0.92582  0.12478  1.0000
  H   H1373     1.0  0.55657  0.91826  0.41149  1.0000
  C   C815      1.0  0.51988  0.89398  0.93505  1.0000
  C   C816      1.0  0.54252  0.90954  0.34035  1.0000
  H   H1374     1.0  0.53402  0.95776  0.90100  1.0000
  H   H1375     1.0  0.53940  0.75779  0.07805  1.0000
  C   C817      1.0  0.52438  0.91676  0.24365  1.0000
  Fe  Fe119     1.0  0.51117  0.95733  0.75686  1.0000
  C   C818      1.0  0.52027  0.89737  0.18867  1.0000
  C   C819      1.0  0.52924  0.91247  0.20458  1.0000
  H   H1376     1.0  0.52418  0.89429  0.15859  1.0000
  H   H1377     1.0  0.54001  0.92092  0.18637  1.0000
  C   C820      1.0  0.52579  0.91372  0.87753  1.0000
  H   H1378     1.0  0.53986  0.89784  0.88621  1.0000
  H   H1379     1.0  0.55472  0.76314  0.14061  1.0000
  H   H1380     1.0  0.56489  0.93811  0.30864  1.0000
  C   C821      1.0  0.56269  0.88830  0.32494  1.0000
  H   H1381     1.0  0.50664  0.90866  0.29710  1.0000
  C   C822      1.0  0.57025  0.92087  0.26817  1.0000
  S   S239      1.0  0.57104  0.99675  0.72991  1.0000
  H   H1382     1.0  0.55324  0.87795  0.34330  1.0000
  C   C823      1.0  0.57018  0.92813  0.31055  1.0000
  H   H1383     1.0  0.50887  0.93781  0.10807  1.0000
  C   C824      1.0  0.57777  0.94252  0.91883  1.0000
  C   C825      1.0  0.55948  0.96540  0.87127  1.0000
  H   H1384     1.0  0.57788  0.92997  0.91433  1.0000
  H   H1385     1.0  0.51846  0.89209  0.36585  1.0000
  H   H1386     1.0  0.52910  0.90585  0.40211  1.0000
  C   C826      1.0  0.58078  0.93596  0.39336  1.0000
  H   H1387     1.0  0.53605  0.88921  0.38636  1.0000
  H   H1388     1.0  0.58198  0.95732  0.79509  1.0000
  H   H1389     1.0  0.60157  0.97879  0.83851  1.0000
  H   H1390     1.0  0.56622  0.89878  0.38328  1.0000
  H   H1391     1.0  0.50782  0.99614  0.28300  1.0000
  S   S240      1.0  0.50896  0.85941  0.07301  1.0000
  N   N58       1.0  0.56103  0.91647  0.34592  1.0000
  C   C827      1.0  0.52382  0.98927  0.55345  1.0000
  H   H1392     1.0  0.54006  0.90249  0.31250  1.0000
  H   H1393     1.0  0.57804  0.91297  0.26561  1.0000
  H   H1394     1.0  0.52753  0.75923  0.16110  1.0000
  Fe  Fe120     1.0  0.50875  0.95759  0.38306  1.0000
  H   H1395     1.0  0.58275  0.90882  0.34474  1.0000
  H   H1396     1.0  0.59285  0.97728  0.77230  1.0000
  C   C828      1.0  0.56266  0.92625  0.38393  1.0000
  C   C829      1.0  0.58805  0.97735  0.83834  1.0000
  H   H1397     1.0  0.58370  0.93418  0.31479  1.0000
  H   H1398     1.0  0.56572  0.94126  0.93677  1.0000
  C   C830      1.0  0.53640  0.99105  0.51508  1.0000
  H   H1399     1.0  0.57937  0.98835  0.91206  1.0000
  H   H1400     1.0  0.54452  0.94414  0.91099  1.0000
  H   H1401     1.0  0.58638  0.94719  0.37356  1.0000
  C   C831      1.0  0.53108  0.89854  0.37598  1.0000
  H   H1402     1.0  0.53030  0.98716  0.57960  1.0000
  C   C832      1.0  0.60212  0.98309  0.91655  1.0000
  H   H1403     1.0  0.60433  0.98689  0.94818  1.0000
  H   H1404     1.0  0.55764  0.89010  0.29642  1.0000
  H   H1405     1.0  0.50562  0.97179  0.48874  1.0000
  H   H1406     1.0  0.50664  0.78456  0.00338  1.0000
  H   H1407     1.0  0.57611  0.93100  0.24502  1.0000
  H   H1408     1.0  0.57348  0.88419  0.31598  1.0000
  H   H1409     1.0  0.52290  0.88464  0.95074  1.0000
  C   C833      1.0  0.52950  0.90152  0.89844  1.0000
  H   H1410     1.0  0.58912  0.92861  0.39106  1.0000
  C   C834      1.0  0.51056  0.90560  0.26701  1.0000
  S   S241      1.0  0.51145  0.93198  0.74954  1.0000
  H   H1411     1.0  0.60757  0.97342  0.90995  1.0000
  H   H1412     1.0  0.55593  0.93513  0.38262  1.0000
  H   H1413     1.0  0.52438  0.91896  0.08868  1.0000
  H   H1414     1.0  0.50719  0.90176  0.10994  1.0000
  H   H1415     1.0  0.55745  0.91429  0.25961  1.0000
  C   C835      1.0  0.51238  0.91838  0.89380  1.0000
  H   H1416     1.0  0.50642  0.94482  0.19358  1.0000
  H   H1417     1.0  0.57116  0.97172  0.78994  1.0000
  H   H1418     1.0  0.58757  0.98994  0.83810  1.0000
  C   C836      1.0  0.50301  0.91110  0.93084  1.0000
  H   H1419     1.0  0.53844  0.97953  0.50739  1.0000
  H   H1420     1.0  0.58827  0.94871  0.93711  1.0000
  H   H1421     1.0  0.50943  0.92780  0.87823  1.0000
  N   N59       1.0  0.57762  0.96750  0.87545  1.0000
  H   H1422     1.0  0.51592  0.91853  0.55657  1.0000
  C   C837      1.0  0.50664  0.89883  0.95165  1.0000
  H   H1423     1.0  0.51555  0.95935  0.58528  1.0000
  H   H1424     1.0  0.59292  0.95221  0.86300  1.0000
  H   H1425     1.0  0.60903  0.99390  0.89603  1.0000
  C   C838      1.0  0.58305  0.97728  0.91229  1.0000
  H   H1426     1.0  0.53248  0.99592  0.48825  1.0000
  H   H1427     1.0  0.51351  0.92802  0.14980  1.0000
  H   H1428     1.0  0.55503  0.95778  0.84507  1.0000
  C   C839      1.0  0.54642  0.95725  0.90757  1.0000
  C   C840      1.0  0.50637  0.88623  0.21186  1.0000
  H   H1429     1.0  0.51022  0.75271  0.10613  1.0000
  H   H1430     1.0  0.55823  0.97741  0.86456  1.0000
  C   C841      1.0  0.50899  0.95997  0.55809  1.0000
  H   H1431     1.0  0.51312  0.99033  0.63336  1.0000
  H   H1432     1.0  0.50377  0.96833  0.63869  1.0000
  C   C842      1.0  0.51048  0.91415  0.09604  1.0000
  N   N60       1.0  0.50669  0.97618  0.55326  1.0000
  C   C843      1.0  0.50174  0.89038  0.25133  1.0000
  H   H1433     1.0  0.50373  0.99072  0.50309  1.0000
  H   H1434     1.0  0.52503  0.75132  0.04087  1.0000
  H   H1435     1.0  0.50497  0.91326  0.06669  1.0000
  C   C844      1.0  0.50160  0.97967  0.63060  1.0000
  H   H1436     1.0  0.50160  0.75314  0.19719  1.0000
  H   H1437     1.0  0.54887  0.99990  0.52074  1.0000
  H   H1438     1.0  0.76126  0.23549  0.19287  1.0000
  H   H1439     1.0  0.75847  0.22309  0.12652  1.0000
  H   H1440     1.0  0.75189  0.23074  0.24364  1.0000
  H   H1441     1.0  0.75138  0.20782  0.18968  1.0000
  Fe  Fe121     1.0  0.80998  0.36436  0.06321  1.0000
  S   S242      1.0  0.79899  0.34451  0.11257  1.0000
  S   S243      1.0  0.79839  0.38273  0.04439  1.0000
  Fe  Fe122     1.0  0.83913  0.35309  0.03506  1.0000
  S   S244      1.0  0.83031  0.33227  0.08154  1.0000
  S   S245      1.0  0.86494  0.36032  0.99881  1.0000
  Fe  Fe123     1.0  0.80386  0.32769  0.06510  1.0000
  S   S246      1.0  0.78755  0.30191  0.04690  1.0000
  Fe  Fe124     1.0  0.82620  0.35056  0.12551  1.0000
  S   S247      1.0  0.83622  0.35120  0.18783  1.0000
  S   S248      1.0  0.81335  0.34743  0.01492  1.0000
  S   S249      1.0  0.83646  0.37144  0.07974  1.0000
  H   H1442     1.0  0.88088  0.49556  0.77490  1.0000
  S   S250      1.0  0.83057  0.47689  0.93709  1.0000
  H   H1443     1.0  0.95229  0.45891  0.77189  1.0000
  H   H1444     1.0  0.78109  0.46140  0.12308  1.0000
  H   H1445     1.0  0.78545  0.43188  0.98166  1.0000
  H   H1446     1.0  0.77404  0.40719  0.06992  1.0000
  H   H1447     1.0  0.96997  0.41156  0.44684  1.0000
  Fe  Fe125     1.0  0.84288  0.47608  0.99350  1.0000
  S   S251      1.0  0.84897  0.45540  0.02102  1.0000
  H   H1448     1.0  0.76940  0.27082  0.01519  1.0000
  C   C845      1.0  0.75627  0.48220  0.96348  1.0000
  C   C846      1.0  0.79127  0.46674  0.09826  1.0000
  C   C847      1.0  0.93577  0.46547  0.81573  1.0000
  Fe  Fe126     1.0  0.90581  0.41226  0.32472  1.0000
  S   S252      1.0  0.89532  0.41948  0.38397  1.0000
  S   S253      1.0  0.89193  0.40942  0.26710  1.0000
  Fe  Fe127     1.0  0.94118  0.42141  0.35496  1.0000
  S   S254      1.0  0.93312  0.42922  0.41564  1.0000
  S   S255      1.0  0.96856  0.42358  0.34179  1.0000
  Fe  Fe128     1.0  0.91026  0.40689  0.41502  1.0000
  S   S256      1.0  0.89851  0.39273  0.47456  1.0000
  Fe  Fe129     1.0  0.91909  0.44107  0.38015  1.0000
  S   S257      1.0  0.91853  0.46565  0.39797  1.0000
  S   S258      1.0  0.91911  0.39782  0.35612  1.0000
  S   S259      1.0  0.92884  0.43509  0.31908  1.0000
  Fe  Fe130     1.0  0.93782  0.42000  0.77752  1.0000
  S   S260      1.0  0.93661  0.43229  0.71929  1.0000
  S   S261      1.0  0.96000  0.43067  0.81411  1.0000
  Fe  Fe131     1.0  0.90229  0.39514  0.77637  1.0000
  S   S262      1.0  0.89861  0.40547  0.71660  1.0000
  S   S263      1.0  0.87923  0.37538  0.80768  1.0000
  Fe  Fe132     1.0  0.92520  0.40722  0.69633  1.0000
  S   S264      1.0  0.93746  0.40495  0.63344  1.0000
  Fe  Fe133     1.0  0.91032  0.42942  0.74429  1.0000
  S   S265      1.0  0.90053  0.44997  0.74184  1.0000
  S   S266      1.0  0.92814  0.39472  0.75378  1.0000
  S   S267      1.0  0.91234  0.41927  0.80489  1.0000
  C   C848      1.0  0.90953  0.39655  0.51844  1.0000
  C   C849      1.0  0.92712  0.40332  0.51550  1.0000
  C   C850      1.0  0.93550  0.40588  0.55100  1.0000
  C   C851      1.0  0.92637  0.40209  0.58975  1.0000
  C   C852      1.0  0.90877  0.39562  0.59273  1.0000
  C   C853      1.0  0.90042  0.39263  0.55719  1.0000
  H   H1449     1.0  0.93428  0.40617  0.48585  1.0000
  H   H1450     1.0  0.94911  0.41075  0.54844  1.0000
  H   H1451     1.0  0.90162  0.39245  0.62236  1.0000
  H   H1452     1.0  0.88683  0.38722  0.55974  1.0000
  C   C854      1.0  0.97167  0.39402  0.80666  1.0000
  H   H1453     1.0  0.98418  0.41608  0.69387  1.0000
  H   H1454     1.0  0.93996  0.48702  0.49830  1.0000
  C   C855      1.0  0.93424  0.48119  0.36842  1.0000
  C   C856      1.0  0.94676  0.47773  0.34361  1.0000
  C   C857      1.0  0.95908  0.49007  0.31926  1.0000
  H   H1455     1.0  0.82039  0.32944  0.93647  1.0000
  C   C858      1.0  0.76127  0.27287  0.04014  1.0000
  H   H1456     1.0  0.94698  0.46556  0.34313  1.0000
  H   H1457     1.0  0.96858  0.48724  0.29958  1.0000
  C   C859      1.0  0.92906  0.48212  0.63148  1.0000
  C   C860      1.0  0.92123  0.48845  0.66299  1.0000
  C   C861      1.0  0.91182  0.47835  0.69621  1.0000
  C   C862      1.0  0.91048  0.46201  0.69817  1.0000
  C   C863      1.0  0.91809  0.45562  0.66635  1.0000
  C   C864      1.0  0.92745  0.46571  0.63307  1.0000
  H   H1458     1.0  0.96069  0.49418  0.82523  1.0000
  H   H1459     1.0  0.90595  0.48328  0.72089  1.0000
  H   H1460     1.0  0.91678  0.44289  0.66738  1.0000
  H   H1461     1.0  0.97027  0.46885  0.82378  1.0000
  H   H1462     1.0  0.91241  0.47089  0.31243  1.0000
  C   C865      1.0  0.81855  0.29802  0.85777  1.0000
  H   H1463     1.0  0.81786  0.30197  0.00030  1.0000
  C   C866      1.0  0.81202  0.40314  0.03920  1.0000
  C   C867      1.0  0.82644  0.40845  0.05975  1.0000
  C   C868      1.0  0.83752  0.42459  0.05423  1.0000
  C   C869      1.0  0.83416  0.43562  0.02855  1.0000
  C   C870      1.0  0.81965  0.43044  0.00821  1.0000
  C   C871      1.0  0.80857  0.41420  0.01361  1.0000
  H   H1464     1.0  0.82895  0.40022  0.08047  1.0000
  H   H1465     1.0  0.84870  0.42856  0.07013  1.0000
  H   H1466     1.0  0.81717  0.43887  0.98788  1.0000
  H   H1467     1.0  0.79748  0.41009  0.99743  1.0000
  C   C872      1.0  0.85119  0.36764  0.21056  1.0000
  C   C873      1.0  0.85863  0.36438  0.24437  1.0000
  C   C874      1.0  0.87088  0.37698  0.26263  1.0000
  C   C875      1.0  0.87586  0.39305  0.24723  1.0000
  C   C876      1.0  0.86830  0.39630  0.21364  1.0000
  C   C877      1.0  0.85599  0.38374  0.19562  1.0000
  H   H1468     1.0  0.85495  0.35200  0.25648  1.0000
  H   H1469     1.0  0.87654  0.37422  0.28840  1.0000
  H   H1470     1.0  0.87197  0.40864  0.20141  1.0000
  H   H1471     1.0  0.85017  0.38653  0.17020  1.0000
  C   C878      1.0  0.86850  0.36523  0.94597  1.0000
  C   C879      1.0  0.85535  0.36077  0.92114  1.0000
  C   C880      1.0  0.85880  0.36409  0.87883  1.0000
  C   C881      1.0  0.87534  0.37231  0.86117  1.0000
  C   C882      1.0  0.88841  0.37729  0.88621  1.0000
  C   C883      1.0  0.88502  0.37354  0.92838  1.0000
  H   H1472     1.0  0.84259  0.35462  0.93447  1.0000
  H   H1473     1.0  0.84864  0.36027  0.85960  1.0000
  H   H1474     1.0  0.90120  0.38356  0.87288  1.0000
  H   H1475     1.0  0.89527  0.37704  0.94738  1.0000
  S   S268      1.0  0.79025  0.48668  0.96171  1.0000
  H   H1476     1.0  0.93126  0.49090  0.20644  1.0000
  C   C884      1.0  0.79856  0.31951  0.90605  1.0000
  H   H1477     1.0  0.80544  0.29764  0.85776  1.0000
  H   H1478     1.0  0.83702  0.32990  0.98441  1.0000
  C   C885      1.0  0.94542  0.49658  0.47346  1.0000
  H   H1479     1.0  0.93367  0.46085  0.60900  1.0000
  H   H1480     1.0  0.79266  0.28653  0.91578  1.0000
  H   H1481     1.0  0.79421  0.32985  0.91392  1.0000
  H   H1482     1.0  0.82580  0.30582  0.83082  1.0000
  H   H1483     1.0  0.99705  0.42854  0.40685  1.0000
  H   H1484     1.0  0.79373  0.26152  0.93834  1.0000
  H   H1485     1.0  0.93986  0.45768  0.83596  1.0000
  C   C886      1.0  0.82605  0.30400  0.97086  1.0000
  C   C887      1.0  0.96565  0.47849  0.68852  1.0000
  C   C888      1.0  0.80970  0.31771  0.93850  1.0000
  H   H1486     1.0  0.76514  0.41280  0.02809  1.0000
  H   H1487     1.0  0.87065  0.43329  0.46536  1.0000
  N   N61       1.0  0.77236  0.44613  0.05169  1.0000
  H   H1488     1.0  0.83612  0.29824  0.90015  1.0000
  C   C889      1.0  0.76758  0.41547  0.06011  1.0000
  C   C890      1.0  0.78571  0.46251  0.05529  1.0000
  H   H1489     1.0  0.99204  0.44716  0.84340  1.0000
  H   H1490     1.0  0.84970  0.32342  0.94554  1.0000
  H   H1491     1.0  0.81914  0.28573  0.85189  1.0000
  C   C891      1.0  0.97842  0.48171  0.81718  1.0000
  H   H1492     1.0  0.93570  0.47650  0.83162  1.0000
  H   H1493     1.0  0.78215  0.47256  0.04303  1.0000
  H   H1494     1.0  0.98035  0.48740  0.43835  1.0000
  H   H1495     1.0  0.83530  0.31781  0.88891  1.0000
  C   C892      1.0  0.94623  0.46836  0.77351  1.0000
  C   C893      1.0  0.76837  0.44435  0.00801  1.0000
  H   H1496     1.0  0.84880  0.31780  0.99804  1.0000
  C   C894      1.0  0.89401  0.48277  0.31945  1.0000
  H   H1497     1.0  0.97397  0.38266  0.81397  1.0000
  N   N62       1.0  0.88965  0.43836  0.53537  1.0000
  C   C895      1.0  0.89562  0.45452  0.51204  1.0000
  C   C896      1.0  0.88598  0.42508  0.50502  1.0000
  C   C897      1.0  0.90288  0.43676  0.56068  1.0000
  C   C898      1.0  0.87419  0.43704  0.56362  1.0000
  C   C899      1.0  0.90125  0.46977  0.53777  1.0000
  C   C900      1.0  0.87008  0.42229  0.48304  1.0000
  C   C901      1.0  0.92059  0.44049  0.53801  1.0000
  C   C902      1.0  0.86609  0.42092  0.58932  1.0000
  H   H1498     1.0  0.90622  0.45538  0.48843  1.0000
  H   H1499     1.0  0.88552  0.45578  0.49466  1.0000
  H   H1500     1.0  0.88478  0.41322  0.51948  1.0000
  H   H1501     1.0  0.89667  0.42749  0.48073  1.0000
  H   H1502     1.0  0.90411  0.44466  0.58729  1.0000
  H   H1503     1.0  0.89900  0.42420  0.57438  1.0000
  H   H1504     1.0  0.87724  0.44670  0.58635  1.0000
  H   H1505     1.0  0.86440  0.43955  0.54735  1.0000
  H   H1506     1.0  0.91144  0.46992  0.55642  1.0000
  H   H1507     1.0  0.90628  0.48070  0.51690  1.0000
  H   H1508     1.0  0.89059  0.47119  0.55757  1.0000
  H   H1509     1.0  0.85840  0.41795  0.50438  1.0000
  C   C903      1.0  0.97071  0.39282  0.67030  1.0000
  H   H1510     1.0  0.92866  0.43724  0.55858  1.0000
  H   H1511     1.0  0.92670  0.45362  0.52961  1.0000
  H   H1512     1.0  0.92039  0.43326  0.51051  1.0000
  H   H1513     1.0  0.87185  0.42167  0.61843  1.0000
  H   H1514     1.0  0.86715  0.41015  0.57351  1.0000
  H   H1515     1.0  0.85236  0.41843  0.59614  1.0000
  N   N63       1.0  0.90267  0.46993  0.25409  1.0000
  H   H1516     1.0  0.91838  0.49018  0.28636  1.0000
  C   C904      1.0  0.91771  0.46618  0.23482  1.0000
  C   C905      1.0  0.88841  0.45419  0.26606  1.0000
  C   C906      1.0  0.89723  0.48084  0.22734  1.0000
  H   H1517     1.0  0.95912  0.39290  0.82236  1.0000
  H   H1518     1.0  0.78703  0.30869  0.90515  1.0000
  C   C907      1.0  0.89777  0.47773  0.18117  1.0000
  H   H1519     1.0  0.98640  0.48213  0.36469  1.0000
  H   H1520     1.0  0.79740  0.46344  0.03566  1.0000
  H   H1521     1.0  0.91495  0.45915  0.20705  1.0000
  H   H1522     1.0  0.96102  0.46865  0.49712  1.0000
  H   H1523     1.0  0.89238  0.44674  0.28781  1.0000
  H   H1524     1.0  0.87744  0.45655  0.28223  1.0000
  H   H1525     1.0  0.88419  0.48026  0.23808  1.0000
  H   H1526     1.0  0.79409  0.45386  0.97528  1.0000
  N   N64       1.0  0.95939  0.48499  0.76384  1.0000
  C   C908      1.0  0.99384  0.44808  0.81046  1.0000
  H   H1527     1.0  0.97586  0.42321  0.49091  1.0000
  H   H1528     1.0  0.94013  0.48620  0.25036  1.0000
  H   H1529     1.0  0.00055  0.45020  0.69266  1.0000
  C   C909      1.0  0.77112  0.48949  0.98239  1.0000
  H   H1530     1.0  0.88652  0.47919  0.16951  1.0000
  C   C910      1.0  0.93416  0.49713  0.36928  1.0000
  C   C911      1.0  0.85331  0.44382  0.91040  1.0000
  N   N65       1.0  0.85648  0.41566  0.91901  1.0000
  C   C912      1.0  0.83970  0.40757  0.94368  1.0000
  C   C913      1.0  0.85415  0.41319  0.87455  1.0000
  C   C914      1.0  0.83246  0.38878  0.94396  1.0000
  C   C915      1.0  0.86925  0.40834  0.92976  1.0000
  H   H1531     1.0  0.84038  0.41097  0.97596  1.0000
  H   H1532     1.0  0.82994  0.41195  0.93292  1.0000
  H   H1533     1.0  0.86577  0.39557  0.92008  1.0000
  H   H1534     1.0  0.88175  0.41476  0.91245  1.0000
  H   H1535     1.0  0.84980  0.39999  0.86824  1.0000
  H   H1536     1.0  0.84381  0.41715  0.86553  1.0000
  H   H1537     1.0  0.81992  0.38456  0.96210  1.0000
  H   H1538     1.0  0.83049  0.38404  0.91313  1.0000
  H   H1539     1.0  0.84035  0.38315  0.95897  1.0000
  H   H1540     1.0  0.85563  0.44506  0.87669  1.0000
  H   H1541     1.0  0.96235  0.48494  0.41296  1.0000
  C   C916      1.0  0.80099  0.28788  0.94026  1.0000
  H   H1542     1.0  0.83134  0.29400  0.96971  1.0000
  H   H1543     1.0  0.99153  0.45486  0.47106  1.0000
  H   H1544     1.0  0.79275  0.28791  0.96862  1.0000
  H   H1545     1.0  0.81516  0.27199  0.91811  1.0000
  N   N66       1.0  0.81593  0.30353  0.93532  1.0000
  C   C917      1.0  0.98848  0.38104  0.73314  1.0000
  H   H1546     1.0  0.97116  0.39831  0.63958  1.0000
  C   C918      1.0  0.75611  0.28958  0.09406  1.0000
  C   C919      1.0  0.97218  0.48353  0.73028  1.0000
  C   C920      1.0  0.84121  0.31975  0.97425  1.0000
  N   N67       1.0  0.89341  0.37487  0.10784  1.0000
  C   C921      1.0  0.88771  0.35665  0.10320  1.0000
  C   C922      1.0  0.90763  0.38248  0.07486  1.0000
  C   C923      1.0  0.87878  0.38020  0.10069  1.0000
  C   C924      1.0  0.89844  0.37858  0.15036  1.0000
  C   C925      1.0  0.87218  0.34634  0.13181  1.0000
  C   C926      1.0  0.92308  0.37709  0.07581  1.0000
  C   C927      1.0  0.88185  0.39858  0.10104  1.0000
  C   C928      1.0  0.91076  0.39589  0.15711  1.0000
  H   H1547     1.0  0.88477  0.35353  0.07138  1.0000
  H   H1548     1.0  0.89788  0.35188  0.10892  1.0000
  H   H1549     1.0  0.91238  0.39592  0.07515  1.0000
  H   H1550     1.0  0.90303  0.37971  0.04423  1.0000
  H   H1551     1.0  0.87414  0.37594  0.07096  1.0000
  H   H1552     1.0  0.86796  0.37450  0.12398  1.0000
  H   H1553     1.0  0.88707  0.37630  0.17255  1.0000
  H   H1554     1.0  0.90460  0.37004  0.16038  1.0000
  H   H1555     1.0  0.87053  0.33325  0.12913  1.0000
  H   H1556     1.0  0.87341  0.34920  0.16428  1.0000
  H   H1557     1.0  0.86050  0.34771  0.12289  1.0000
  H   H1558     1.0  0.93379  0.38546  0.05549  1.0000
  H   H1559     1.0  0.92720  0.37738  0.10671  1.0000
  H   H1560     1.0  0.92052  0.36471  0.06394  1.0000
  H   H1561     1.0  0.87011  0.40054  0.09431  1.0000
  H   H1562     1.0  0.89183  0.40568  0.07728  1.0000
  H   H1563     1.0  0.90698  0.39984  0.18734  1.0000
  H   H1564     1.0  0.91121  0.40546  0.13474  1.0000
  H   H1565     1.0  0.92368  0.39573  0.15902  1.0000
  H   H1566     1.0  0.87943  0.43189  0.85555  1.0000
  H   H1567     1.0  0.99702  0.40594  0.67056  1.0000
  H   H1568     1.0  0.80244  0.31719  0.96874  1.0000
  H   H1569     1.0  0.85814  0.45633  0.92191  1.0000
  H   H1570     1.0  0.79160  0.43503  0.04855  1.0000
  C   C929      1.0  0.97997  0.44139  0.78817  1.0000
  C   C930      1.0  0.75635  0.44451  0.07827  1.0000
  C   C931      1.0  0.86268  0.43350  0.92829  1.0000
  H   H1571     1.0  0.86174  0.43509  0.96179  1.0000
  H   H1572     1.0  0.89067  0.43925  0.21329  1.0000
  H   H1573     1.0  0.88444  0.40343  0.13152  1.0000
  H   H1574     1.0  0.94292  0.47729  0.20317  1.0000
  H   H1575     1.0  0.80581  0.32270  0.87558  1.0000
  C   C932      1.0  0.82722  0.30486  0.89623  1.0000
  H   H1576     1.0  0.89777  0.46557  0.17256  1.0000
  H   H1577     1.0  0.99488  0.49745  0.48966  1.0000
  S   S269      1.0  0.94124  0.49478  0.59060  1.0000
  H   H1578     1.0  0.96526  0.45434  0.36264  1.0000
  C   C933      1.0  0.80523  0.27213  0.94226  1.0000
  H   H1579     1.0  0.83959  0.43894  0.92001  1.0000
  H   H1580     1.0  0.75681  0.47545  0.93633  1.0000
  C   C934      1.0  0.98351  0.44336  0.34295  1.0000
  H   H1581     1.0  0.86915  0.41253  0.46100  1.0000
  H   H1582     1.0  0.97183  0.43755  0.72813  1.0000
  C   C935      1.0  0.87222  0.40853  0.97519  1.0000
  C   C936      1.0  0.87003  0.42102  0.84423  1.0000
  H   H1583     1.0  0.87738  0.42112  0.98576  1.0000
  C   C937      1.0  0.77901  0.43323  0.06494  1.0000
  C   C938      1.0  0.97844  0.45641  0.35464  1.0000
  C   C939      1.0  0.88113  0.44312  0.23142  1.0000
  H   H1584     1.0  0.87633  0.43945  0.91815  1.0000
  H   H1585     1.0  0.86067  0.40158  0.99514  1.0000
  H   H1586     1.0  0.87625  0.41199  0.83626  1.0000
  H   H1587     1.0  0.86643  0.42521  0.81585  1.0000
  C   C940      1.0  0.76691  0.28733  0.06168  1.0000
  H   H1588     1.0  0.99037  0.37728  0.76399  1.0000
  H   H1589     1.0  0.87464  0.44877  0.21169  1.0000
  H   H1590     1.0  0.87137  0.43179  0.24519  1.0000
  H   H1591     1.0  0.88164  0.40260  0.97929  1.0000
  H   H1592     1.0  0.77807  0.44236  0.94570  1.0000
  C   C941      1.0  0.90776  0.47846  0.29288  1.0000
  C   C942      1.0  0.99868  0.44985  0.72558  1.0000
  H   H1593     1.0  0.93882  0.49147  0.44664  1.0000
  H   H1594     1.0  0.75756  0.44244  0.11091  1.0000
  H   H1595     1.0  0.78125  0.43430  0.09766  1.0000
  H   H1596     1.0  0.90878  0.48716  0.16422  1.0000
  C   C943      1.0  0.98239  0.44266  0.74564  1.0000
  H   H1597     1.0  0.93718  0.46531  0.75008  1.0000
  H   H1598     1.0  0.88791  0.48962  0.30201  1.0000
  H   H1599     1.0  0.97770  0.47432  0.73909  1.0000
  C   C944      1.0  0.96892  0.49199  0.79960  1.0000
  H   H1600     1.0  0.98093  0.40454  0.81992  1.0000
  H   H1601     1.0  0.94396  0.46520  0.46503  1.0000
  H   H1602     1.0  0.97265  0.43259  0.44454  1.0000
  C   C945      1.0  0.97771  0.42365  0.45718  1.0000
  H   H1603     1.0  0.75692  0.43355  0.00491  1.0000
  H   H1604     1.0  0.98972  0.48218  0.79661  1.0000
  H   H1605     1.0  0.96558  0.49230  0.52566  1.0000
  S   S270      1.0  0.82955  0.49062  0.02934  1.0000
  C   C946      1.0  0.99045  0.47206  0.35629  1.0000
  H   H1606     1.0  0.92115  0.45805  0.25571  1.0000
  H   H1607     1.0  0.95392  0.46773  0.69109  1.0000
  S   S271      1.0  0.86598  0.49740  0.97265  1.0000
  H   H1608     1.0  0.76520  0.45491  0.99743  1.0000
  H   H1609     1.0  0.00017  0.45671  0.41962  1.0000
  C   C947      1.0  0.96680  0.48588  0.44372  1.0000
  H   H1610     1.0  0.92240  0.45839  0.81190  1.0000
  H   H1611     1.0  0.90533  0.49381  0.23001  1.0000
  C   C948      1.0  0.95169  0.49680  0.74853  1.0000
  S   S272      1.0  0.86507  0.49986  0.85267  1.0000
  Fe  Fe134     1.0  0.85293  0.49954  0.91819  1.0000
  H   H1612     1.0  0.80204  0.46273  0.10320  1.0000
  H   H1613     1.0  0.96364  0.48870  0.67225  1.0000
  C   C949      1.0  0.95782  0.46907  0.46552  1.0000
  H   H1614     1.0  0.80908  0.27028  0.97257  1.0000
  H   H1615     1.0  0.96186  0.45987  0.44858  1.0000
  Fe  Fe135     1.0  0.81850  0.49316  0.97106  1.0000
  H   H1616     1.0  0.88443  0.47182  0.33521  1.0000
  H   H1617     1.0  0.75546  0.41234  0.07970  1.0000
  C   C950      1.0  0.78245  0.44303  0.97648  1.0000
  H   H1618     1.0  0.97528  0.47519  0.66894  1.0000
  H   H1619     1.0  0.76016  0.30053  0.11112  1.0000
  H   H1620     1.0  0.99907  0.41600  0.44686  1.0000
  H   H1621     1.0  0.96835  0.40803  0.75675  1.0000
  H   H1622     1.0  0.79526  0.48014  0.10135  1.0000
  C   C951      1.0  0.93377  0.48111  0.22314  1.0000
  C   C952      1.0  0.97142  0.39676  0.76050  1.0000
  C   C953      1.0  0.99632  0.42729  0.44066  1.0000
  H   H1623     1.0  0.92650  0.48942  0.78263  1.0000
  C   C954      1.0  0.98556  0.40388  0.69193  1.0000
  H   H1624     1.0  0.97638  0.37159  0.72694  1.0000
  H   H1625     1.0  0.97140  0.38052  0.66578  1.0000
  H   H1626     1.0  0.94535  0.49235  0.72083  1.0000
  H   H1627     1.0  0.99874  0.42011  0.76439  1.0000
  N   N68       1.0  0.98723  0.39781  0.73360  1.0000
  H   H1628     1.0  0.96032  0.38667  0.75162  1.0000
  H   H1629     1.0  0.89997  0.49077  0.34382  1.0000
  H   H1630     1.0  0.95833  0.39187  0.68649  1.0000
  C   C955      1.0  0.77010  0.49816  0.01752  1.0000
  H   H1631     1.0  0.99877  0.36575  0.69522  1.0000
  H   H1632     1.0  0.99902  0.44101  0.52078  1.0000
  H   H1633     1.0  0.75858  0.47016  0.08733  1.0000
  C   C956      1.0  0.75453  0.49953  0.03321  1.0000
  H   H1634     1.0  0.98297  0.49524  0.72493  1.0000
  H   H1635     1.0  0.98301  0.48679  0.84634  1.0000
  C   C957      1.0  0.00073  0.44602  0.33340  1.0000
  H   H1636     1.0  0.92455  0.49994  0.38856  1.0000
  N   N69       1.0  0.96417  0.50028  0.46442  1.0000
  C   C958      1.0  0.93816  0.50028  0.77761  1.0000
  Fe  Fe136     1.0  0.97670  0.54999  0.62544  1.0000
  S   S273      1.0  0.96003  0.56465  0.64207  1.0000
  H   H1637     1.0  0.87570  0.56542  0.73959  1.0000
  Fe  Fe137     1.0  0.94708  0.52043  0.60975  1.0000
  S   S274      1.0  0.92782  0.53230  0.62492  1.0000
  Fe  Fe138     1.0  0.94654  0.55356  0.58793  1.0000
  S   S275      1.0  0.93704  0.56828  0.54608  1.0000
  Fe  Fe139     1.0  0.94247  0.54212  0.67804  1.0000
  S   S276      1.0  0.93134  0.54491  0.74268  1.0000
  S   S277      1.0  0.96455  0.54079  0.56868  1.0000
  S   S278      1.0  0.96037  0.52841  0.66535  1.0000
  Fe  Fe140     1.0  0.93074  0.53955  0.21748  1.0000
  S   S279      1.0  0.95904  0.54717  0.20531  1.0000
  S   S280      1.0  0.91444  0.52306  0.17234  1.0000
  Fe  Fe141     1.0  0.93338  0.55134  0.30628  1.0000
  S   S281      1.0  0.96152  0.55979  0.30003  1.0000
  S   S282      1.0  0.91849  0.55490  0.36394  1.0000
  Fe  Fe142     1.0  0.95996  0.56975  0.23859  1.0000
  S   S283      1.0  0.97489  0.59560  0.21653  1.0000
  Fe  Fe143     1.0  0.95802  0.53663  0.26792  1.0000
  S   S284      1.0  0.93169  0.56304  0.24659  1.0000
  S   S285      1.0  0.92981  0.52726  0.27821  1.0000
  C   C959      1.0  0.93286  0.56397  0.49491  1.0000
  C   C960      1.0  0.92148  0.57013  0.47903  1.0000
  C   C961      1.0  0.91739  0.56716  0.43906  1.0000
  C   C962      1.0  0.92506  0.55848  0.41348  1.0000
  C   C963      1.0  0.93696  0.55265  0.42857  1.0000
  C   C964      1.0  0.94071  0.55523  0.46952  1.0000
  H   H1638     1.0  0.91554  0.57709  0.49796  1.0000
  H   H1639     1.0  0.90821  0.57169  0.42782  1.0000
  H   H1640     1.0  0.94291  0.54587  0.40907  1.0000
  H   H1641     1.0  0.94973  0.55065  0.48132  1.0000
  H   H1642     1.0  0.98986  0.58379  0.36599  1.0000
  H   H1643     1.0  0.94624  0.52176  0.34540  1.0000
  H   H1644     1.0  0.98379  0.50850  0.38111  1.0000
  H   H1645     1.0  0.87652  0.51939  0.71529  1.0000
  H   H1646     1.0  0.99867  0.58489  0.64902  1.0000
  C   C965      1.0  0.92290  0.57577  0.66710  1.0000
  H   H1647     1.0  0.89908  0.55425  0.01552  1.0000
  H   H1648     1.0  0.99412  0.50840  0.53475  1.0000
  H   H1649     1.0  0.86459  0.54389  0.73453  1.0000
  H   H1650     1.0  0.94312  0.56892  0.02345  1.0000
  S   S286      1.0  0.86585  0.53243  0.04539  1.0000
  C   C966      1.0  0.92915  0.54873  0.90947  1.0000
  H   H1651     1.0  0.95952  0.60784  0.44732  1.0000
  H   H1652     1.0  0.96896  0.51327  0.52011  1.0000
  H   H1653     1.0  0.91817  0.51239  0.01210  1.0000
  H   H1654     1.0  0.89949  0.55230  0.92216  1.0000
  C   C967      1.0  0.92312  0.54455  0.02748  1.0000
  H   H1655     1.0  0.91254  0.53804  0.05075  1.0000
  H   H1656     1.0  0.92737  0.55989  0.89787  1.0000
  C   C968      1.0  0.89382  0.55210  0.95374  1.0000
  C   C969      1.0  0.90053  0.52601  0.13854  1.0000
  Fe  Fe144     1.0  0.85204  0.51213  0.00486  1.0000
  C   C970      1.0  0.88130  0.52608  0.68542  1.0000
  H   H1657     1.0  0.92696  0.56645  0.68113  1.0000
  H   H1658     1.0  0.86491  0.54822  0.65963  1.0000
  H   H1659     1.0  0.91501  0.56815  0.98132  1.0000
  H   H1660     1.0  0.93941  0.56302  0.95884  1.0000
  H   H1661     1.0  0.93616  0.56009  0.07373  1.0000
  C   C971      1.0  0.91323  0.53189  0.77344  1.0000
  C   C972      1.0  0.90316  0.51682  0.76051  1.0000
  N   N70       1.0  0.96666  0.60851  0.34249  1.0000
  C   C973      1.0  0.89228  0.51306  0.11443  1.0000
  C   C974      1.0  0.89418  0.52734  0.83676  1.0000
  C   C975      1.0  0.90867  0.53705  0.81176  1.0000
  H   H1662     1.0  0.94098  0.60493  0.42362  1.0000
  H   H1663     1.0  0.89069  0.53156  0.86581  1.0000
  H   H1664     1.0  0.91632  0.54873  0.82198  1.0000
  C   C976      1.0  0.98083  0.60176  0.34066  1.0000
  H   H1665     1.0  0.96203  0.51603  0.41583  1.0000
  H   H1666     1.0  0.99256  0.52934  0.39285  1.0000
  C   C977      1.0  0.98722  0.51679  0.40672  1.0000
  C   C978      1.0  0.89769  0.54076  0.13445  1.0000
  H   H1667     1.0  0.90276  0.57409  0.71299  1.0000
  H   H1668     1.0  0.87371  0.56941  0.66348  1.0000
  H   H1669     1.0  0.97707  0.62249  0.39354  1.0000
  H   H1670     1.0  0.90394  0.55084  0.15275  1.0000
  H   H1671     1.0  0.88782  0.51914  0.66645  1.0000
  H   H1672     1.0  0.88316  0.54046  0.96065  1.0000
  C   C979      1.0  0.95086  0.59528  0.33246  1.0000
  H   H1673     1.0  0.95846  0.62515  0.37978  1.0000
  H   H1674     1.0  0.99306  0.61147  0.34420  1.0000
  H   H1675     1.0  0.94030  0.54738  0.89143  1.0000
  C   C980      1.0  0.87851  0.52945  0.08243  1.0000
  C   C981      1.0  0.87419  0.55774  0.67586  1.0000
  H   H1676     1.0  0.96757  0.57799  0.37414  1.0000
  H   H1677     1.0  0.92609  0.57639  0.63363  1.0000
  C   C982      1.0  0.89368  0.54338  0.69199  1.0000
  H   H1678     1.0  0.90150  0.58352  0.66649  1.0000
  H   H1679     1.0  0.93290  0.60709  0.35727  1.0000
  C   C983      1.0  0.95859  0.50585  0.31896  1.0000
  H   H1680     1.0  0.90647  0.51264  0.73121  1.0000
  C   C984      1.0  0.93184  0.56160  0.04370  1.0000
  H   H1681     1.0  0.88819  0.56184  0.95533  1.0000
  H   H1682     1.0  0.89305  0.54564  0.72519  1.0000
  H   H1683     1.0  0.88472  0.55393  0.10336  1.0000
  S   S287      1.0  0.97237  0.52075  0.28440  1.0000
  C   C985      1.0  0.97941  0.58856  0.37324  1.0000
  H   H1684     1.0  0.96172  0.50872  0.73941  1.0000
  H   H1685     1.0  0.98855  0.64565  0.28825  1.0000
  S   S288      1.0  0.84025  0.51601  0.94851  1.0000
  H   H1686     1.0  0.99884  0.63186  0.29946  1.0000
  C   C986      1.0  0.90666  0.55516  0.98552  1.0000
  H   H1687     1.0  0.92305  0.56842  0.04922  1.0000
  H   H1688     1.0  0.93062  0.58767  0.67837  1.0000
  H   H1689     1.0  0.88189  0.56897  0.59544  1.0000
  H   H1690     1.0  0.87507  0.50459  0.06849  1.0000
  H   H1691     1.0  0.91852  0.53791  0.90262  1.0000
  H   H1692     1.0  0.95313  0.59025  0.30238  1.0000
  H   H1693     1.0  0.90432  0.57951  0.59721  1.0000
  C   C987      1.0  0.96453  0.61584  0.38310  1.0000
  H   H1694     1.0  0.95247  0.59115  0.41552  1.0000
  H   H1695     1.0  0.93226  0.53802  0.02818  1.0000
  C   C988      1.0  0.95375  0.60405  0.41854  1.0000
  H   H1696     1.0  0.94270  0.50509  0.80689  1.0000
  N   N71       1.0  0.91694  0.54410  0.98590  1.0000
  H   H1697     1.0  0.94143  0.54387  0.95988  1.0000
  H   H1698     1.0  0.75401  0.50631  0.06030  1.0000
  H   H1699     1.0  0.92583  0.50667  0.49191  1.0000
  H   H1700     1.0  0.94324  0.52082  0.46220  1.0000
  H   H1701     1.0  0.97432  0.52658  0.45410  1.0000
  H   H1702     1.0  0.89702  0.56412  0.56154  1.0000
  H   H1703     1.0  0.92398  0.58927  0.32931  1.0000
  C   C989      1.0  0.93529  0.60039  0.33041  1.0000
  H   H1704     1.0  0.98240  0.59670  0.31020  1.0000
  C   C990      1.0  0.93219  0.54996  0.95485  1.0000
  H   H1705     1.0  0.98974  0.64103  0.34047  1.0000
  H   H1706     1.0  0.94706  0.58468  0.35408  1.0000
  H   H1707     1.0  0.90023  0.52535  0.95095  1.0000
  H   H1708     1.0  0.78130  0.50385  0.03259  1.0000
  H   H1709     1.0  0.98092  0.59371  0.40385  1.0000
  H   H1710     1.0  0.93642  0.60775  0.30211  1.0000
  H   H1711     1.0  0.87007  0.52585  0.67080  1.0000
  C   C991      1.0  0.97106  0.62171  0.30931  1.0000
  C   C992      1.0  0.88128  0.51471  0.08677  1.0000
  C   C993      1.0  0.89493  0.55422  0.62293  1.0000
  C   C994      1.0  0.89444  0.56762  0.59314  1.0000
  H   H1712     1.0  0.90728  0.55253  0.61611  1.0000
  H   H1713     1.0  0.88553  0.54264  0.61422  1.0000
  C   C995      1.0  0.88399  0.51233  0.82361  1.0000
  C   C996      1.0  0.90597  0.52677  0.98005  1.0000
  H   H1714     1.0  0.89500  0.52300  0.00385  1.0000
  C   C997      1.0  0.86717  0.55628  0.72115  1.0000
  N   N72       1.0  0.89171  0.55704  0.66747  1.0000
  H   H1715     1.0  0.90649  0.54281  0.68494  1.0000
  C   C998      1.0  0.90410  0.57295  0.67938  1.0000
  H   H1716     1.0  0.96130  0.62756  0.31026  1.0000
  C   C999      1.0  0.88676  0.54246  0.10648  1.0000
  H   H1717     1.0  0.94461  0.51621  0.51497  1.0000
  C   C1000     1.0  0.94635  0.50945  0.34460  1.0000
  H   H1718     1.0  0.92572  0.51676  0.95828  1.0000
  C   C1001     1.0  0.91462  0.51394  0.98129  1.0000
  C   C1002     1.0  0.88863  0.50715  0.78539  1.0000
  H   H1719     1.0  0.85495  0.55839  0.72375  1.0000
  H   H1720     1.0  0.97116  0.61648  0.27867  1.0000
  C   C1003     1.0  0.97143  0.51533  0.43632  1.0000
  H   H1721     1.0  0.99732  0.51431  0.42126  1.0000
  C   C1004     1.0  0.98805  0.63575  0.31008  1.0000
  C   C1005     1.0  0.93978  0.51105  0.48628  1.0000
  C   C1006     1.0  0.99073  0.50719  0.50299  1.0000
  H   H1722     1.0  0.93452  0.50984  0.76294  1.0000
  H   H1723     1.0  0.99283  0.62867  0.19663  1.0000
  H   H1724     1.0  0.99770  0.51905  0.48675  1.0000
  C   C1007     1.0  0.99599  0.60747  0.22268  1.0000
  C   C1008     1.0  0.97161  0.50308  0.50450  1.0000
  H   H1725     1.0  0.97838  0.50430  0.79102  1.0000
  H   H1726     1.0  0.92249  0.50113  0.66210  1.0000
  H   H1727     1.0  0.90553  0.50195  0.97407  1.0000
  H   H1728     1.0  0.89444  0.50165  0.11698  1.0000
