data_image0
_chemical_formula_structural       HSHCH2FeS2FeS2FeSFeS3C3H2C2FeH6C3H2CH2C6H4CH4CH3CH5CH2CHNCHC2H3NC2H5CH4SH3CH5NC2H2FeCHCH4CSCHCH2C2HCHC2HC2NH2CH5CNH3CH8CHCH4CHSC3H2CH5CH6CH2C2HFeH3CFeS2FeSC2SC2HCFeS2FeS2FeSFeS3HCH2C5HCHCHSH3C6H4CH2C2SCHSHCHNCH2FeCH5C2SH3CH4NH2C4HSH9CHCH2NCH4CNC2HCH2CHCH2CH3C2HFeHCHC2HCHC2H2FeSH2C2HCH4NH5SH5C2HC2HCHCH2CH3C2HSHS2HFeS2FeS2FeSFeS3CHCH2C2HC2H2C6H4CH4C3H3CHCH2CH3FeHCNH8NC8H10C2NH7CH4FeH4C2H2CH2CH2CHSH2CHC6H2SH4C2HCH5CHCH3C2H2CHCH7SCSHC2H5C2HFeS2FeS2FeS2FeSFeS3HC2H5C6H5CHCH14CH2CHSH3FeHC2HC4NCH3CH2CH3CHC2HCHC2H4Fe2H2CH4NHC2SCHSH2CH2C3H4CHCH4NC6H2C2HFe2H4C2H3SH2NSH6CFeS2FeSHFeSFeS3FeSCFeS2FeSFeHS2C2HC4HC6H5CHC2HSCH3CH15NCH2C3H2SH5CHC2H2C2HC2HC2HCH5SCHC2HCH9NC6H3C2H2C2H7CHCH3C2HCHFeSCFeSCFeSFeS3FeS2FeS2FeSFeNS2CH2CHC6H8CSC2H12CH9CH3CHCH3CHCHC2HSCH2CH2NH2C3H3CH2CHCHCSHCH2CH4C3H2NHSHCH4CHC3H4CH4C3SHCH2C2FeS2FeS2FeSFeCS2FeS2FeS2FeSFeS3C2H4C2HC3H4C3H4CHC6H4CH5CHC4H3C4HCNC2H2C2HCH2CHNH13C2HNCH3CH4CHC2H5C5H7CH2NHCHCH2CH3CH4CH5NC3HC2H6CH6SHCH6CNHCHC2H3C3H7CH3CNH6CHCHCHSC2FeS2FeS2FeCFeS3FeS2FeS2FeSFeS3CNHC3H2CHC2HC4H4C6H4C2H4C2H4C2H2SC3H3NCHC3HCH3C2H8CH3CHCH4CHCH3CHCNH5CNC8H17CH2C2H6CH3CH3CHCH3CH5CH4SH3CFeS2FeS2FeSFeS3C2HCH2C3HCH2C3NHC6H9CHNH10CHSCH4C3HCH2CHCHNCNC4H6C2H4CH2CHCH2CH7CHCH6CHC2NCHC3H7C4HCHC2H4CH8C3HC3HSH4CH2CH5CH5C2FeS2FeSHFeSFeS3FeS2FeS2FeSFeS3C2HCH2C2HCHC2HC6H4SH4CHFeC2FeHSNH6C2HCH4FeH2CHSHCH4CH5CH3C3FeH4SC2H4C2SCNC8H14CH2CH3CHCH6CFeS2FeSHFeS2FeS2FeSFeHS2CFeC4HCHCH2NHCHC7H4CH2C3HCH6CHC2H6CHCH6SH4CH4FeC2H2CH5NCH3SH3CNC4H3CH8C3HSH4CH2CH2SHSH3CSCH3CSHCH3FeS2FeSNH2C2H2FeS2FeS2FeSFeS3CNHCH2C2H2CHC2H4C6H4C2H4SHCHCHC2H5CS2CNH2CHCSH3C2H2C4H5CNC8H11C2HCHCH5CHCH2C2FeH3CSH7CH2C3H2FeH7C5H2CNCH2CH
_chemical_formula_sum              "H1152 S192 C672 Fe96 N48"
_cell_length_a       58.4475
_cell_length_b       58.3334
_cell_length_c       36.6251
_cell_angle_alpha    89.834
_cell_angle_beta     90.0242
_cell_angle_gamma    86.3544

_space_group_name_H-M_alt    "P 1"
_space_group_IT_number       1

loop_
  _space_group_symop_operation_xyz
  'x, y, z'

loop_
  _atom_site_type_symbol
  _atom_site_label
  _atom_site_symmetry_multiplicity
  _atom_site_fract_x
  _atom_site_fract_y
  _atom_site_fract_z
  _atom_site_occupancy
  H   H1        1.0  0.08868  0.45459  0.23082  1.0000
  S   S1        1.0  0.11836  0.31229  0.06354  1.0000
  H   H2        1.0  0.15995  0.24526  0.18479  1.0000
  C   C1        1.0  0.15527  0.26048  0.07801  1.0000
  H   H3        1.0  0.16900  0.26900  0.15980  1.0000
  H   H4        1.0  0.32465  0.12506  0.10617  1.0000
  Fe  Fe1       1.0  0.10189  0.36506  0.26183  1.0000
  S   S2        1.0  0.09667  0.39790  0.23004  1.0000
  S   S3        1.0  0.10161  0.32986  0.23423  1.0000
  Fe  Fe2       1.0  0.09849  0.39054  0.33661  1.0000
  S   S4        1.0  0.09330  0.42490  0.30872  1.0000
  S   S5        1.0  0.09285  0.39796  0.39699  1.0000
  Fe  Fe3       1.0  0.06962  0.40765  0.27159  1.0000
  S   S6        1.0  0.03506  0.42442  0.25698  1.0000
  Fe  Fe4       1.0  0.12088  0.41200  0.27078  1.0000
  S   S7        1.0  0.14995  0.43307  0.25335  1.0000
  S   S8        1.0  0.07300  0.37398  0.30105  1.0000
  S   S9        1.0  0.12819  0.37849  0.30060  1.0000
  C   C2        1.0  0.01403  0.40730  0.27446  1.0000
  C   C3        1.0  0.01834  0.39443  0.30623  1.0000
  C   C4        1.0  0.17610  0.49497  0.26398  1.0000
  H   H5        1.0  0.03317  0.39733  0.32276  1.0000
  H   H6        1.0  0.01259  0.28165  0.03277  1.0000
  C   C5        1.0  0.15279  0.46195  0.26554  1.0000
  C   C6        1.0  0.17305  0.47193  0.25587  1.0000
  Fe  Fe5       1.0  0.30411  0.09099  0.02681  1.0000
  H   H7        1.0  0.17128  0.21864  0.14165  1.0000
  H   H8        1.0  0.17721  0.19014  0.06168  1.0000
  H   H9        1.0  0.26881  0.05375  0.22976  1.0000
  H   H10       1.0  0.18651  0.46178  0.24197  1.0000
  H   H11       1.0  0.13416  0.41692  0.36197  1.0000
  H   H12       1.0  0.14666  0.44021  0.34079  1.0000
  C   C7        1.0  0.17590  0.46784  0.36534  1.0000
  C   C8        1.0  0.10441  0.38499  0.43710  1.0000
  C   C9        1.0  0.11617  0.36337  0.43709  1.0000
  H   H13       1.0  0.05395  0.33249  0.27530  1.0000
  H   H14       1.0  0.16940  0.43951  0.47192  1.0000
  C   C10       1.0  0.10118  0.39683  0.47023  1.0000
  H   H15       1.0  0.11882  0.35414  0.41170  1.0000
  H   H16       1.0  0.09228  0.41367  0.47040  1.0000
  C   C11       1.0  0.11250  0.31673  0.11081  1.0000
  C   C12       1.0  0.10464  0.29960  0.13361  1.0000
  C   C13       1.0  0.10160  0.30377  0.17135  1.0000
  C   C14       1.0  0.10576  0.32528  0.18656  1.0000
  C   C15       1.0  0.11306  0.34254  0.16359  1.0000
  C   C16       1.0  0.11662  0.33819  0.12610  1.0000
  H   H17       1.0  0.10115  0.28313  0.12227  1.0000
  H   H18       1.0  0.09595  0.29028  0.18886  1.0000
  H   H19       1.0  0.11646  0.35912  0.17479  1.0000
  H   H20       1.0  0.12276  0.35156  0.10879  1.0000
  C   C17       1.0  0.04289  0.34585  0.45561  1.0000
  H   H21       1.0  0.27980  0.06478  0.30102  1.0000
  H   H22       1.0  0.02656  0.35383  0.44457  1.0000
  H   H23       1.0  0.31504  0.09041  0.19133  1.0000
  H   H24       1.0  0.05778  0.35271  0.22112  1.0000
  C   C18       1.0  0.13012  0.44956  0.41120  1.0000
  H   H25       1.0  0.31058  0.06526  0.30736  1.0000
  H   H26       1.0  0.02282  0.47338  0.35613  1.0000
  H   H27       1.0  0.13171  0.45767  0.43845  1.0000
  C   C19       1.0  0.03918  0.35765  0.21810  1.0000
  H   H28       1.0  0.14746  0.25967  0.05042  1.0000
  H   H29       1.0  0.01045  0.33637  0.26452  1.0000
  H   H30       1.0  0.05956  0.33720  0.14548  1.0000
  H   H31       1.0  0.16593  0.40997  0.48297  1.0000
  H   H32       1.0  0.18869  0.48065  0.37115  1.0000
  C   C20       1.0  0.14971  0.42701  0.36238  1.0000
  H   H33       1.0  0.11685  0.43683  0.41441  1.0000
  H   H34       1.0  0.00366  0.34000  0.49087  1.0000
  C   C21       1.0  0.01060  0.46448  0.33872  1.0000
  H   H35       1.0  0.30949  0.09658  0.25634  1.0000
  N   N1        1.0  0.07756  0.48934  0.21546  1.0000
  C   C22       1.0  0.07983  0.45357  0.17370  1.0000
  H   H36       1.0  0.14150  0.26880  0.09497  1.0000
  C   C23       1.0  0.07600  0.46372  0.21220  1.0000
  C   C24       1.0  0.12089  0.22816  0.10849  1.0000
  H   H37       1.0  0.13797  0.22005  0.05783  1.0000
  H   H38       1.0  0.03148  0.48102  0.20286  1.0000
  H   H39       1.0  0.32798  0.01933  0.21898  1.0000
  N   N2        1.0  0.15260  0.43763  0.39947  1.0000
  C   C25       1.0  0.10145  0.49469  0.20373  1.0000
  C   C26       1.0  0.17160  0.23623  0.12984  1.0000
  H   H40       1.0  0.07160  0.35934  0.48378  1.0000
  H   H41       1.0  0.18845  0.44462  0.40689  1.0000
  H   H42       1.0  0.16664  0.29518  0.07249  1.0000
  H   H43       1.0  0.01269  0.30910  0.24293  1.0000
  H   H44       1.0  0.16886  0.40829  0.31952  1.0000
  C   C27       1.0  0.00373  0.37738  0.31632  1.0000
  H   H45       1.0  0.05553  0.34407  0.43293  1.0000
  H   H46       1.0  0.06782  0.46169  0.15335  1.0000
  H   H47       1.0  0.19702  0.23736  0.06863  1.0000
  H   H48       1.0  0.13273  0.33648  0.47027  1.0000
  S   S10       1.0  0.09873  0.25115  0.01856  1.0000
  H   H49       1.0  0.00021  0.29820  0.06965  1.0000
  H   H50       1.0  0.29242  0.09031  0.31461  1.0000
  H   H51       1.0  0.05415  0.30401  0.25598  1.0000
  C   C28       1.0  0.04338  0.31790  0.26937  1.0000
  H   H52       1.0  0.26588  0.07515  0.17852  1.0000
  H   H53       1.0  0.27396  0.10301  0.19480  1.0000
  H   H54       1.0  0.18523  0.27712  0.10065  1.0000
  H   H55       1.0  0.03386  0.36564  0.24459  1.0000
  H   H56       1.0  0.03798  0.31105  0.29614  1.0000
  N   N3        1.0  0.02581  0.33678  0.21066  1.0000
  C   C29       1.0  0.29695  0.08291  0.25697  1.0000
  C   C30       1.0  0.03937  0.31992  0.18669  1.0000
  H   H57       1.0  0.12355  0.22619  0.13832  1.0000
  H   H58       1.0  0.26691  0.01915  0.01715  1.0000
  Fe  Fe6       1.0  0.11271  0.28624  0.01813  1.0000
  C   C31       1.0  0.04393  0.32734  0.14706  1.0000
  H   H59       1.0  0.11370  0.24562  0.10151  1.0000
  C   C32       1.0  0.13552  0.47520  0.28375  1.0000
  H   H60       1.0  0.14557  0.40468  0.42331  1.0000
  H   H61       1.0  0.14790  0.20346  0.09609  1.0000
  H   H62       1.0  0.05667  0.31592  0.19858  1.0000
  H   H63       1.0  0.05469  0.49335  0.30466  1.0000
  C   C33       1.0  0.17000  0.41078  0.34951  1.0000
  S   S11       1.0  0.26608  0.08853  0.01644  1.0000
  C   C34       1.0  0.14290  0.22130  0.08712  1.0000
  H   H64       1.0  0.29143  0.01022  0.24684  1.0000
  C   C35       1.0  0.30283  0.07652  0.19193  1.0000
  H   H65       1.0  0.30842  0.06436  0.16994  1.0000
  H   H66       1.0  0.28149  0.09346  0.15022  1.0000
  C   C36       1.0  0.03714  0.37741  0.18994  1.0000
  C   C37       1.0  0.18997  0.20198  0.07165  1.0000
  H   H67       1.0  0.18686  0.41763  0.35541  1.0000
  C   C38       1.0  0.27950  0.08751  0.17888  1.0000
  H   H68       1.0  0.11996  0.46744  0.29154  1.0000
  C   C39       1.0  0.02177  0.32509  0.24677  1.0000
  C   C40       1.0  0.15945  0.25321  0.15717  1.0000
  H   H69       1.0  0.10758  0.21624  0.10090  1.0000
  C   C41       1.0  0.18151  0.22737  0.06595  1.0000
  C   C42       1.0  0.15808  0.41822  0.42615  1.0000
  N   N4        1.0  0.16263  0.23660  0.09114  1.0000
  H   H70       1.0  0.17606  0.22933  0.03686  1.0000
  H   H71       1.0  0.16929  0.39356  0.36234  1.0000
  C   C43       1.0  0.17170  0.45395  0.40048  1.0000
  H   H72       1.0  0.09782  0.45460  0.16450  1.0000
  H   H73       1.0  0.14125  0.25808  0.15134  1.0000
  H   H74       1.0  0.27318  0.02787  0.27557  1.0000
  H   H75       1.0  0.03187  0.30286  0.18621  1.0000
  H   H76       1.0  0.17516  0.40948  0.42027  1.0000
  C   C44       1.0  0.12402  0.35342  0.47028  1.0000
  N   N5        1.0  0.30338  0.06477  0.22884  1.0000
  H   H77       1.0  0.18995  0.24041  0.12994  1.0000
  H   H78       1.0  0.30355  0.02936  0.27816  1.0000
  H   H79       1.0  0.27996  0.09164  0.25080  1.0000
  C   C45       1.0  0.17446  0.27743  0.07575  1.0000
  H   H80       1.0  0.01991  0.38655  0.19088  1.0000
  H   H81       1.0  0.11777  0.46330  0.35768  1.0000
  H   H82       1.0  0.04960  0.39026  0.19711  1.0000
  H   H83       1.0  0.00779  0.36661  0.33984  1.0000
  H   H84       1.0  0.05915  0.45827  0.22126  1.0000
  H   H85       1.0  0.01932  0.46082  0.31238  1.0000
  H   H86       1.0  0.07654  0.43502  0.17455  1.0000
  H   H87       1.0  0.04833  0.37895  0.47660  1.0000
  C   C46       1.0  0.05257  0.36096  0.48560  1.0000
  H   H88       1.0  0.03897  0.48629  0.26512  1.0000
  C   C47       1.0  0.11982  0.46883  0.38626  1.0000
  H   H89       1.0  0.28786  0.03671  0.20194  1.0000
  H   H90       1.0  0.04044  0.32806  0.46444  1.0000
  H   H91       1.0  0.04110  0.37176  0.16179  1.0000
  H   H92       1.0  0.18314  0.45679  0.34304  1.0000
  C   C48       1.0  0.28672  0.04607  0.22847  1.0000
  H   H93       1.0  0.14106  0.42881  0.47772  1.0000
  S   S12       1.0  0.32142  0.07757  0.07985  1.0000
  C   C49       1.0  0.28914  0.02763  0.25907  1.0000
  C   C50       1.0  0.29501  0.07490  0.29695  1.0000
  C   C51       1.0  0.32787  0.05581  0.23522  1.0000
  H   H94       1.0  0.20567  0.19823  0.05504  1.0000
  H   H95       1.0  0.04677  0.31177  0.12983  1.0000
  C   C52       1.0  0.15861  0.42488  0.46688  1.0000
  H   H96       1.0  0.18541  0.27396  0.05137  1.0000
  H   H97       1.0  0.19447  0.19803  0.10046  1.0000
  H   H98       1.0  0.02936  0.33728  0.13420  1.0000
  H   H99       1.0  0.12971  0.48438  0.38786  1.0000
  H   H100      1.0  0.06146  0.46657  0.28280  1.0000
  C   C53       1.0  0.00259  0.34403  0.19492  1.0000
  H   H101      1.0  0.16889  0.46656  0.42307  1.0000
  H   H102      1.0  0.00393  0.35381  0.16913  1.0000
  H   H103      1.0  0.10393  0.49173  0.17395  1.0000
  H   H104      1.0  0.10232  0.47408  0.39624  1.0000
  H   H105      1.0  0.09056  0.49355  0.27031  1.0000
  H   H106      1.0  0.11454  0.48290  0.21745  1.0000
  C   C54       1.0  0.07434  0.49668  0.25479  1.0000
  H   H107      1.0  0.16039  0.47750  0.35504  1.0000
  H   H108      1.0  0.00735  0.44809  0.35264  1.0000
  C   C55       1.0  0.05620  0.48490  0.27755  1.0000
  C   C56       1.0  0.26906  0.00431  0.99953  1.0000
  H   H109      1.0  0.32309  0.16343  0.79448  1.0000
  Fe  Fe7       1.0  0.07675  0.26295  0.97033  1.0000
  H   H110      1.0  0.99914  0.44558  0.72370  1.0000
  H   H111      1.0  0.05923  0.27016  0.88043  1.0000
  H   H112      1.0  0.01714  0.25161  0.85075  1.0000
  C   C57       1.0  0.17839  0.42755  0.76554  1.0000
  Fe  Fe8       1.0  0.11638  0.28693  0.93331  1.0000
  S   S13       1.0  0.11966  0.31549  0.89095  1.0000
  S   S14       1.0  0.10328  0.25159  0.92825  1.0000
  Fe  Fe9       1.0  0.31331  0.10201  0.94518  1.0000
  S   S15       1.0  0.27641  0.09974  0.93019  1.0000
  C   C58       1.0  0.04251  0.31458  0.88945  1.0000
  C   C59       1.0  0.05278  0.39862  0.54421  1.0000
  S   S16       1.0  0.24794  0.15613  0.97616  1.0000
  C   C60       1.0  0.12030  0.36504  0.50355  1.0000
  C   C61       1.0  0.07414  0.32310  0.53424  1.0000
  H   H113      1.0  0.05760  0.40469  0.51677  1.0000
  C   C62       1.0  0.04905  0.33287  0.53691  1.0000
  Fe  Fe10      1.0  0.11222  0.34807  0.68099  1.0000
  S   S17       1.0  0.09639  0.38231  0.69886  1.0000
  S   S18       1.0  0.11920  0.31642  0.71699  1.0000
  Fe  Fe11      1.0  0.11713  0.36394  0.60089  1.0000
  S   S19       1.0  0.10200  0.39933  0.61284  1.0000
  S   S20       1.0  0.12902  0.35130  0.54482  1.0000
  Fe  Fe12      1.0  0.12325  0.39726  0.66378  1.0000
  S   S21       1.0  0.14275  0.42714  0.68300  1.0000
  Fe  Fe13      1.0  0.07637  0.38154  0.64660  1.0000
  S   S22       1.0  0.03984  0.39615  0.64390  1.0000
  S   S23       1.0  0.14083  0.36308  0.64944  1.0000
  S   S24       1.0  0.08984  0.34604  0.63112  1.0000
  H   H114      1.0  0.10955  0.41666  0.80062  1.0000
  C   C63       1.0  0.02357  0.35343  0.63110  1.0000
  H   H115      1.0  0.03946  0.47528  0.61422  1.0000
  H   H116      1.0  0.04063  0.34622  0.63697  1.0000
  C   C64       1.0  0.06344  0.29306  0.79462  1.0000
  C   C65       1.0  0.12630  0.45342  0.67878  1.0000
  C   C66       1.0  0.10302  0.45348  0.67018  1.0000
  C   C67       1.0  0.17475  0.19287  0.97985  1.0000
  C   C68       1.0  0.00636  0.33894  0.62069  1.0000
  H   H117      1.0  0.02780  0.27125  0.80049  1.0000
  C   C69       1.0  0.27010  0.00742  0.96168  1.0000
  H   H118      1.0  0.09503  0.43745  0.66642  1.0000
  C   C70       1.0  0.01221  0.23176  0.98156  1.0000
  H   H119      1.0  0.27818  0.20552  0.85226  1.0000
  S   S25       1.0  0.14144  0.27684  0.97849  1.0000
  H   H120      1.0  0.06168  0.31062  0.74215  1.0000
  H   H121      1.0  0.13017  0.38693  0.84514  1.0000
  H   H122      1.0  0.04398  0.33230  0.89987  1.0000
  C   C71       1.0  0.11922  0.31490  0.84261  1.0000
  C   C72       1.0  0.12724  0.29561  0.82270  1.0000
  C   C73       1.0  0.12745  0.29643  0.78419  1.0000
  C   C74       1.0  0.11927  0.31634  0.76531  1.0000
  C   C75       1.0  0.11083  0.33543  0.78524  1.0000
  C   C76       1.0  0.11119  0.33485  0.82368  1.0000
  H   H123      1.0  0.13364  0.28023  0.83692  1.0000
  H   H124      1.0  0.13390  0.28152  0.76893  1.0000
  H   H125      1.0  0.10386  0.35052  0.77095  1.0000
  H   H126      1.0  0.10487  0.34980  0.83889  1.0000
  C   C77       1.0  0.01855  0.37716  0.63386  1.0000
  H   H127      1.0  0.00020  0.42889  0.68244  1.0000
  H   H128      1.0  0.06334  0.27693  0.77847  1.0000
  C   C78       1.0  0.32467  0.09962  0.79932  1.0000
  C   C79       1.0  0.21940  0.16959  0.97766  1.0000
  S   S26       1.0  0.30557  0.12391  0.99489  1.0000
  C   C80       1.0  0.19413  0.20500  0.97219  1.0000
  H   H129      1.0  0.23098  0.20316  0.96571  1.0000
  S   S27       1.0  0.14638  0.20655  0.98346  1.0000
  H   H130      1.0  0.03460  0.31137  0.76512  1.0000
  C   C81       1.0  0.20001  0.15746  0.98516  1.0000
  H   H131      1.0  0.05493  0.24253  0.82455  1.0000
  N   N6        1.0  0.28971  0.17221  0.87387  1.0000
  C   C82       1.0  0.32345  0.10147  0.83771  1.0000
  H   H132      1.0  0.30792  0.09766  0.85191  1.0000
  H   H133      1.0  0.30991  0.09456  0.78418  1.0000
  Fe  Fe14      1.0  0.27763  0.06826  0.96639  1.0000
  C   C83       1.0  0.13637  0.47440  0.68406  1.0000
  H   H134      1.0  0.10672  0.39632  0.52858  1.0000
  H   H135      1.0  0.19564  0.39396  0.76772  1.0000
  H   H136      1.0  0.26545  0.14629  0.82519  1.0000
  H   H137      1.0  0.20198  0.13916  0.99015  1.0000
  H   H138      1.0  0.02649  0.47407  0.75021  1.0000
  C   C84       1.0  0.02779  0.28315  0.82425  1.0000
  C   C85       1.0  0.21622  0.19346  0.97129  1.0000
  S   S28       1.0  0.26616  0.03507  0.94136  1.0000
  H   H139      1.0  0.01614  0.29822  0.81641  1.0000
  H   H140      1.0  0.30227  0.14465  0.80886  1.0000
  H   H141      1.0  0.27241  0.14838  0.90765  1.0000
  C   C86       1.0  0.05329  0.31235  0.76935  1.0000
  H   H142      1.0  0.06879  0.32002  0.85028  1.0000
  H   H143      1.0  0.14732  0.35837  0.72951  1.0000
  H   H144      1.0  0.05705  0.32959  0.77964  1.0000
  H   H145      1.0  0.03471  0.40423  0.55035  1.0000
  N   N7        1.0  0.04443  0.35736  0.52413  1.0000
  H   H146      1.0  0.02376  0.42738  0.71443  1.0000
  H   H147      1.0  0.17471  0.39816  0.73256  1.0000
  C   C87       1.0  0.17795  0.16902  0.98634  1.0000
  C   C88       1.0  0.01304  0.25220  0.96165  1.0000
  C   C89       1.0  0.27121  0.18854  0.85811  1.0000
  C   C90       1.0  0.05126  0.31352  0.84985  1.0000
  H   H148      1.0  0.08106  0.32396  0.50613  1.0000
  S   S29       1.0  0.08910  0.29850  0.97322  1.0000
  H   H149      1.0  0.13573  0.39498  0.74254  1.0000
  H   H150      1.0  0.01525  0.36990  0.55659  1.0000
  H   H151      1.0  0.06332  0.40763  0.56410  1.0000
  H   H152      1.0  0.12506  0.38240  0.78225  1.0000
  H   H153      1.0  0.15250  0.36477  0.85494  1.0000
  H   H154      1.0  0.24322  0.17697  0.89339  1.0000
  H   H155      1.0  0.29384  0.17395  0.79444  1.0000
  H   H156      1.0  0.13611  0.43021  0.80059  1.0000
  H   H157      1.0  0.23579  0.20181  0.86606  1.0000
  C   C91       1.0  0.26511  0.13877  0.85282  1.0000
  H   H158      1.0  0.15092  0.39087  0.87998  1.0000
  C   C92       1.0  0.01615  0.27043  0.85561  1.0000
  H   H159      1.0  0.11973  0.42918  0.75982  1.0000
  H   H160      1.0  0.08177  0.29618  0.79862  1.0000
  N   N8        1.0  0.05176  0.29048  0.83109  1.0000
  C   C93       1.0  0.08991  0.47432  0.66651  1.0000
  H   H161      1.0  0.24725  0.14000  0.86337  1.0000
  H   H162      1.0  0.04022  0.32654  0.83468  1.0000
  H   H163      1.0  0.01474  0.38021  0.51103  1.0000
  H   H164      1.0  0.30087  0.20067  0.90621  1.0000
  C   C94       1.0  0.17790  0.40126  0.76206  1.0000
  N   N9        1.0  0.00817  0.48063  0.67589  1.0000
  C   C95       1.0  0.06641  0.27321  0.85302  1.0000
  C   C96       1.0  0.28164  0.14856  0.88107  1.0000
  H   H165      1.0  0.03916  0.46054  0.69300  1.0000
  C   C97       1.0  0.12530  0.41917  0.78453  1.0000
  H   H166      1.0  0.08348  0.27998  0.85876  1.0000
  H   H167      1.0  0.02764  0.22418  0.99418  1.0000
  C   C98       1.0  0.09985  0.49533  0.67152  1.0000
  H   H168      1.0  0.07506  0.30470  0.54233  1.0000
  C   C99       1.0  0.05763  0.37240  0.54897  1.0000
  H   H169      1.0  0.05304  0.30323  0.90802  1.0000
  H   H170      1.0  0.26503  0.18278  0.83133  1.0000
  C   C100      1.0  0.01926  0.36468  0.52796  1.0000
  H   H171      1.0  0.07809  0.23706  0.85598  1.0000
  H   H172      1.0  0.18316  0.35843  0.79178  1.0000
  H   H173      1.0  0.19187  0.43345  0.74697  1.0000
  C   C101      1.0  0.13665  0.39560  0.77284  1.0000
  C   C102      1.0  0.24978  0.19302  0.88240  1.0000
  H   H174      1.0  0.08542  0.33172  0.55338  1.0000
  Fe  Fe15      1.0  0.26807  0.12052  0.98104  1.0000
  H   H175      1.0  0.25331  0.20457  0.90546  1.0000
  C   C103      1.0  0.14849  0.38357  0.85236  1.0000
  H   H176      1.0  0.28278  0.18234  0.93012  1.0000
  C   C104      1.0  0.30665  0.16283  0.80961  1.0000
  C   C105      1.0  0.02213  0.45817  0.68039  1.0000
  H   H177      1.0  0.02268  0.27378  0.88311  1.0000
  C   C106      1.0  0.16464  0.39481  0.82517  1.0000
  H   H178      1.0  0.29657  0.13589  0.88421  1.0000
  C   C107      1.0  0.07084  0.24941  0.83521  1.0000
  C   C108      1.0  0.31035  0.17096  0.84900  1.0000
  H   H179      1.0  0.16309  0.41344  0.83084  1.0000
  H   H180      1.0  0.05417  0.36843  0.57808  1.0000
  Fe  Fe16      1.0  0.12658  0.24202  0.97649  1.0000
  S   S30       1.0  0.31509  0.06946  0.97807  1.0000
  H   H181      1.0  0.18259  0.38942  0.83325  1.0000
  H   H182      1.0  0.07204  0.47410  0.65947  1.0000
  C   C109      1.0  0.29694  0.18234  0.90974  1.0000
  C   C110      1.0  0.16441  0.35440  0.74184  1.0000
  H   H183      1.0  0.04362  0.33115  0.56591  1.0000
  C   C111      1.0  0.16580  0.36386  0.78102  1.0000
  H   H184      1.0  0.15438  0.47445  0.69079  1.0000
  H   H185      1.0  0.17802  0.36048  0.72383  1.0000
  H   H186      1.0  0.19215  0.22330  0.96719  1.0000
  H   H187      1.0  0.02664  0.45056  0.65331  1.0000
  N   N10       1.0  0.16086  0.38949  0.78541  1.0000
  H   H188      1.0  0.16220  0.43654  0.75614  1.0000
  H   H189      1.0  0.15359  0.35411  0.79719  1.0000
  H   H190      1.0  0.18298  0.43315  0.79331  1.0000
  H   H191      1.0  0.26956  0.12008  0.84954  1.0000
  H   H192      1.0  0.16694  0.33535  0.74281  1.0000
  S   S31       1.0  0.03839  0.26722  0.95711  1.0000
  H   H193      1.0  0.02413  0.31114  0.89130  1.0000
  H   H194      1.0  0.08372  0.24999  0.81301  1.0000
  H   H195      1.0  0.07640  0.36892  0.54560  1.0000
  H   H196      1.0  0.03880  0.32075  0.52172  1.0000
  H   H197      1.0  0.01026  0.32062  0.61851  1.0000
  C   C112      1.0  0.01041  0.43908  0.70131  1.0000
  C   C113      1.0  0.10926  0.38701  0.50327  1.0000
  H   H198      1.0  0.31604  0.15133  0.93113  1.0000
  C   C114      1.0  0.12317  0.49538  0.68029  1.0000
  C   C115      1.0  0.02028  0.49153  0.74118  1.0000
  H   H199      1.0  0.01389  0.49176  0.59862  1.0000
  C   C116      1.0  0.02910  0.49178  0.61667  1.0000
  H   H200      1.0  0.31781  0.18805  0.84728  1.0000
  C   C117      1.0  0.00178  0.34684  0.51887  1.0000
  H   H201      1.0  0.00256  0.33253  0.53899  1.0000
  H   H202      1.0  0.32414  0.15883  0.86011  1.0000
  C   C118      1.0  0.31787  0.17001  0.92869  1.0000
  H   H203      1.0  0.31938  0.17679  0.95685  1.0000
  H   H204      1.0  0.16320  0.15935  0.99234  1.0000
  H   H205      1.0  0.99755  0.27575  0.85598  1.0000
  C   C119      1.0  0.00110  0.49080  0.71233  1.0000
  C   C120      1.0  0.02257  0.49747  0.65659  1.0000
  H   H206      1.0  0.18988  0.93053  0.04029  1.0000
  S   S32       1.0  0.28045  0.86973  0.02240  1.0000
  H   H207      1.0  0.12506  0.50889  0.30517  1.0000
  S   S33       1.0  0.12882  0.71316  0.03177  1.0000
  S   S34       1.0  0.13382  0.64554  0.05697  1.0000
  H   H208      1.0  0.17485  0.88931  0.01182  1.0000
  Fe  Fe17      1.0  0.11775  0.61117  0.26567  1.0000
  S   S35       1.0  0.11753  0.57618  0.24108  1.0000
  S   S36       1.0  0.12674  0.64209  0.23110  1.0000
  Fe  Fe18      1.0  0.10235  0.59361  0.34199  1.0000
  S   S37       1.0  0.10053  0.55736  0.32158  1.0000
  S   S38       1.0  0.08731  0.60216  0.39856  1.0000
  Fe  Fe19      1.0  0.13360  0.56337  0.29346  1.0000
  S   S39       1.0  0.16371  0.53743  0.29026  1.0000
  Fe  Fe20      1.0  0.08463  0.57349  0.27129  1.0000
  S   S40       1.0  0.05492  0.56097  0.24022  1.0000
  S   S41       1.0  0.13685  0.59878  0.31664  1.0000
  S   S42       1.0  0.08350  0.60932  0.29305  1.0000
  C   C121      1.0  0.03294  0.55422  0.26986  1.0000
  H   H209      1.0  0.01969  0.57101  0.44044  1.0000
  C   C122      1.0  0.03801  0.54388  0.30366  1.0000
  H   H210      1.0  0.16631  0.94123  0.01228  1.0000
  H   H211      1.0  0.05559  0.53952  0.31133  1.0000
  C   C123      1.0  0.09984  0.59920  0.44295  1.0000
  C   C124      1.0  0.12351  0.59559  0.44821  1.0000
  H   H212      1.0  0.30215  0.91423  0.12588  1.0000
  C   C125      1.0  0.21786  0.56259  0.22037  1.0000
  C   C126      1.0  0.08554  0.60133  0.47391  1.0000
  H   H213      1.0  0.13477  0.59404  0.42479  1.0000
  H   H214      1.0  0.06724  0.60422  0.47029  1.0000
  C   C127      1.0  0.12983  0.64590  0.10514  1.0000
  C   C128      1.0  0.13423  0.66499  0.12649  1.0000
  C   C129      1.0  0.13261  0.66378  0.16494  1.0000
  C   C130      1.0  0.12617  0.64366  0.18248  1.0000
  C   C131      1.0  0.12091  0.62491  0.16101  1.0000
  C   C132      1.0  0.12308  0.62591  0.12267  1.0000
  H   H215      1.0  0.13954  0.68046  0.11346  1.0000
  H   H216      1.0  0.13674  0.67841  0.18121  1.0000
  H   H217      1.0  0.11551  0.60948  0.17395  1.0000
  H   H218      1.0  0.11953  0.61109  0.10643  1.0000
  C   C133      1.0  0.02025  0.53924  0.32771  1.0000
  H   H219      1.0  0.17784  0.57795  0.24992  1.0000
  H   H220      1.0  0.16047  0.60237  0.23800  1.0000
  H   H221      1.0  0.03036  0.60521  0.28365  1.0000
  H   H222      1.0  0.07020  0.51548  0.25651  1.0000
  C   C134      1.0  0.10830  0.51946  0.21079  1.0000
  C   C135      1.0  0.18649  0.61825  0.18404  1.0000
  C   C136      1.0  0.99753  0.54573  0.31846  1.0000
  H   H223      1.0  0.22396  0.91828  0.02134  1.0000
  H   H224      1.0  0.05428  0.63990  0.03755  1.0000
  H   H225      1.0  0.18826  0.62833  0.25839  1.0000
  C   C137      1.0  0.01530  0.63929  0.37706  1.0000
  H   H226      1.0  0.02418  0.53138  0.35396  1.0000
  C   C138      1.0  0.19088  0.62126  0.14279  1.0000
  H   H227      1.0  0.08463  0.64026  0.03702  1.0000
  H   H228      1.0  0.22811  0.56827  0.24385  1.0000
  C   C139      1.0  0.17042  0.58102  0.17556  1.0000
  H   H229      1.0  0.32950  0.94071  0.14015  1.0000
  H   H230      1.0  0.23369  0.88255  0.05517  1.0000
  H   H231      1.0  0.19353  0.63963  0.13707  1.0000
  Fe  Fe21      1.0  0.31755  0.86099  0.00980  1.0000
  H   H232      1.0  0.21109  0.60580  0.26083  1.0000
  C   C140      1.0  0.01716  0.73077  0.01088  1.0000
  N   N11       1.0  0.18696  0.59384  0.19822  1.0000
  H   H233      1.0  0.17539  0.58086  0.14626  1.0000
  H   H234      1.0  0.31260  0.91965  0.04324  1.0000
  H   H235      1.0  0.01483  0.61063  0.43378  1.0000
  H   H236      1.0  0.18739  0.60614  0.29180  1.0000
  H   H237      1.0  0.19947  0.62817  0.19824  1.0000
  H   H238      1.0  0.15302  0.58985  0.17685  1.0000
  H   H239      1.0  0.15413  0.54902  0.16811  1.0000
  H   H240      1.0  0.02331  0.58503  0.34010  1.0000
  N   N12       1.0  0.04876  0.67772  0.08980  1.0000
  C   C141      1.0  0.02681  0.67472  0.06897  1.0000
  C   C142      1.0  0.06835  0.66964  0.06521  1.0000
  C   C143      1.0  0.05003  0.70298  0.09818  1.0000
  C   C144      1.0  0.04786  0.66375  0.12442  1.0000
  C   C145      1.0  0.02249  0.60253  0.40887  1.0000
  C   C146      1.0  0.06924  0.64409  0.05430  1.0000
  C   C147      1.0  0.07398  0.71181  0.10525  1.0000
  C   C148      1.0  0.06936  0.66246  0.14883  1.0000
  H   H241      1.0  0.16251  0.92022  0.04789  1.0000
  H   H242      1.0  0.02380  0.65623  0.06528  1.0000
  H   H243      1.0  0.08533  0.67246  0.07728  1.0000
  H   H244      1.0  0.06783  0.68004  0.03960  1.0000
  H   H245      1.0  0.04298  0.71364  0.07500  1.0000
  H   H246      1.0  0.03914  0.70796  0.12217  1.0000
  H   H247      1.0  0.03370  0.67071  0.14225  1.0000
  H   H248      1.0  0.04320  0.64588  0.11885  1.0000
  H   H249      1.0  0.21639  0.86619  0.02626  1.0000
  H   H250      1.0  0.29025  0.89854  0.08954  1.0000
  C   C149      1.0  0.06075  0.50263  0.19090  1.0000
  C   C150      1.0  0.21810  0.88357  0.03775  1.0000
  N   N13       1.0  0.01293  0.61373  0.37456  1.0000
  H   H251      1.0  0.04488  0.60416  0.34665  1.0000
  H   H252      1.0  0.08429  0.71172  0.07978  1.0000
  H   H253      1.0  0.08372  0.70221  0.12682  1.0000
  H   H254      1.0  0.07193  0.73003  0.11406  1.0000
  H   H255      1.0  0.06889  0.67687  0.16863  1.0000
  H   H256      1.0  0.08549  0.66214  0.13331  1.0000
  H   H257      1.0  0.07031  0.64601  0.16433  1.0000
  C   C151      1.0  0.13274  0.59461  0.48390  1.0000
  H   H258      1.0  0.16275  0.55306  0.21398  1.0000
  H   H259      1.0  0.18377  0.54492  0.17891  1.0000
  H   H260      1.0  0.22938  0.55003  0.20531  1.0000
  H   H261      1.0  0.20356  0.55291  0.23073  1.0000
  Fe  Fe22      1.0  0.13209  0.67582  0.01667  1.0000
  H   H262      1.0  0.20635  0.61102  0.13334  1.0000
  H   H263      1.0  0.02797  0.68188  0.04096  1.0000
  H   H264      1.0  0.10766  0.52408  0.24012  1.0000
  H   H265      1.0  0.22368  0.59625  0.20050  1.0000
  C   C152      1.0  0.16793  0.55561  0.18530  1.0000
  C   C153      1.0  0.31873  0.91805  0.07191  1.0000
  H   H266      1.0  0.16975  0.62755  0.19011  1.0000
  H   H267      1.0  0.17572  0.61709  0.12634  1.0000
  C   C154      1.0  0.32911  0.98224  0.08552  1.0000
  H   H268      1.0  0.04090  0.60554  0.41180  1.0000
  H   H269      1.0  0.00608  0.64852  0.35422  1.0000
  C   C155      1.0  0.17855  0.59508  0.23716  1.0000
  H   H270      1.0  0.09766  0.53237  0.19492  1.0000
  H   H271      1.0  0.32896  0.90143  0.07309  1.0000
  C   C156      1.0  0.29765  0.91503  0.09649  1.0000
  H   H272      1.0  0.04987  0.64186  0.35270  1.0000
  S   S43       1.0  0.06429  0.73221  0.00814  1.0000
  H   H273      1.0  0.26773  0.97981  0.04360  1.0000
  H   H274      1.0  0.28386  0.92863  0.09148  1.0000
  C   C157      1.0  0.32962  0.86335  0.12050  1.0000
  H   H275      1.0  0.20344  0.88824  0.05602  1.0000
  C   C158      1.0  0.15873  0.50851  0.28116  1.0000
  C   C159      1.0  0.19237  0.60971  0.26316  1.0000
  C   C160      1.0  0.04004  0.64718  0.37746  1.0000
  C   C161      1.0  0.17422  0.92567  0.02607  1.0000
  C   C162      1.0  0.26951  0.98197  0.01442  1.0000
  C   C163      1.0  0.02122  0.57619  0.41139  1.0000
  H   H276      1.0  0.02353  0.63266  0.30342  1.0000
  H   H277      1.0  0.03935  0.66625  0.37811  1.0000
  S   S44       1.0  0.27057  0.93484  0.01180  1.0000
  H   H278      1.0  0.12635  0.52084  0.20200  1.0000
  H   H279      1.0  0.00611  0.56982  0.39741  1.0000
  H   H280      1.0  0.31286  0.86074  0.10928  1.0000
  H   H281      1.0  0.31713  0.86866  0.17554  1.0000
  C   C164      1.0  0.02607  0.60358  0.34250  1.0000
  C   C165      1.0  0.01015  0.55975  0.26000  1.0000
  H   H282      1.0  0.03691  0.56732  0.39957  1.0000
  C   C166      1.0  0.21108  0.58315  0.19479  1.0000
  H   H283      1.0  0.07106  0.63261  0.07845  1.0000
  H   H284      1.0  0.21449  0.57749  0.16617  1.0000
  H   H285      1.0  0.04965  0.64114  0.40214  1.0000
  H   H286      1.0  0.06219  0.52139  0.19450  1.0000
  H   H287      1.0  0.00621  0.56786  0.23392  1.0000
  C   C167      1.0  0.22090  0.90175  0.00766  1.0000
  H   H288      1.0  0.00695  0.64632  0.40229  1.0000
  C   C168      1.0  0.31798  0.95946  0.07842  1.0000
  H   H289      1.0  0.19195  0.50239  0.25646  1.0000
  H   H290      1.0  0.01763  0.74591  0.02778  1.0000
  H   H291      1.0  0.31003  0.96076  0.05072  1.0000
  C   C169      1.0  0.00457  0.68581  0.08587  1.0000
  C   C170      1.0  0.01979  0.61430  0.30499  1.0000
  H   H292      1.0  0.00474  0.70479  0.08741  1.0000
  H   H293      1.0  0.30347  0.95935  0.09801  1.0000
  C   C171      1.0  0.03509  0.49893  0.19634  1.0000
  H   H294      1.0  0.02587  0.50278  0.17029  1.0000
  C   C172      1.0  0.13836  0.49861  0.29120  1.0000
  H   H295      1.0  0.06501  0.50007  0.16152  1.0000
  H   H296      1.0  0.00161  0.61219  0.29778  1.0000
  H   H297      1.0  0.00089  0.67859  0.11309  1.0000
  H   H298      1.0  0.15111  0.59225  0.48753  1.0000
  H   H299      1.0  0.31651  0.99665  0.07838  1.0000
  H   H300      1.0  0.02762  0.51066  0.21769  1.0000
  H   H301      1.0  0.00287  0.64776  0.89425  1.0000
  S   S45       1.0  0.27340  0.88271  0.93563  1.0000
  C   C173      1.0  0.03019  0.62582  0.57463  1.0000
  S   S46       1.0  0.23757  0.83289  0.96775  1.0000
  H   H302      1.0  0.03797  0.62597  0.54698  1.0000
  C   C174      1.0  0.27248  0.98792  0.93910  1.0000
  C   C175      1.0  0.99990  0.61133  0.70528  1.0000
  H   H303      1.0  0.16849  0.88417  0.93149  1.0000
  H   H304      1.0  0.31531  0.96809  0.74549  1.0000
  H   H305      1.0  0.14646  0.74582  0.82906  1.0000
  H   H306      1.0  0.22581  0.91405  0.91258  1.0000
  H   H307      1.0  0.20040  0.70565  0.91724  1.0000
  C   C176      1.0  0.03777  0.72069  0.99653  1.0000
  C   C177      1.0  0.22357  0.80630  0.97215  1.0000
  H   H308      1.0  0.15803  0.71445  0.78449  1.0000
  Fe  Fe23      1.0  0.12539  0.68631  0.93381  1.0000
  S   S47       1.0  0.11733  0.67646  0.87459  1.0000
  S   S48       1.0  0.12120  0.72448  0.94462  1.0000
  Fe  Fe24      1.0  0.07429  0.60481  0.66660  1.0000
  S   S49       1.0  0.10734  0.62122  0.65590  1.0000
  S   S50       1.0  0.04045  0.62397  0.67622  1.0000
  Fe  Fe25      1.0  0.09574  0.55641  0.66630  1.0000
  S   S51       1.0  0.13094  0.56866  0.65695  1.0000
  S   S52       1.0  0.08217  0.52086  0.66717  1.0000
  Fe  Fe26      1.0  0.12145  0.59637  0.69877  1.0000
  S   S53       1.0  0.14552  0.60642  0.74487  1.0000
  Fe  Fe27      1.0  0.11385  0.59261  0.61486  1.0000
  S   S54       1.0  0.13126  0.59658  0.55919  1.0000
  S   S55       1.0  0.08789  0.58169  0.71148  1.0000
  S   S56       1.0  0.07934  0.57871  0.62212  1.0000
  H   H309      1.0  0.22686  0.73545  0.81993  1.0000
  C   C178      1.0  0.02169  0.60399  0.69245  1.0000
  C   C179      1.0  0.02789  0.58046  0.69024  1.0000
  H   H310      1.0  0.05248  0.69328  0.96314  1.0000
  H   H311      1.0  0.04455  0.57455  0.68018  1.0000
  H   H312      1.0  0.13095  0.51151  0.68433  1.0000
  H   H313      1.0  0.15609  0.62308  0.67454  1.0000
  H   H314      1.0  0.16467  0.90838  0.97783  1.0000
  C   C180      1.0  0.12504  0.65552  0.84047  1.0000
  C   C181      1.0  0.11065  0.65394  0.80984  1.0000
  C   C182      1.0  0.11640  0.63866  0.78096  1.0000
  C   C183      1.0  0.13695  0.62498  0.78185  1.0000
  C   C184      1.0  0.15151  0.62669  0.81232  1.0000
  C   C185      1.0  0.14553  0.64170  0.84160  1.0000
  H   H315      1.0  0.09484  0.66461  0.80845  1.0000
  H   H316      1.0  0.10500  0.63766  0.75781  1.0000
  H   H317      1.0  0.16744  0.61622  0.81339  1.0000
  H   H318      1.0  0.15688  0.64276  0.86478  1.0000
  H   H319      1.0  0.32557  0.90445  0.76547  1.0000
  C   C186      1.0  0.17802  0.60137  0.61634  1.0000
  H   H320      1.0  0.19307  0.61831  0.72782  1.0000
  C   C187      1.0  0.20323  0.88375  0.95554  1.0000
  H   H321      1.0  0.00098  0.53911  0.59548  1.0000
  H   H322      1.0  0.13575  0.72557  0.86006  1.0000
  H   H323      1.0  0.04438  0.62933  0.59365  1.0000
  H   H324      1.0  0.99895  0.63658  0.63047  1.0000
  H   H325      1.0  0.08355  0.60181  0.53307  1.0000
  H   H326      1.0  0.17515  0.65920  0.62264  1.0000
  H   H327      1.0  0.32541  0.88329  0.71578  1.0000
  H   H328      1.0  0.30719  0.92322  0.81739  1.0000
  H   H329      1.0  0.02683  0.59769  0.61238  1.0000
  H   H330      1.0  0.19467  0.67676  0.90774  1.0000
  H   H331      1.0  0.18510  0.74066  0.80808  1.0000
  H   H332      1.0  0.17367  0.68771  0.85179  1.0000
  H   H333      1.0  0.27551  0.95078  0.93634  1.0000
  H   H334      1.0  0.01330  0.50074  0.76567  1.0000
  C   C188      1.0  0.19941  0.80668  0.96983  1.0000
  H   H335      1.0  0.19516  0.71164  0.81419  1.0000
  H   H336      1.0  0.12817  0.71709  0.79538  1.0000
  C   C189      1.0  0.19952  0.76497  0.97839  1.0000
  H   H337      1.0  0.22585  0.94414  0.92157  1.0000
  S   S57       1.0  0.30971  0.83964  0.95992  1.0000
  H   H338      1.0  0.01708  0.54622  0.69741  1.0000
  H   H339      1.0  0.14900  0.77103  0.87697  1.0000
  H   H340      1.0  0.14894  0.66090  0.64764  1.0000
  Fe  Fe28      1.0  0.31109  0.87271  0.92749  1.0000
  H   H341      1.0  0.22120  0.61109  0.70832  1.0000
  C   C190      1.0  0.27376  0.96557  0.95409  1.0000
  C   C191      1.0  0.03687  0.70120  0.97457  1.0000
  H   H342      1.0  0.23276  0.59236  0.64212  1.0000
  C   C192      1.0  0.32343  0.96999  0.68855  1.0000
  C   C193      1.0  0.18750  0.78631  0.97311  1.0000
  C   C194      1.0  0.20978  0.62429  0.63792  1.0000
  C   C195      1.0  0.31510  0.95642  0.72176  1.0000
  N   N14       1.0  0.32805  0.93367  0.72908  1.0000
  C   C196      1.0  0.27182  0.96250  0.99182  1.0000
  H   H343      1.0  0.17939  0.61203  0.59123  1.0000
  H   H344      1.0  0.21175  0.69120  0.87620  1.0000
  H   H345      1.0  0.22091  0.88051  0.94460  1.0000
  C   C197      1.0  0.23557  0.78498  0.97755  1.0000
  H   H346      1.0  0.01098  0.67295  0.87014  1.0000
  H   H347      1.0  0.17838  0.64120  0.68503  1.0000
  C   C198      1.0  0.20408  0.60478  0.71407  1.0000
  H   H348      1.0  0.22206  0.72611  0.86549  1.0000
  H   H349      1.0  0.01539  0.67649  0.95092  1.0000
  H   H350      1.0  0.17544  0.77199  0.85142  1.0000
  C   C199      1.0  0.20406  0.92638  0.95895  1.0000
  H   H351      1.0  0.14537  0.69406  0.81442  1.0000
  C   C200      1.0  0.21436  0.73645  0.84279  1.0000
  C   C201      1.0  0.11848  0.59681  0.51486  1.0000
  H   H352      1.0  0.01730  0.64036  0.57757  1.0000
  C   C202      1.0  0.01220  0.56432  0.69967  1.0000
  H   H353      1.0  0.16014  0.69839  0.89212  1.0000
  C   C203      1.0  0.19684  0.69373  0.89474  1.0000
  C   C204      1.0  0.22366  0.76458  0.98047  1.0000
  H   H354      1.0  0.32674  0.84004  0.83731  1.0000
  H   H355      1.0  0.18880  0.93044  0.94134  1.0000
  H   H356      1.0  0.21263  0.75469  0.85140  1.0000
  H   H357      1.0  0.15933  0.60006  0.62076  1.0000
  Fe  Fe29      1.0  0.15153  0.71940  0.98283  1.0000
  Fe  Fe30      1.0  0.09903  0.71498  0.99205  1.0000
  H   H358      1.0  0.03492  0.50108  0.73140  1.0000
  H   H359      1.0  0.20655  0.59049  0.73410  1.0000
  C   C205      1.0  0.01572  0.69175  0.96751  1.0000
  H   H360      1.0  0.24664  0.61747  0.63238  1.0000
  H   H361      1.0  0.16166  0.73763  0.91048  1.0000
  H   H362      1.0  0.19071  0.74119  0.90194  1.0000
  H   H363      1.0  0.19032  0.86851  0.90636  1.0000
  N   N15       1.0  0.18848  0.61274  0.64882  1.0000
  H   H364      1.0  0.20600  0.57508  0.60299  1.0000
  C   C206      1.0  0.18723  0.57676  0.60661  1.0000
  C   C207      1.0  0.09474  0.59996  0.50962  1.0000
  S   S58       1.0  0.18552  0.73833  0.98191  1.0000
  C   C208      1.0  0.16164  0.64878  0.63402  1.0000
  H   H365      1.0  0.19988  0.86796  0.97125  1.0000
  S   S59       1.0  0.15658  0.68132  0.96994  1.0000
  H   H366      1.0  0.17636  0.58834  0.68778  1.0000
  H   H367      1.0  0.15231  0.64065  0.61156  1.0000
  C   C209      1.0  0.31666  0.93365  0.79768  1.0000
  H   H368      1.0  0.29875  0.91850  0.75333  1.0000
  H   H369      1.0  0.30730  0.91846  0.68740  1.0000
  C   C210      1.0  0.19277  0.59561  0.67943  1.0000
  C   C211      1.0  0.17117  0.63107  0.66258  1.0000
  C   C212      1.0  0.02174  0.60185  0.58372  1.0000
  H   H370      1.0  0.01574  0.60201  0.50849  1.0000
  H   H371      1.0  0.03230  0.58955  0.56646  1.0000
  H   H372      1.0  0.21525  0.63615  0.65957  1.0000
  H   H373      1.0  0.17939  0.57182  0.58033  1.0000
  C   C213      1.0  0.31686  0.92165  0.76030  1.0000
  H   H374      1.0  0.18191  0.56415  0.62723  1.0000
  C   C214      1.0  0.23077  0.60860  0.62654  1.0000
  H   H375      1.0  0.20378  0.58044  0.67083  1.0000
  H   H376      1.0  0.29655  0.95387  0.71730  1.0000
  H   H377      1.0  0.23025  0.60477  0.59685  1.0000
  H   H378      1.0  0.20614  0.63589  0.61417  1.0000
  N   N16       1.0  0.17295  0.72487  0.85764  1.0000
  C   C215      1.0  0.14963  0.72805  0.83974  1.0000
  C   C216      1.0  0.17370  0.74195  0.88841  1.0000
  C   C217      1.0  0.17483  0.70088  0.87344  1.0000
  C   C218      1.0  0.19128  0.72799  0.82929  1.0000
  C   C219      1.0  0.14547  0.71238  0.80673  1.0000
  C   C220      1.0  0.16787  0.76730  0.87793  1.0000
  H   H379      1.0  0.17460  0.77861  0.89921  1.0000
  H   H380      1.0  0.25407  0.78415  0.97942  1.0000
  C   C221      1.0  0.18663  0.88434  0.92274  1.0000
  C   C222      1.0  0.32567  0.91909  0.69536  1.0000
  H   H381      1.0  0.01404  0.51506  0.65673  1.0000
  Fe  Fe31      1.0  0.28385  0.90077  0.98653  1.0000
  Fe  Fe32      1.0  0.27219  0.85062  0.97081  1.0000
  H   H382      1.0  0.31811  0.96232  0.66242  1.0000
  H   H383      1.0  0.16899  0.78713  0.97154  1.0000
  H   H384      1.0  0.30772  0.95096  0.79717  1.0000
  H   H385      1.0  0.18889  0.89909  0.90426  1.0000
  C   C223      1.0  0.00033  0.55719  0.60494  1.0000
  C   C224      1.0  0.22558  0.92697  0.93473  1.0000
  H   H386      1.0  0.18977  0.82291  0.96568  1.0000
  H   H387      1.0  0.27313  0.99017  0.90980  1.0000
  H   H388      1.0  0.24150  0.92456  0.95098  1.0000
  S   S60       1.0  0.10148  0.67753  0.97917  1.0000
  H   H389      1.0  0.31547  0.98780  0.68922  1.0000
  H   H390      1.0  0.01749  0.56028  0.61615  1.0000
  N   N17       1.0  0.20168  0.90447  0.98014  1.0000
  S   S61       1.0  0.32120  0.89293  0.97667  1.0000
  H   H391      1.0  0.00413  0.56650  0.54901  1.0000
  H   H392      1.0  0.23330  0.74832  0.98461  1.0000
  H   H393      1.0  0.20460  0.94127  0.97787  1.0000
  H   H394      1.0  0.04001  0.50531  0.60628  1.0000
  H   H395      1.0  0.03894  0.49922  0.67145  1.0000
  H   H396      1.0  0.23743  0.89691  0.99382  1.0000
  C   C225      1.0  0.17857  0.90586  0.99847  1.0000
  Fe  Fe33      1.0  0.57265  0.06608  0.22303  1.0000
  S   S62       1.0  0.58618  0.10009  0.23656  1.0000
  S   S63       1.0  0.53714  0.06200  0.20049  1.0000
  Fe  Fe34      1.0  0.61692  0.04049  0.24645  1.0000
  S   S64       1.0  0.63404  0.07254  0.26164  1.0000
  H   H397      1.0  0.58712  0.09661  0.47692  1.0000
  Fe  Fe35      1.0  0.60006  0.08287  0.28802  1.0000
  S   S65       1.0  0.59237  0.10032  0.34287  1.0000
  Fe  Fe36      1.0  0.61874  0.08650  0.20874  1.0000
  S   S66       1.0  0.63577  0.10978  0.16786  1.0000
  S   S67       1.0  0.58402  0.04988  0.27592  1.0000
  S   S68       1.0  0.60410  0.05356  0.19200  1.0000
  Fe  Fe37      1.0  0.37906  0.05109  0.30468  1.0000
  S   S69       1.0  0.35755  0.08425  0.30801  1.0000
  C   C226      1.0  0.65099  0.09889  0.12879  1.0000
  Fe  Fe38      1.0  0.42367  0.07394  0.31009  1.0000
  S   S70       1.0  0.40571  0.10908  0.31220  1.0000
  S   S71       1.0  0.46127  0.06898  0.32312  1.0000
  Fe  Fe39      1.0  0.38223  0.09327  0.35244  1.0000
  S   S72       1.0  0.37355  0.11228  0.40543  1.0000
  Fe  Fe40      1.0  0.38303  0.09649  0.26749  1.0000
  H   H398      1.0  0.48177  0.14601  0.12472  1.0000
  S   S73       1.0  0.40128  0.05880  0.35223  1.0000
  S   S74       1.0  0.40332  0.06270  0.26202  1.0000
  C   C227      1.0  0.37840  0.09934  0.44898  1.0000
  C   C228      1.0  0.33736  0.09008  0.11519  1.0000
  H   H399      1.0  0.34415  0.14015  0.16078  1.0000
  C   C229      1.0  0.45672  0.12141  0.26310  1.0000
  C   C230      1.0  0.37556  0.11273  0.48076  1.0000
  C   C231      1.0  0.39799  0.00765  0.41514  1.0000
  C   C232      1.0  0.59959  0.15479  0.27498  1.0000
  H   H400      1.0  0.64505  0.05889  0.42936  1.0000
  C   C233      1.0  0.51573  0.06495  0.23397  1.0000
  C   C234      1.0  0.49306  0.06048  0.22532  1.0000
  C   C235      1.0  0.47598  0.06200  0.25240  1.0000
  C   C236      1.0  0.48169  0.06788  0.28810  1.0000
  C   C237      1.0  0.50430  0.07237  0.29661  1.0000
  C   C238      1.0  0.52126  0.07109  0.26956  1.0000
  H   H401      1.0  0.48881  0.05555  0.19781  1.0000
  H   H402      1.0  0.45859  0.05812  0.24599  1.0000
  H   H403      1.0  0.50876  0.07691  0.32424  1.0000
  H   H404      1.0  0.53863  0.07480  0.27638  1.0000
  H   H405      1.0  0.65754  0.06469  0.15003  1.0000
  C   C239      1.0  0.38451  0.07588  0.45256  1.0000
  H   H406      1.0  0.47194  0.16105  0.16457  1.0000
  C   C240      1.0  0.60143  0.08983  0.38654  1.0000
  C   C241      1.0  0.62124  0.07534  0.39097  1.0000
  H   H407      1.0  0.40752  0.10748  0.15869  1.0000
  S   S75       1.0  0.37173  0.11828  0.21793  1.0000
  C   C242      1.0  0.58925  0.09746  0.41784  1.0000
  H   H408      1.0  0.63083  0.06934  0.36723  1.0000
  H   H409      1.0  0.57397  0.10878  0.41477  1.0000
  H   H410      1.0  0.35513  0.03145  0.21706  1.0000
  C   C243      1.0  0.52694  0.01319  0.31961  1.0000
  H   H411      1.0  0.44828  0.10521  0.26758  1.0000
  H   H412      1.0  0.41481  0.07787  0.16732  1.0000
  H   H413      1.0  0.60471  0.01334  0.31177  1.0000
  H   H414      1.0  0.51914  0.01960  0.34561  1.0000
  H   H415      1.0  0.53585  0.02742  0.30677  1.0000
  H   H416      1.0  0.45087  0.16836  0.21923  1.0000
  H   H417      1.0  0.55949  0.00494  0.27048  1.0000
  H   H418      1.0  0.63394  0.12863  0.24042  1.0000
  H   H419      1.0  0.46452  0.14477  0.47166  1.0000
  H   H420      1.0  0.62765  0.11691  0.29857  1.0000
  H   H421      1.0  0.46706  0.10989  0.14763  1.0000
  H   H422      1.0  0.64783  0.13121  0.09995  1.0000
  H   H423      1.0  0.35321  0.05731  0.13148  1.0000
  H   H424      1.0  0.53961  0.99931  0.32786  1.0000
  H   H425      1.0  0.41769  0.13693  0.22445  1.0000
  N   N18       1.0  0.64330  0.14877  0.28690  1.0000
  C   C244      1.0  0.43454  0.16646  0.20470  1.0000
  H   H426      1.0  0.42720  0.09809  0.21968  1.0000
  H   H427      1.0  0.58394  0.01975  0.44766  1.0000
  C   C245      1.0  0.59391  0.01348  0.47198  1.0000
  C   C246      1.0  0.38720  0.06582  0.48741  1.0000
  C   C247      1.0  0.40860  0.00143  0.29395  1.0000
  H   H428      1.0  0.59492  0.14075  0.29347  1.0000
  H   H429      1.0  0.61922  0.17313  0.31365  1.0000
  S   S76       1.0  0.36360  0.01745  0.29586  1.0000
  H   H430      1.0  0.52330  0.01589  0.23094  1.0000
  H   H431      1.0  0.47528  0.13922  0.22333  1.0000
  H   H432      1.0  0.63504  0.02220  0.45161  1.0000
  H   H433      1.0  0.60014  0.14870  0.24632  1.0000
  H   H434      1.0  0.62433  0.17957  0.26689  1.0000
  C   C248      1.0  0.65489  0.11363  0.09920  1.0000
  H   H435      1.0  0.44489  0.13624  0.27073  1.0000
  C   C249      1.0  0.59670  0.09063  0.45314  1.0000
  C   C250      1.0  0.61688  0.07668  0.45759  1.0000
  H   H436      1.0  0.33975  0.06977  0.23102  1.0000
  H   H437      1.0  0.65832  0.16871  0.32929  1.0000
  C   C251      1.0  0.35921  0.10715  0.17793  1.0000
  C   C252      1.0  0.62916  0.06926  0.42629  1.0000
  H   H438      1.0  0.64558  0.15427  0.22806  1.0000
  C   C253      1.0  0.50785  0.00518  0.29455  1.0000
  C   C254      1.0  0.34621  0.12203  0.15443  1.0000
  H   H439      1.0  0.41577  0.14151  0.17753  1.0000
  C   C255      1.0  0.62214  0.01305  0.39912  1.0000
  C   C256      1.0  0.47735  0.14386  0.15399  1.0000
  H   H440      1.0  0.37232  0.07223  0.18634  1.0000
  C   C257      1.0  0.36198  0.08384  0.16904  1.0000
  H   H441      1.0  0.44524  0.13144  0.13624  1.0000
  H   H442      1.0  0.58540  0.16834  0.27662  1.0000
  H   H443      1.0  0.41245  0.01738  0.30681  1.0000
  H   H444      1.0  0.43187  0.09293  0.13620  1.0000
  H   H445      1.0  0.50034  0.02113  0.28148  1.0000
  S   S77       1.0  0.63523  0.00553  0.25022  1.0000
  C   C258      1.0  0.42217  0.09468  0.16216  1.0000
  H   H446      1.0  0.47146  0.12112  0.28231  1.0000
  C   C259      1.0  0.33653  0.03511  0.21166  1.0000
  C   C260      1.0  0.62220  0.16515  0.28627  1.0000
  H   H447      1.0  0.39148  0.04757  0.48980  1.0000
  C   C261      1.0  0.35117  0.07542  0.13786  1.0000
  H   H448      1.0  0.47898  0.10923  0.21928  1.0000
  H   H449      1.0  0.63583  0.02251  0.38589  1.0000
  H   H450      1.0  0.45161  0.08627  0.19562  1.0000
  H   H451      1.0  0.43491  0.17519  0.17773  1.0000
  H   H452      1.0  0.49337  0.13729  0.16789  1.0000
  H   H453      1.0  0.38663  0.06541  0.42845  1.0000
  H   H454      1.0  0.41459  0.00978  0.40118  1.0000
  H   H455      1.0  0.43383  0.15010  0.47270  1.0000
  H   H456      1.0  0.42135  0.17574  0.22195  1.0000
  N   N19       1.0  0.44769  0.12351  0.19409  1.0000
  C   C262      1.0  0.43771  0.10022  0.19473  1.0000
  C   C263      1.0  0.46565  0.12348  0.22375  1.0000
  C   C264      1.0  0.45858  0.12651  0.15708  1.0000
  C   C265      1.0  0.42827  0.14135  0.20043  1.0000
  C   C266      1.0  0.33522  0.11355  0.12331  1.0000
  C   C267      1.0  0.44892  0.14293  0.48844  1.0000
  H   H457      1.0  0.65639  0.19654  0.27753  1.0000
  H   H458      1.0  0.37069  0.13088  0.47830  1.0000
  H   H459      1.0  0.48842  0.00743  0.20535  1.0000
  C   C268      1.0  0.62970  0.00627  0.43827  1.0000
  C   C269      1.0  0.63853  0.12922  0.31236  1.0000
  H   H460      1.0  0.62841  0.13560  0.33653  1.0000
  H   H461      1.0  0.56330  0.00813  0.22262  1.0000
  C   C270      1.0  0.66025  0.07621  0.12746  1.0000
  C   C271      1.0  0.64754  0.14012  0.24855  1.0000
  H   H462      1.0  0.33477  0.03824  0.18202  1.0000
  H   H463      1.0  0.40104  0.00279  0.44394  1.0000
  H   H464      1.0  0.45300  0.10775  0.47309  1.0000
  H   H465      1.0  0.65310  0.09976  0.34255  1.0000
  H   H466      1.0  0.47102  0.01254  0.24598  1.0000
  H   H467      1.0  0.49358  0.99968  0.31201  1.0000
  H   H468      1.0  0.38865  0.02483  0.41523  1.0000
  C   C272      1.0  0.65935  0.11494  0.32817  1.0000
  H   H469      1.0  0.60631  0.02457  0.39877  1.0000
  C   C273      1.0  0.47856  0.99927  0.22714  1.0000
  H   H470      1.0  0.44566  0.07092  0.48125  1.0000
  H   H471      1.0  0.42704  0.11461  0.49523  1.0000
  H   H472      1.0  0.60177  0.02899  0.48271  1.0000
  C   C274      1.0  0.44572  0.11742  0.49698  1.0000
  C   C275      1.0  0.66272  0.16189  0.30157  1.0000
  H   H473      1.0  0.33106  0.05064  0.26386  1.0000
  C   C276      1.0  0.52926  0.99774  0.23666  1.0000
  H   H474      1.0  0.61977  0.99774  0.38202  1.0000
  Fe  Fe41      1.0  0.60955  0.07372  0.55648  1.0000
  S   S78       1.0  0.57139  0.07443  0.56357  1.0000
  C   C277      1.0  0.36137  0.04717  0.87283  1.0000
  Fe  Fe42      1.0  0.61858  0.07211  0.64115  1.0000
  S   S79       1.0  0.58096  0.07185  0.65397  1.0000
  C   C278      1.0  0.42423  0.05118  0.80639  1.0000
  Fe  Fe43      1.0  0.57902  0.04777  0.60657  1.0000
  S   S80       1.0  0.55906  0.01640  0.60559  1.0000
  Fe  Fe44      1.0  0.57645  0.09861  0.60995  1.0000
  S   S81       1.0  0.55416  0.13097  0.61898  1.0000
  S   S82       1.0  0.61688  0.04519  0.59724  1.0000
  S   S83       1.0  0.61432  0.10070  0.59950  1.0000
  Fe  Fe45      1.0  0.42473  0.10623  0.66727  1.0000
  S   S84       1.0  0.38838  0.11329  0.64711  1.0000
  S   S85       1.0  0.44917  0.13466  0.66492  1.0000
  Fe  Fe46      1.0  0.41721  0.05716  0.68642  1.0000
  S   S86       1.0  0.38072  0.06028  0.66776  1.0000
  S   S87       1.0  0.43222  0.02342  0.70828  1.0000
  Fe  Fe47      1.0  0.39397  0.07903  0.61910  1.0000
  S   S88       1.0  0.38710  0.06513  0.56220  1.0000
  Fe  Fe48      1.0  0.37847  0.09387  0.69774  1.0000
  N   N20       1.0  0.59110  0.14525  0.72133  1.0000
  S   S89       1.0  0.43083  0.07347  0.63634  1.0000
  S   S90       1.0  0.41438  0.08945  0.71972  1.0000
  C   C279      1.0  0.36396  0.11022  0.80035  1.0000
  H   H475      1.0  0.37964  0.11364  0.78619  1.0000
  H   H476      1.0  0.37733  0.11766  0.85369  1.0000
  C   C280      1.0  0.59821  0.13550  0.75810  1.0000
  H   H477      1.0  0.41953  0.13853  0.59335  1.0000
  C   C281      1.0  0.52513  0.13022  0.63205  1.0000
  C   C282      1.0  0.51384  0.10975  0.63561  1.0000
  C   C283      1.0  0.49043  0.11054  0.64581  1.0000
  C   C284      1.0  0.47847  0.13178  0.65260  1.0000
  C   C285      1.0  0.48997  0.15197  0.64912  1.0000
  C   C286      1.0  0.51305  0.15121  0.63889  1.0000
  H   H478      1.0  0.52310  0.09343  0.63040  1.0000
  H   H479      1.0  0.48170  0.09483  0.64857  1.0000
  H   H480      1.0  0.48089  0.16840  0.65422  1.0000
  H   H481      1.0  0.52156  0.16706  0.63613  1.0000
  H   H482      1.0  0.41350  0.11134  0.57518  1.0000
  H   H483      1.0  0.55528  0.02318  0.68324  1.0000
  H   H484      1.0  0.62254  0.09162  0.80692  1.0000
  H   H485      1.0  0.43338  0.03531  0.81697  1.0000
  C   C287      1.0  0.59403  0.18162  0.68153  1.0000
  S   S91       1.0  0.64858  0.06960  0.68211  1.0000
  C   C288      1.0  0.45399  0.06626  0.50771  1.0000
  C   C289      1.0  0.63340  0.08188  0.75232  1.0000
  H   H486      1.0  0.59522  0.13467  0.66475  1.0000
  H   H487      1.0  0.62234  0.01442  0.53128  1.0000
  H   H488      1.0  0.61619  0.08159  0.74164  1.0000
  H   H489      1.0  0.35375  0.06369  0.82138  1.0000
  H   H490      1.0  0.51845  0.99843  0.70794  1.0000
  H   H491      1.0  0.45621  0.13876  0.56566  1.0000
  H   H492      1.0  0.63403  0.14855  0.68023  1.0000
  H   H493      1.0  0.64685  0.01988  0.66408  1.0000
  H   H494      1.0  0.55725  0.11518  0.74950  1.0000
  H   H495      1.0  0.37570  0.11309  0.53993  1.0000
  H   H496      1.0  0.36962  0.03121  0.88467  1.0000
  H   H497      1.0  0.48885  0.09194  0.54949  1.0000
  C   C290      1.0  0.56548  0.14544  0.71626  1.0000
  H   H498      1.0  0.39324  0.03672  0.75434  1.0000
  H   H499      1.0  0.48222  0.02318  0.66955  1.0000
  H   H500      1.0  0.34122  0.04212  0.76081  1.0000
  H   H501      1.0  0.63786  0.12653  0.71496  1.0000
  H   H502      1.0  0.60108  0.19886  0.68249  1.0000
  H   H503      1.0  0.66297  0.02609  0.71749  1.0000
  H   H504      1.0  0.43465  0.06561  0.81449  1.0000
  H   H505      1.0  0.45390  0.07666  0.56410  1.0000
  H   H506      1.0  0.61690  0.13681  0.76269  1.0000
  C   C291      1.0  0.40028  0.05491  0.82364  1.0000
  H   H507      1.0  0.59275  0.13780  0.81660  1.0000
  H   H508      1.0  0.39876  0.01352  0.84713  1.0000
  H   H509      1.0  0.42390  0.05117  0.77620  1.0000
  C   C292      1.0  0.62892  0.13146  0.68918  1.0000
  H   H510      1.0  0.56058  0.15125  0.68826  1.0000
  C   C293      1.0  0.44757  0.08411  0.53763  1.0000
  H   H511      1.0  0.56736  0.14527  0.79116  1.0000
  H   H512      1.0  0.51742  0.00131  0.64477  1.0000
  H   H513      1.0  0.58863  0.18069  0.73912  1.0000
  C   C294      1.0  0.37819  0.04281  0.77082  1.0000
  H   H514      1.0  0.48845  0.99937  0.71633  1.0000
  C   C295      1.0  0.34502  0.10369  0.78048  1.0000
  H   H515      1.0  0.40594  0.02196  0.64144  1.0000
  C   C296      1.0  0.36259  0.11252  0.83862  1.0000
  C   C297      1.0  0.63707  0.08735  0.78940  1.0000
  H   H516      1.0  0.48748  0.09905  0.50225  1.0000
  S   S92       1.0  0.34200  0.11063  0.90584  1.0000
  C   C298      1.0  0.55472  0.12220  0.72155  1.0000
  H   H517      1.0  0.59557  0.11681  0.75949  1.0000
  H   H518      1.0  0.59003  0.16507  0.79453  1.0000
  C   C299      1.0  0.59816  0.16961  0.71884  1.0000
  H   H519      1.0  0.56395  0.02142  0.50586  1.0000
  H   H520      1.0  0.44961  0.15395  0.51282  1.0000
  N   N21       1.0  0.38229  0.03918  0.81120  1.0000
  H   H521      1.0  0.37581  0.06151  0.76440  1.0000
  H   H522      1.0  0.35884  0.03028  0.72486  1.0000
  C   C300      1.0  0.44861  0.12185  0.56503  1.0000
  C   C301      1.0  0.57626  0.00647  0.50065  1.0000
  C   C302      1.0  0.56406  0.00659  0.67825  1.0000
  H   H523      1.0  0.42863  0.08481  0.53938  1.0000
  H   H524      1.0  0.53592  0.12469  0.71699  1.0000
  H   H525      1.0  0.62049  0.99950  0.70527  1.0000
  C   C303      1.0  0.65204  0.07655  0.72924  1.0000
  H   H526      1.0  0.63546  0.11903  0.66818  1.0000
  H   H527      1.0  0.48345  0.02382  0.62106  1.0000
  C   C304      1.0  0.56840  0.99930  0.64239  1.0000
  H   H528      1.0  0.45500  0.11306  0.59042  1.0000
  C   C305      1.0  0.65937  0.08706  0.80423  1.0000
  H   H529      1.0  0.63838  0.02511  0.74445  1.0000
  C   C306      1.0  0.38897  0.01447  0.82100  1.0000
  S   S93       1.0  0.34608  0.10009  0.73239  1.0000
  H   H530      1.0  0.59942  0.11204  0.69660  1.0000
  C   C307      1.0  0.58616  0.14682  0.79157  1.0000
  H   H531      1.0  0.39433  0.07316  0.81861  1.0000
  H   H532      1.0  0.40325  0.05340  0.85356  1.0000
  C   C308      1.0  0.34243  0.10799  0.85756  1.0000
  H   H533      1.0  0.49422  0.13129  0.56722  1.0000
  H   H534      1.0  0.51365  0.12272  0.53189  1.0000
  H   H535      1.0  0.61658  0.17058  0.72612  1.0000
  H   H536      1.0  0.55640  0.15818  0.73461  1.0000
  C   C309      1.0  0.60262  0.13043  0.69213  1.0000
  C   C310      1.0  0.48189  0.10525  0.52977  1.0000
  C   C311      1.0  0.42257  0.12705  0.56944  1.0000
  H   H537      1.0  0.57549  0.18443  0.67526  1.0000
  H   H538      1.0  0.56122  0.10940  0.70117  1.0000
  N   N22       1.0  0.45601  0.10781  0.53203  1.0000
  H   H539      1.0  0.60271  0.17220  0.65867  1.0000
  S   S94       1.0  0.66295  0.09500  0.85096  1.0000
  H   H540      1.0  0.35561  0.01384  0.76584  1.0000
  C   C312      1.0  0.38410  0.07912  0.51918  1.0000
  H   H541      1.0  0.37018  0.06235  0.88249  1.0000
  H   H542      1.0  0.34363  0.04924  0.88387  1.0000
  H   H543      1.0  0.44741  0.04955  0.51599  1.0000
  H   H544      1.0  0.34647  0.03481  0.82397  1.0000
  C   C313      1.0  0.49518  0.12669  0.53786  1.0000
  H   H545      1.0  0.41476  0.13615  0.54546  1.0000
  C   C314      1.0  0.35722  0.03142  0.75504  1.0000
  C   C315      1.0  0.48144  0.01229  0.64489  1.0000
  C   C316      1.0  0.36025  0.04642  0.83073  1.0000
  H   H546      1.0  0.33412  0.17315  0.91440  1.0000
  H   H547      1.0  0.62979  0.00306  0.79869  1.0000
  H   H548      1.0  0.48947  0.14171  0.52105  1.0000
  H   H549      1.0  0.47278  0.06338  0.50414  1.0000
  C   C317      1.0  0.40535  0.00566  0.65533  1.0000
  H   H550      1.0  0.46421  0.00546  0.64261  1.0000
  H   H551      1.0  0.66239  0.03421  0.79102  1.0000
  H   H552      1.0  0.63066  0.99941  0.64126  1.0000
  H   H553      1.0  0.41893  0.00813  0.78402  1.0000
  C   C318      1.0  0.64454  0.00125  0.66160  1.0000
  C   C319      1.0  0.41773  0.00147  0.68760  1.0000
  C   C320      1.0  0.65562  0.01623  0.74019  1.0000
  S   S95       1.0  0.62765  0.06827  0.50141  1.0000
  H   H554      1.0  0.37352  0.00470  0.82628  1.0000
  C   C321      1.0  0.37850  0.10271  0.51573  1.0000
  H   H555      1.0  0.58428  0.00193  0.52737  1.0000
  H   H556      1.0  0.64908  0.00980  0.50690  1.0000
  C   C322      1.0  0.40317  0.00014  0.79261  1.0000
  C   C323      1.0  0.63491  0.00120  0.52030  1.0000
  Fe  Fe49      1.0  0.59082  0.90307  0.33249  1.0000
  S   S96       1.0  0.62714  0.89584  0.35114  1.0000
  S   S97       1.0  0.57518  0.93884  0.33904  1.0000
  Fe  Fe50      1.0  0.58395  0.85405  0.31322  1.0000
  S   S98       1.0  0.61968  0.84293  0.33091  1.0000
  S   S99       1.0  0.56426  0.82485  0.29219  1.0000
  Fe  Fe51      1.0  0.61288  0.86571  0.37973  1.0000
  S   S100      1.0  0.61995  0.85160  0.43700  1.0000
  Fe  Fe52      1.0  0.63042  0.87398  0.30021  1.0000
  C   C324      1.0  0.64556  0.87642  0.19346  1.0000
  S   S101      1.0  0.57626  0.87438  0.36404  1.0000
  S   S102      1.0  0.59491  0.88366  0.27956  1.0000
  Fe  Fe53      1.0  0.43368  0.85652  0.28457  1.0000
  S   S103      1.0  0.39755  0.85196  0.30308  1.0000
  S   S104      1.0  0.45656  0.82451  0.27753  1.0000
  Fe  Fe54      1.0  0.42623  0.90756  0.27933  1.0000
  S   S105      1.0  0.38960  0.90697  0.29713  1.0000
  S   S106      1.0  0.44266  0.94095  0.27067  1.0000
  Fe  Fe55      1.0  0.40300  0.88188  0.34010  1.0000
  S   S107      1.0  0.39019  0.88916  0.39814  1.0000
  Fe  Fe56      1.0  0.38773  0.87733  0.25814  1.0000
  S   S108      1.0  0.35615  0.87352  0.22187  1.0000
  S   S109      1.0  0.43982  0.88446  0.32452  1.0000
  S   S110      1.0  0.42365  0.87974  0.23747  1.0000
  C   C325      1.0  0.40184  0.87955  0.44088  1.0000
  C   C326      1.0  0.41958  0.86232  0.44359  1.0000
  H   H557      1.0  0.64587  0.99521  0.43620  1.0000
  H   H558      1.0  0.63348  0.95652  0.24927  1.0000
  H   H559      1.0  0.64733  0.92206  0.10265  1.0000
  H   H560      1.0  0.42669  0.85453  0.41903  1.0000
  C   C327      1.0  0.38671  0.77325  0.20898  1.0000
  C   C328      1.0  0.35384  0.87052  0.17358  1.0000
  H   H561      1.0  0.46390  0.99141  0.21376  1.0000
  C   C329      1.0  0.34891  0.86125  0.09783  1.0000
  C   C330      1.0  0.37059  0.86438  0.11316  1.0000
  C   C331      1.0  0.37302  0.86943  0.15060  1.0000
  H   H562      1.0  0.36381  0.95189  0.05898  1.0000
  H   H563      1.0  0.38564  0.86279  0.09593  1.0000
  H   H564      1.0  0.38984  0.87161  0.16193  1.0000
  H   H565      1.0  0.52081  0.81881  0.46802  1.0000
  C   C332      1.0  0.38119  0.97666  0.26796  1.0000
  C   C333      1.0  0.39891  0.95980  0.26161  1.0000
  C   C334      1.0  0.42132  0.96340  0.27270  1.0000
  H   H566      1.0  0.35037  0.97700  0.35030  1.0000
  H   H567      1.0  0.56610  0.99226  0.49107  1.0000
  H   H568      1.0  0.36377  0.97353  0.26041  1.0000
  H   H569      1.0  0.39519  0.94392  0.24844  1.0000
  C   C335      1.0  0.37606  0.79703  0.28356  1.0000
  H   H570      1.0  0.49184  0.81717  0.48455  1.0000
  C   C336      1.0  0.53438  0.82658  0.28552  1.0000
  C   C337      1.0  0.52084  0.84730  0.28718  1.0000
  C   C338      1.0  0.49681  0.84724  0.28290  1.0000
  C   C339      1.0  0.48647  0.82643  0.27755  1.0000
  C   C340      1.0  0.50018  0.80598  0.27513  1.0000
  C   C341      1.0  0.52396  0.80608  0.27895  1.0000
  H   H571      1.0  0.52886  0.86326  0.29182  1.0000
  H   H572      1.0  0.48629  0.86315  0.28440  1.0000
  H   H573      1.0  0.49233  0.78987  0.27109  1.0000
  H   H574      1.0  0.53432  0.79005  0.27753  1.0000
  C   C342      1.0  0.62116  0.86872  0.47679  1.0000
  H   H575      1.0  0.50906  0.96543  0.33506  1.0000
  H   H576      1.0  0.51634  0.88689  0.38697  1.0000
  H   H577      1.0  0.39285  0.74126  0.23928  1.0000
  H   H578      1.0  0.62315  0.75162  0.20409  1.0000
  H   H579      1.0  0.38947  0.95892  0.33748  1.0000
  C   C343      1.0  0.52676  0.96619  0.28176  1.0000
  H   H580      1.0  0.62915  0.88133  0.20575  1.0000
  C   C344      1.0  0.35530  0.80900  0.16834  1.0000
  C   C345      1.0  0.60842  0.94842  0.28972  1.0000
  C   C346      1.0  0.59285  0.95718  0.31595  1.0000
  C   C347      1.0  0.59139  0.98066  0.32372  1.0000
  H   H581      1.0  0.37157  0.90731  0.07466  1.0000
  H   H582      1.0  0.60992  0.93025  0.28399  1.0000
  H   H583      1.0  0.56359  0.97993  0.24176  1.0000
  C   C348      1.0  0.35490  0.95875  0.35730  1.0000
  C   C349      1.0  0.61986  0.98688  0.27703  1.0000
  C   C350      1.0  0.65247  0.81207  0.25425  1.0000
  C   C351      1.0  0.39321  0.96116  0.46645  1.0000
  H   H584      1.0  0.34478  0.95350  0.38112  1.0000
  C   C352      1.0  0.60673  0.82804  0.18140  1.0000
  N   N23       1.0  0.33326  0.93767  0.08141  1.0000
  C   C353      1.0  0.62375  0.98436  0.49431  1.0000
  C   C354      1.0  0.65818  0.92657  0.07919  1.0000
  H   H585      1.0  0.66017  0.80282  0.12286  1.0000
  H   H586      1.0  0.42186  0.92823  0.36682  1.0000
  C   C355      1.0  0.64759  0.87455  0.15516  1.0000
  C   C356      1.0  0.34241  0.93407  0.11978  1.0000
  H   H587      1.0  0.46957  0.86507  0.39093  1.0000
  C   C357      1.0  0.41697  0.96270  0.39142  1.0000
  H   H588      1.0  0.49691  0.96599  0.22831  1.0000
  H   H589      1.0  0.52503  0.93950  0.32297  1.0000
  C   C358      1.0  0.38032  0.81129  0.18065  1.0000
  H   H590      1.0  0.36844  0.94272  0.15897  1.0000
  N   N24       1.0  0.62418  0.81132  0.19919  1.0000
  H   H591      1.0  0.59867  0.78916  0.21911  1.0000
  H   H592      1.0  0.37865  0.90239  0.47152  1.0000
  H   H593      1.0  0.61549  0.81533  0.25668  1.0000
  H   H594      1.0  0.45840  0.80422  0.36781  1.0000
  H   H595      1.0  0.44704  0.80267  0.20584  1.0000
  H   H596      1.0  0.49357  0.82271  0.34893  1.0000
  H   H597      1.0  0.42607  0.97170  0.41308  1.0000
  H   H598      1.0  0.35357  0.80283  0.23869  1.0000
  H   H599      1.0  0.42936  0.78324  0.18303  1.0000
  H   H600      1.0  0.38282  0.82992  0.18354  1.0000
  H   H601      1.0  0.65295  0.81813  0.28293  1.0000
  H   H602      1.0  0.48835  0.90053  0.38269  1.0000
  H   H603      1.0  0.53095  0.95343  0.25975  1.0000
  C   C359      1.0  0.38094  0.95401  0.36320  1.0000
  C   C360      1.0  0.39254  0.88927  0.47317  1.0000
  H   H604      1.0  0.52758  0.98852  0.21026  1.0000
  N   N25       1.0  0.51461  0.98754  0.26586  1.0000
  C   C361      1.0  0.62184  0.96328  0.27015  1.0000
  H   H605      1.0  0.61449  0.84448  0.17492  1.0000
  H   H606      1.0  0.45756  0.81915  0.41040  1.0000
  H   H607      1.0  0.48106  0.97346  0.26835  1.0000
  C   C362      1.0  0.35196  0.93826  0.05309  1.0000
  H   H608      1.0  0.41151  0.96469  0.46500  1.0000
  H   H609      1.0  0.62867  0.83907  0.23739  1.0000
  H   H610      1.0  0.49685  0.88840  0.42567  1.0000
  H   H611      1.0  0.63258  0.87796  0.13820  1.0000
  C   C363      1.0  0.46328  0.82014  0.38161  1.0000
  H   H612      1.0  0.42232  0.97091  0.36551  1.0000
  C   C364      1.0  0.40198  0.75705  0.23375  1.0000
  C   C365      1.0  0.38275  0.95439  0.42966  1.0000
  H   H613      1.0  0.40637  0.76408  0.26062  1.0000
  H   H614      1.0  0.44355  0.98737  0.29654  1.0000
  H   H615      1.0  0.47619  0.84462  0.44487  1.0000
  H   H616      1.0  0.60932  0.94976  0.40041  1.0000
  H   H617      1.0  0.34306  0.81938  0.18576  1.0000
  C   C366      1.0  0.58477  0.83435  0.20356  1.0000
  C   C367      1.0  0.50257  0.81851  0.45965  1.0000
  C   C368      1.0  0.49294  0.98030  0.24791  1.0000
  C   C369      1.0  0.61632  0.89251  0.47579  1.0000
  C   C370      1.0  0.48945  0.82167  0.37839  1.0000
  H   H618      1.0  0.37099  0.82606  0.24725  1.0000
  H   H619      1.0  0.57481  0.81926  0.20958  1.0000
  H   H620      1.0  0.38298  0.91921  0.03378  1.0000
  H   H621      1.0  0.45373  0.83455  0.36727  1.0000
  H   H622      1.0  0.39115  0.80541  0.15707  1.0000
  H   H623      1.0  0.39349  0.79989  0.29374  1.0000
  H   H624      1.0  0.63388  0.96249  0.41662  1.0000
  C   C371      1.0  0.33211  0.86784  0.15812  1.0000
  H   H625      1.0  0.53870  0.87021  0.47724  1.0000
  H   H626      1.0  0.58854  0.84330  0.22930  1.0000
  N   N26       1.0  0.49944  0.84127  0.39838  1.0000
  H   H627      1.0  0.49998  0.80254  0.44453  1.0000
  C   C372      1.0  0.52490  0.84144  0.39091  1.0000
  H   H628      1.0  0.60084  0.82134  0.15481  1.0000
  C   C373      1.0  0.53868  0.81801  0.38893  1.0000
  H   H629      1.0  0.63273  0.81760  0.12029  1.0000
  H   H630      1.0  0.49735  0.80473  0.38683  1.0000
  C   C374      1.0  0.51369  0.95388  0.31189  1.0000
  H   H631      1.0  0.52802  0.84975  0.36405  1.0000
  H   H632      1.0  0.53347  0.85197  0.41155  1.0000
  H   H633      1.0  0.49825  0.94604  0.30121  1.0000
  C   C375      1.0  0.49827  0.88583  0.39578  1.0000
  H   H634      1.0  0.53434  0.80850  0.36388  1.0000
  H   H635      1.0  0.53644  0.80710  0.41317  1.0000
  H   H636      1.0  0.55724  0.82101  0.38685  1.0000
  H   H637      1.0  0.42761  0.81357  0.17161  1.0000
  C   C376      1.0  0.49468  0.84061  0.43880  1.0000
  H   H638      1.0  0.34446  0.94280  0.02578  1.0000
  H   H639      1.0  0.57988  0.98739  0.34473  1.0000
  H   H640      1.0  0.34440  0.98453  0.06839  1.0000
  H   H641      1.0  0.36874  0.76813  0.21154  1.0000
  H   H642      1.0  0.41796  0.75110  0.21927  1.0000
  N   N27       1.0  0.38771  0.79875  0.21524  1.0000
  C   C377      1.0  0.36527  0.94463  0.12915  1.0000
  C   C378      1.0  0.41151  0.80574  0.22415  1.0000
  C   C379      1.0  0.37143  0.80697  0.24509  1.0000
  H   H643      1.0  0.38001  0.93544  0.11535  1.0000
  C   C380      1.0  0.61699  0.95694  0.42536  1.0000
  C   C381      1.0  0.42970  0.80084  0.19415  1.0000
  H   H644      1.0  0.39264  0.94646  0.48575  1.0000
  H   H645      1.0  0.39200  0.76893  0.18044  1.0000
  H   H646      1.0  0.65128  0.94278  0.06626  1.0000
  H   H647      1.0  0.48852  0.86328  0.35298  1.0000
  H   H648      1.0  0.41843  0.79757  0.24945  1.0000
  H   H649      1.0  0.41114  0.82453  0.23003  1.0000
  C   C382      1.0  0.48806  0.86332  0.38337  1.0000
  H   H650      1.0  0.65289  0.82804  0.17656  1.0000
  H   H651      1.0  0.34524  0.91539  0.12619  1.0000
  H   H652      1.0  0.60678  0.78336  0.17407  1.0000
  H   H653      1.0  0.58839  0.96817  0.45817  1.0000
  H   H654      1.0  0.65958  0.79920  0.18751  1.0000
  H   H655      1.0  0.50313  0.85464  0.45285  1.0000
  S   S111      1.0  0.34699  0.85377  0.05081  1.0000
  H   H656      1.0  0.61217  0.90087  0.45002  1.0000
  C   C383      1.0  0.64565  0.81087  0.17622  1.0000
  H   H657      1.0  0.44064  0.84080  0.48022  1.0000
  H   H658      1.0  0.57341  0.84650  0.18734  1.0000
  H   H659      1.0  0.54361  0.96967  0.29363  1.0000
  H   H660      1.0  0.38446  0.93533  0.42769  1.0000
  H   H661      1.0  0.35314  0.81603  0.14021  1.0000
  H   H662      1.0  0.37265  0.77857  0.28482  1.0000
  C   C384      1.0  0.42724  0.93768  0.39127  1.0000
  N   N28       1.0  0.39126  0.96565  0.39554  1.0000
  H   H663      1.0  0.34958  0.94844  0.33365  1.0000
  C   C385      1.0  0.36690  0.91567  0.04829  1.0000
  H   H664      1.0  0.36391  0.80598  0.30295  1.0000
  C   C386      1.0  0.42748  0.85462  0.47827  1.0000
  C   C387      1.0  0.60077  0.97666  0.44043  1.0000
  H   H665      1.0  0.38383  0.93503  0.36522  1.0000
  H   H666      1.0  0.35800  0.90330  0.03122  1.0000
  H   H667      1.0  0.36395  0.95805  0.43264  1.0000
  C   C388      1.0  0.61394  0.78826  0.20090  1.0000
  C   C389      1.0  0.64294  0.80416  0.13584  1.0000
  C   C390      1.0  0.42627  0.98446  0.28798  1.0000
  H   H668      1.0  0.65676  0.91284  0.05850  1.0000
  H   H669      1.0  0.42285  0.92824  0.41638  1.0000
  H   H670      1.0  0.44622  0.93774  0.39002  1.0000
  H   H671      1.0  0.33309  0.98427  0.11488  1.0000
  H   H672      1.0  0.61984  0.94302  0.44590  1.0000
  H   H673      1.0  0.63549  0.78727  0.13279  1.0000
  H   H674      1.0  0.62849  0.76686  0.24570  1.0000
  C   C391      1.0  0.62910  0.81995  0.23714  1.0000
  H   H675      1.0  0.65575  0.79325  0.25493  1.0000
  H   H676      1.0  0.36533  0.96312  0.12267  1.0000
  H   H677      1.0  0.64735  0.76781  0.20656  1.0000
  C   C392      1.0  0.62930  0.76778  0.21542  1.0000
  N   N29       1.0  0.61205  0.99515  0.46125  1.0000
  H   H678      1.0  0.65864  0.93850  0.15793  1.0000
  H   H679      1.0  0.58988  0.98388  0.41766  1.0000
  H   H680      1.0  0.35060  0.79091  0.16754  1.0000
  H   H681      1.0  0.56442  0.88452  0.47575  1.0000
  H   H682      1.0  0.38327  0.97613  0.47856  1.0000
  H   H683      1.0  0.63764  0.97147  0.48595  1.0000
  C   C393      1.0  0.60516  0.99543  0.30463  1.0000
  H   H684      1.0  0.38323  0.99718  0.36543  1.0000
  C   C394      1.0  0.38348  0.99084  0.39419  1.0000
  H   H685      1.0  0.65963  0.96655  0.11095  1.0000
  C   C395      1.0  0.55067  0.87942  0.49456  1.0000
  H   H686      1.0  0.36552  0.99361  0.40421  1.0000
  S   S112      1.0  0.66267  0.87161  0.26431  1.0000
  C   C396      1.0  0.38598  0.99731  0.28474  1.0000
  C   C397      1.0  0.55530  0.99755  0.24382  1.0000
  Fe  Fe57      1.0  0.60238  0.91850  0.71227  1.0000
  S   S113      1.0  0.63712  0.91673  0.68700  1.0000
  S   S114      1.0  0.58841  0.95161  0.73693  1.0000
  Fe  Fe58      1.0  0.59422  0.86946  0.69148  1.0000
  S   S115      1.0  0.62902  0.86354  0.66541  1.0000
  S   S116      1.0  0.56565  0.84572  0.68432  1.0000
  Fe  Fe59      1.0  0.64144  0.88240  0.71518  1.0000
  C   C398      1.0  0.65978  0.94213  0.93646  1.0000
  Fe  Fe60      1.0  0.62139  0.89842  0.64015  1.0000
  S   S117      1.0  0.62301  0.91187  0.58172  1.0000
  S   S118      1.0  0.60707  0.88532  0.74296  1.0000
  S   S119      1.0  0.58616  0.90308  0.66391  1.0000
  Fe  Fe61      1.0  0.41692  0.86952  0.60851  1.0000
  S   S120      1.0  0.42937  0.90420  0.62142  1.0000
  S   S121      1.0  0.42815  0.85363  0.55370  1.0000
  Fe  Fe62      1.0  0.39451  0.86530  0.68524  1.0000
  S   S122      1.0  0.40552  0.89949  0.70240  1.0000
  S   S123      1.0  0.37463  0.84474  0.72662  1.0000
  Fe  Fe63      1.0  0.39480  0.91120  0.64653  1.0000
  S   S124      1.0  0.37636  0.94557  0.63797  1.0000
  Fe  Fe64      1.0  0.43912  0.88929  0.67595  1.0000
  S   S125      1.0  0.46994  0.90066  0.70610  1.0000
  S   S126      1.0  0.38113  0.87765  0.63008  1.0000
  S   S127      1.0  0.42931  0.85375  0.66234  1.0000
  C   C399      1.0  0.36293  0.85542  0.76878  1.0000
  N   N30       1.0  0.50010  0.97522  0.67404  1.0000
  H   H687      1.0  0.53582  0.96348  0.68027  1.0000
  C   C400      1.0  0.35909  0.88460  0.81630  1.0000
  C   C401      1.0  0.36861  0.87653  0.78300  1.0000
  C   C402      1.0  0.33843  0.85026  0.82240  1.0000
  H   H688      1.0  0.52400  0.96125  0.74201  1.0000
  H   H689      1.0  0.38055  0.88655  0.76849  1.0000
  C   C403      1.0  0.35986  0.95706  0.75873  1.0000
  H   H690      1.0  0.51641  0.94161  0.68641  1.0000
  C   C404      1.0  0.50354  0.98747  0.70978  1.0000
  C   C405      1.0  0.65686  0.92548  0.85083  1.0000
  H   H691      1.0  0.52101  0.87292  0.59310  1.0000
  C   C406      1.0  0.62650  0.85804  0.51048  1.0000
  C   C407      1.0  0.39254  0.96694  0.65686  1.0000
  C   C408      1.0  0.40564  0.96251  0.68841  1.0000
  C   C409      1.0  0.41807  0.97978  0.70391  1.0000
  H   H692      1.0  0.63992  0.86370  0.79828  1.0000
  H   H693      1.0  0.51864  0.84647  0.52035  1.0000
  H   H694      1.0  0.40588  0.94600  0.70145  1.0000
  H   H695      1.0  0.42786  0.97632  0.72860  1.0000
  C   C410      1.0  0.53901  0.86111  0.68938  1.0000
  C   C411      1.0  0.51928  0.85318  0.67306  1.0000
  C   C412      1.0  0.49801  0.86562  0.67694  1.0000
  C   C413      1.0  0.49639  0.88560  0.69807  1.0000
  C   C414      1.0  0.51608  0.89344  0.71439  1.0000
  C   C415      1.0  0.53738  0.88139  0.70969  1.0000
  H   H696      1.0  0.52042  0.83739  0.65759  1.0000
  H   H697      1.0  0.48284  0.85946  0.66435  1.0000
  H   H698      1.0  0.51487  0.90874  0.73108  1.0000
  H   H699      1.0  0.55247  0.88750  0.72265  1.0000
  C   C416      1.0  0.62697  0.87096  0.54292  1.0000
  C   C417      1.0  0.62235  0.89476  0.54185  1.0000
  H   H700      1.0  0.49327  0.96086  0.74885  1.0000
  H   H701      1.0  0.58031  0.86535  0.52400  1.0000
  H   H702      1.0  0.58387  0.97269  0.60813  1.0000
  H   H703      1.0  0.64875  0.95947  0.87190  1.0000
  C   C418      1.0  0.58163  0.97054  0.70090  1.0000
  C   C419      1.0  0.58700  0.96396  0.66510  1.0000
  H   H704      1.0  0.47837  0.84650  0.86348  1.0000
  H   H705      1.0  0.49205  0.84434  0.82010  1.0000
  H   H706      1.0  0.59671  0.94803  0.65973  1.0000
  H   H707      1.0  0.39319  0.88938  0.53230  1.0000
  C   C420      1.0  0.58002  0.97810  0.63583  1.0000
  C   C421      1.0  0.41806  0.86429  0.51057  1.0000
  H   H708      1.0  0.47306  0.96222  0.61555  1.0000
  H   H709      1.0  0.56926  0.92051  0.58587  1.0000
  S   S128      1.0  0.33157  0.88362  0.87709  1.0000
  C   C422      1.0  0.63722  0.99055  0.69799  1.0000
  C   C423      1.0  0.51223  0.85205  0.54749  1.0000
  C   C424      1.0  0.35323  0.93596  0.73645  1.0000
  H   H710      1.0  0.51173  0.83693  0.56591  1.0000
  H   H711      1.0  0.36268  0.93687  0.71022  1.0000
  H   H712      1.0  0.43737  0.88395  0.82402  1.0000
  N   N31       1.0  0.55234  0.86563  0.56253  1.0000
  C   C425      1.0  0.55771  0.84330  0.58276  1.0000
  H   H713      1.0  0.47264  0.86860  0.83043  1.0000
  C   C426      1.0  0.56373  0.88420  0.58294  1.0000
  C   C427      1.0  0.65562  0.86564  0.81324  1.0000
  C   C428      1.0  0.58336  0.83591  0.58805  1.0000
  H   H714      1.0  0.49420  0.85909  0.54426  1.0000
  C   C429      1.0  0.56076  0.90870  0.56719  1.0000
  H   H715      1.0  0.36075  0.92037  0.75047  1.0000
  H   H716      1.0  0.54976  0.84391  0.61036  1.0000
  H   H717      1.0  0.55023  0.82873  0.56847  1.0000
  C   C430      1.0  0.62467  0.98851  0.78176  1.0000
  C   C431      1.0  0.56158  0.86314  0.52413  1.0000
  H   H718      1.0  0.55746  0.88484  0.61167  1.0000
  H   H719      1.0  0.58259  0.88048  0.58442  1.0000
  H   H720      1.0  0.65712  0.90424  0.93721  1.0000
  H   H721      1.0  0.36576  0.97059  0.74020  1.0000
  H   H722      1.0  0.59153  0.84669  0.60862  1.0000
  H   H723      1.0  0.58488  0.81812  0.59911  1.0000
  H   H724      1.0  0.59311  0.83587  0.56211  1.0000
  H   H725      1.0  0.36363  0.90100  0.82685  1.0000
  C   C432      1.0  0.52534  0.94863  0.63078  1.0000
  H   H726      1.0  0.40851  0.98312  0.80461  1.0000
  H   H727      1.0  0.37494  0.95190  0.77603  1.0000
  H   H728      1.0  0.54260  0.91519  0.56508  1.0000
  C   C433      1.0  0.39238  0.98858  0.64039  1.0000
  H   H729      1.0  0.52117  0.88703  0.55076  1.0000
  C   C434      1.0  0.34795  0.84223  0.78891  1.0000
  H   H730      1.0  0.47783  0.95065  0.69701  1.0000
  H   H731      1.0  0.64128  0.85594  0.86481  1.0000
  H   H732      1.0  0.63405  0.92029  0.91292  1.0000
  H   H733      1.0  0.63820  0.92718  0.84471  1.0000
  C   C435      1.0  0.47735  0.96446  0.67599  1.0000
  H   H734      1.0  0.34354  0.82576  0.77844  1.0000
  C   C436      1.0  0.40069  0.88185  0.50777  1.0000
  H   H735      1.0  0.54202  0.89552  0.50469  1.0000
  H   H736      1.0  0.47474  0.93493  0.63949  1.0000
  H   H737      1.0  0.51040  0.94253  0.61611  1.0000
  C   C437      1.0  0.34381  0.87164  0.83620  1.0000
  H   H738      1.0  0.65892  0.97239  0.78030  1.0000
  C   C438      1.0  0.52670  0.87059  0.56416  1.0000
  N   N32       1.0  0.65391  0.99151  0.72933  1.0000
  H   H739      1.0  0.61349  0.92387  0.50718  1.0000
  H   H740      1.0  0.44954  0.95433  0.64138  1.0000
  H   H741      1.0  0.38259  0.99205  0.61567  1.0000
  H   H742      1.0  0.53832  0.93391  0.63277  1.0000
  H   H743      1.0  0.33421  0.93424  0.80896  1.0000
  C   C439      1.0  0.46860  0.95333  0.64096  1.0000
  N   N33       1.0  0.44712  0.84078  0.78189  1.0000
  C   C440      1.0  0.43696  0.81950  0.76706  1.0000
  C   C441      1.0  0.46594  0.84698  0.75619  1.0000
  C   C442      1.0  0.42831  0.85973  0.78136  1.0000
  C   C443      1.0  0.45564  0.83604  0.82033  1.0000
  C   C444      1.0  0.41673  0.81053  0.78892  1.0000
  C   C445      1.0  0.48478  0.82772  0.74905  1.0000
  C   C446      1.0  0.43470  0.88363  0.79407  1.0000
  C   C447      1.0  0.47572  0.84984  0.83385  1.0000
  H   H744      1.0  0.43096  0.82239  0.73835  1.0000
  H   H745      1.0  0.45005  0.80482  0.76598  1.0000
  H   H746      1.0  0.47471  0.86216  0.76581  1.0000
  H   H747      1.0  0.45865  0.85235  0.72916  1.0000
  H   H748      1.0  0.42099  0.86174  0.75334  1.0000
  H   H749      1.0  0.41382  0.85543  0.79922  1.0000
  H   H750      1.0  0.44137  0.83894  0.84030  1.0000
  H   H751      1.0  0.46156  0.81762  0.82378  1.0000
  H   H752      1.0  0.42083  0.80791  0.81824  1.0000
  H   H753      1.0  0.40093  0.82192  0.78609  1.0000
  H   H754      1.0  0.41251  0.79365  0.77765  1.0000
  H   H755      1.0  0.48917  0.81733  0.77372  1.0000
  H   H756      1.0  0.47942  0.81619  0.72697  1.0000
  H   H757      1.0  0.50069  0.83540  0.73971  1.0000
  H   H758      1.0  0.42003  0.89619  0.78837  1.0000
  H   H759      1.0  0.44958  0.88998  0.77936  1.0000
  H   H760      1.0  0.46362  0.97692  0.68601  1.0000
  C   C448      1.0  0.51955  0.95709  0.66971  1.0000
  H   H761      1.0  0.56652  0.99731  0.73531  1.0000
  H   H762      1.0  0.50022  0.98529  0.61653  1.0000
  C   C449      1.0  0.50764  0.97195  0.74377  1.0000
  C   C450      1.0  0.65648  0.86115  0.85098  1.0000
  H   H763      1.0  0.53331  0.96213  0.61454  1.0000
  H   H764      1.0  0.63129  0.86255  0.56861  1.0000
  H   H765      1.0  0.33436  0.92666  0.67154  1.0000
  H   H766      1.0  0.66023  0.99238  0.65010  1.0000
  H   H767      1.0  0.63541  0.92033  0.96128  1.0000
  H   H768      1.0  0.61037  0.99448  0.76352  1.0000
  C   C451      1.0  0.61706  0.90546  0.50816  1.0000
  H   H769      1.0  0.64653  0.95666  0.93705  1.0000
  H   H770      1.0  0.63036  0.83965  0.51147  1.0000
  H   H771      1.0  0.50903  0.98304  0.76817  1.0000
  C   C452      1.0  0.64612  0.92039  0.93623  1.0000
  H   H772      1.0  0.55967  0.84537  0.51401  1.0000
  H   H773      1.0  0.61171  0.97436  0.51056  1.0000
  H   H774      1.0  0.63959  0.96057  0.75004  1.0000
  C   C453      1.0  0.64515  0.97733  0.76030  1.0000
  H   H775      1.0  0.34226  0.97122  0.68828  1.0000
  C   C454      1.0  0.33574  0.89402  0.69789  1.0000
  H   H776      1.0  0.56969  0.90996  0.54063  1.0000
  H   H777      1.0  0.65994  0.90965  0.86703  1.0000
  H   H778      1.0  0.63321  0.97252  0.69208  1.0000
  C   C455      1.0  0.50078  0.99300  0.64408  1.0000
  H   H779      1.0  0.64238  0.99147  0.54405  1.0000
  H   H780      1.0  0.66212  0.99263  0.89187  1.0000
  H   H781      1.0  0.34649  0.96452  0.77723  1.0000
  H   H782      1.0  0.33540  0.88613  0.67035  1.0000
  H   H783      1.0  0.35383  0.89294  0.70703  1.0000
  C   C456      1.0  0.57045  0.99204  0.70759  1.0000
  H   H784      1.0  0.66263  0.98983  0.94145  1.0000
  H   H785      1.0  0.61795  0.97555  0.80056  1.0000
  H   H786      1.0  0.39294  0.99685  0.76793  1.0000
  H   H787      1.0  0.98174  0.48330  0.36233  1.0000
  S   S129      1.0  0.87883  0.30796  0.02211  1.0000
  H   H788      1.0  0.92864  0.30847  0.11612  1.0000
  H   H789      1.0  0.92293  0.27832  0.11962  1.0000
  H   H790      1.0  0.81882  0.36389  0.21933  1.0000
  C   C457      1.0  0.78871  0.09064  0.00838  1.0000
  Fe  Fe65      1.0  0.89321  0.34416  0.23418  1.0000
  S   S130      1.0  0.92306  0.36596  0.22625  1.0000
  S   S131      1.0  0.88328  0.31492  0.19662  1.0000
  Fe  Fe66      1.0  0.88321  0.36397  0.31176  1.0000
  S   S132      1.0  0.91174  0.38775  0.30892  1.0000
  S   S133      1.0  0.85927  0.35832  0.35976  1.0000
  Fe  Fe67      1.0  0.90058  0.39463  0.25105  1.0000
  S   S134      1.0  0.90425  0.42911  0.22396  1.0000
  Fe  Fe68      1.0  0.93195  0.35778  0.28448  1.0000
  S   S135      1.0  0.96763  0.35073  0.30560  1.0000
  S   S136      1.0  0.86974  0.37345  0.25521  1.0000
  S   S137      1.0  0.90434  0.33326  0.29106  1.0000
  C   C458      1.0  0.89477  0.45450  0.24670  1.0000
  C   C459      1.0  0.90246  0.47553  0.23462  1.0000
  H   H791      1.0  0.70741  0.13577  0.01834  1.0000
  C   C460      1.0  0.87997  0.45413  0.27663  1.0000
  H   H792      1.0  0.91380  0.47588  0.21131  1.0000
  H   H793      1.0  0.87393  0.43799  0.28607  1.0000
  C   C461      1.0  0.86144  0.35968  0.40833  1.0000
  C   C462      1.0  0.74297  0.12165  0.01581  1.0000
  C   C463      1.0  0.97735  0.27404  0.04391  1.0000
  H   H794      1.0  0.89960  0.29867  0.45482  1.0000
  C   C464      1.0  0.84414  0.34994  0.42845  1.0000
  H   H795      1.0  0.92555  0.23256  0.05565  1.0000
  H   H796      1.0  0.83053  0.34187  0.41436  1.0000
  C   C465      1.0  0.94445  0.32793  0.49060  1.0000
  C   C466      1.0  0.96367  0.44852  0.32477  1.0000
  C   C467      1.0  0.97861  0.38848  0.26595  1.0000
  N   N34       1.0  0.97029  0.47126  0.30962  1.0000
  H   H797      1.0  0.96331  0.38628  0.25023  1.0000
  C   C468      1.0  0.87952  0.30956  0.07072  1.0000
  C   C469      1.0  0.87591  0.29063  0.09306  1.0000
  C   C470      1.0  0.87672  0.29275  0.13146  1.0000
  C   C471      1.0  0.88152  0.31366  0.14807  1.0000
  C   C472      1.0  0.88507  0.33262  0.12575  1.0000
  C   C473      1.0  0.88397  0.33057  0.08736  1.0000
  H   H798      1.0  0.87233  0.27439  0.08076  1.0000
  H   H799      1.0  0.87388  0.27797  0.14838  1.0000
  H   H800      1.0  0.88866  0.34885  0.13801  1.0000
  H   H801      1.0  0.88666  0.34537  0.07039  1.0000
  H   H802      1.0  0.76346  0.30900  0.27112  1.0000
  H   H803      1.0  0.97773  0.43500  0.32048  1.0000
  H   H804      1.0  0.66855  0.10762  0.24417  1.0000
  H   H805      1.0  0.82897  0.31150  0.22163  1.0000
  H   H806      1.0  0.83893  0.27865  0.28715  1.0000
  C   C474      1.0  0.96407  0.46645  0.23961  1.0000
  H   H807      1.0  0.77783  0.31236  0.22803  1.0000
  N   N35       1.0  0.92518  0.31190  0.49056  1.0000
  H   H808      1.0  0.67549  0.12931  0.21202  1.0000
  H   H809      1.0  0.98049  0.31663  0.21220  1.0000
  H   H810      1.0  0.78817  0.17172  0.03963  1.0000
  H   H811      1.0  0.67573  0.00151  0.13445  1.0000
  H   H812      1.0  0.93084  0.47691  0.35566  1.0000
  H   H813      1.0  0.74516  0.13930  0.08893  1.0000
  H   H814      1.0  0.93768  0.48558  0.28790  1.0000
  H   H815      1.0  0.81259  0.34159  0.34982  1.0000
  H   H816      1.0  0.95349  0.36259  0.47702  1.0000
  H   H817      1.0  0.78567  0.13542  0.00953  1.0000
  C   C475      1.0  0.83904  0.31598  0.29789  1.0000
  H   H818      1.0  0.67066  0.11728  0.04606  1.0000
  S   S138      1.0  0.69619  0.07283  0.03213  1.0000
  C   C476      1.0  0.77300  0.16176  0.04563  1.0000
  H   H819      1.0  0.75932  0.16874  0.02711  1.0000
  H   H820      1.0  0.84630  0.33336  0.23671  1.0000
  H   H821      1.0  0.71762  0.10937  0.07492  1.0000
  H   H822      1.0  0.96184  0.44925  0.35505  1.0000
  C   C477      1.0  0.88041  0.49578  0.28202  1.0000
  C   C478      1.0  0.95687  0.27893  0.48150  1.0000
  C   C479      1.0  0.98844  0.48016  0.33427  1.0000
  H   H823      1.0  0.79707  0.34401  0.20901  1.0000
  C   C480      1.0  0.85062  0.29283  0.28516  1.0000
  H   H824      1.0  0.76003  0.08208  0.04097  1.0000
  H   H825      1.0  0.79964  0.35896  0.27261  1.0000
  C   C481      1.0  0.73285  0.10579  0.09251  1.0000
  H   H826      1.0  0.79492  0.13154  0.05562  1.0000
  C   C482      1.0  0.94768  0.30674  0.04531  1.0000
  H   H827      1.0  0.73848  0.08732  0.09074  1.0000
  N   N36       1.0  0.81939  0.32587  0.27468  1.0000
  C   C483      1.0  0.77769  0.31733  0.25730  1.0000
  N   N37       1.0  0.76146  0.11926  0.04461  1.0000
  C   C484      1.0  0.77297  0.09531  0.04177  1.0000
  C   C485      1.0  0.75210  0.12167  0.08290  1.0000
  C   C486      1.0  0.77959  0.13619  0.03836  1.0000
  C   C487      1.0  0.67365  0.06854  0.09733  1.0000
  H   H828      1.0  0.73310  0.10594  0.01505  1.0000
  H   H829      1.0  0.95160  0.45324  0.24375  1.0000
  H   H830      1.0  0.93541  0.26536  0.01967  1.0000
  H   H831      1.0  0.92743  0.29126  0.41094  1.0000
  H   H832      1.0  0.82281  0.34398  0.18285  1.0000
  H   H833      1.0  0.91632  0.31947  0.39729  1.0000
  C   C488      1.0  0.95061  0.48932  0.30869  1.0000
  C   C489      1.0  0.80083  0.34895  0.32852  1.0000
  H   H834      1.0  0.99066  0.20557  0.00123  1.0000
  H   H835      1.0  0.95931  0.31985  0.05496  1.0000
  H   H836      1.0  0.66844  0.12480  0.34894  1.0000
  H   H837      1.0  0.95848  0.32218  0.47183  1.0000
  C   C490      1.0  0.92567  0.30957  0.41929  1.0000
  H   H838      1.0  0.97172  0.28722  0.49353  1.0000
  H   H839      1.0  0.80517  0.09896  0.01138  1.0000
  C   C491      1.0  0.84393  0.35071  0.46669  1.0000
  H   H840      1.0  0.68539  0.18908  0.28968  1.0000
  C   C492      1.0  0.98411  0.37404  0.29569  1.0000
  H   H841      1.0  0.68117  0.05111  0.09707  1.0000
  H   H842      1.0  0.94615  0.42595  0.28733  1.0000
  C   C493      1.0  0.82831  0.32829  0.23618  1.0000
  H   H843      1.0  0.90051  0.32836  0.45271  1.0000
  H   H844      1.0  0.72595  0.15268  0.04374  1.0000
  H   H845      1.0  0.89134  0.38013  0.48078  1.0000
  H   H846      1.0  0.89209  0.37827  0.41223  1.0000
  H   H847      1.0  0.86543  0.28825  0.30338  1.0000
  H   H848      1.0  0.77321  0.33595  0.25965  1.0000
  H   H849      1.0  0.97506  0.26765  0.01592  1.0000
  C   C494      1.0  0.98669  0.32455  0.18676  1.0000
  H   H850      1.0  0.99317  0.35619  0.21387  1.0000
  C   C495      1.0  0.93651  0.26724  0.04988  1.0000
  H   H851      1.0  0.79633  0.36698  0.33685  1.0000
  H   H852      1.0  0.99122  0.48312  0.26529  1.0000
  H   H853      1.0  0.93911  0.24239  0.09578  1.0000
  H   H854      1.0  0.96552  0.26816  0.11202  1.0000
  H   H855      1.0  0.97024  0.29768  0.10762  1.0000
  H   H856      1.0  0.86057  0.47452  0.31640  1.0000
  C   C496      1.0  0.93773  0.35310  0.48011  1.0000
  H   H857      1.0  0.82702  0.36001  0.29211  1.0000
  C   C497      1.0  0.87249  0.47480  0.29383  1.0000
  C   C498      1.0  0.95786  0.28465  0.10072  1.0000
  N   N38       1.0  0.95481  0.28318  0.05991  1.0000
  C   C499      1.0  0.80054  0.30944  0.27586  1.0000
  H   H858      1.0  0.93064  0.31279  0.05645  1.0000
  C   C500      1.0  0.93604  0.29105  0.12296  1.0000
  C   C501      1.0  0.98068  0.46839  0.27201  1.0000
  C   C502      1.0  0.86098  0.36127  0.48608  1.0000
  H   H859      1.0  0.83020  0.34318  0.48144  1.0000
  H   H860      1.0  0.91920  0.27452  0.05799  1.0000
  H   H861      1.0  0.76613  0.11845  0.10325  1.0000
  H   H862      1.0  0.92883  0.45140  0.29929  1.0000
  H   H863      1.0  0.94042  0.29125  0.15247  1.0000
  H   H864      1.0  0.79685  0.30410  0.30439  1.0000
  H   H865      1.0  0.85765  0.29373  0.25712  1.0000
  C   C503      1.0  0.87849  0.37124  0.46626  1.0000
  C   C504      1.0  0.72493  0.14217  0.01892  1.0000
  C   C505      1.0  0.93977  0.24269  0.06556  1.0000
  C   C506      1.0  0.87882  0.37031  0.42738  1.0000
  H   H866      1.0  0.85282  0.32828  0.29943  1.0000
  C   C507      1.0  0.94188  0.43850  0.30940  1.0000
  H   H867      1.0  0.83358  0.31322  0.32654  1.0000
  C   C508      1.0  0.81567  0.34609  0.21088  1.0000
  C   C509      1.0  0.81207  0.34911  0.29038  1.0000
  H   H868      1.0  0.93321  0.42947  0.33168  1.0000
  H   H869      1.0  0.78373  0.09106  0.06630  1.0000
  H   H870      1.0  0.78473  0.33989  0.32849  1.0000
  H   H871      1.0  0.80618  0.29300  0.26230  1.0000
  C   C510      1.0  0.91192  0.31244  0.45515  1.0000
  H   H872      1.0  0.72718  0.10905  0.12107  1.0000
  H   H873      1.0  0.76854  0.16531  0.07454  1.0000
  H   H874      1.0  0.79297  0.07186  0.00604  1.0000
  H   H875      1.0  0.97115  0.33195  0.17241  1.0000
  H   H876      1.0  0.95590  0.23370  0.05583  1.0000
  H   H877      1.0  0.94276  0.31658  0.42002  1.0000
  H   H878      1.0  0.68508  0.13141  0.25729  1.0000
  H   H879      1.0  0.92851  0.35460  0.45368  1.0000
  C   C511      1.0  0.66975  0.18217  0.27781  1.0000
  C   C512      1.0  0.66780  0.10577  0.06855  1.0000
  C   C513      1.0  0.67748  0.08319  0.06764  1.0000
  H   H880      1.0  0.95672  0.28129  0.45158  1.0000
  C   C514      1.0  0.94519  0.30875  0.00333  1.0000
  C   C515      1.0  0.93722  0.49303  0.34471  1.0000
  C   C516      1.0  0.89568  0.49606  0.25268  1.0000
  H   H881      1.0  0.97411  0.46140  0.21485  1.0000
  S   S139      1.0  0.88157  0.23998  0.00326  1.0000
  H   H882      1.0  0.67853  0.15071  0.30589  1.0000
  H   H883      1.0  0.98435  0.25860  0.05916  1.0000
  H   H884      1.0  0.99011  0.41507  0.23067  1.0000
  H   H885      1.0  0.95977  0.26021  0.48691  1.0000
  C   C517      1.0  0.99373  0.40493  0.25503  1.0000
  H   H886      1.0  0.95490  0.48326  0.23334  1.0000
  H   H887      1.0  0.99369  0.49708  0.32429  1.0000
  C   C518      1.0  0.67045  0.12632  0.24083  1.0000
  H   H888      1.0  0.92132  0.27515  0.49320  1.0000
  H   H889      1.0  0.99256  0.30504  0.02262  1.0000
  H   H890      1.0  0.99267  0.45289  0.27099  1.0000
  H   H891      1.0  0.67147  0.10831  0.30704  1.0000
  H   H892      1.0  0.67403  0.17681  0.24948  1.0000
  C   C519      1.0  0.99656  0.29097  0.04250  1.0000
  H   H893      1.0  0.99492  0.31125  0.16869  1.0000
  H   H894      1.0  0.87653  0.30546  0.50289  1.0000
  H   H895      1.0  0.83721  0.26284  0.81793  1.0000
  H   H896      1.0  0.95158  0.32528  0.99389  1.0000
  H   H897      1.0  0.86714  0.38833  0.83809  1.0000
  C   C520      1.0  0.89390  0.41316  0.72761  1.0000
  C   C521      1.0  0.81021  0.18740  0.94955  1.0000
  Fe  Fe69      1.0  0.88227  0.26284  0.90243  1.0000
  S   S140      1.0  0.88586  0.26840  0.84044  1.0000
  S   S141      1.0  0.88640  0.22513  0.91745  1.0000
  Fe  Fe70      1.0  0.69362  0.08794  0.89016  1.0000
  S   S142      1.0  0.73005  0.07825  0.87376  1.0000
  H   H898      1.0  0.98431  0.35532  0.52135  1.0000
  Fe  Fe71      1.0  0.72817  0.04946  0.91489  1.0000
  S   S143      1.0  0.73987  0.01224  0.90245  1.0000
  Fe  Fe72      1.0  0.74066  0.10063  0.92084  1.0000
  S   S144      1.0  0.77282  0.12224  0.91580  1.0000
  S   S145      1.0  0.69139  0.05799  0.92881  1.0000
  S   S146      1.0  0.70401  0.11204  0.93548  1.0000
  Fe  Fe73      1.0  0.88860  0.35635  0.66656  1.0000
  S   S147      1.0  0.92405  0.36901  0.66561  1.0000
  S   S148      1.0  0.87163  0.34948  0.72190  1.0000
  Fe  Fe74      1.0  0.88266  0.36557  0.58308  1.0000
  S   S149      1.0  0.91740  0.37914  0.57720  1.0000
  S   S150      1.0  0.85854  0.36155  0.53468  1.0000
  Fe  Fe75      1.0  0.92884  0.34959  0.61330  1.0000
  S   S151      1.0  0.96238  0.33035  0.60041  1.0000
  Fe  Fe76      1.0  0.90961  0.39768  0.62986  1.0000
  S   S152      1.0  0.92420  0.43184  0.64178  1.0000
  S   S153      1.0  0.89453  0.33434  0.61648  1.0000
  S   S154      1.0  0.87359  0.38663  0.63353  1.0000
  C   C522      1.0  0.90670  0.45695  0.64983  1.0000
  C   C523      1.0  0.88371  0.45918  0.63893  1.0000
  H   H899      1.0  0.92689  0.30836  0.99529  1.0000
  C   C524      1.0  0.91638  0.47527  0.66746  1.0000
  H   H900      1.0  0.87612  0.44507  0.62536  1.0000
  H   H901      1.0  0.93389  0.47336  0.67693  1.0000
  C   C525      1.0  0.86063  0.39953  0.81525  1.0000
  C   C526      1.0  0.67431  0.07612  0.74408  1.0000
  H   H902      1.0  0.87778  0.31231  0.54985  1.0000
  C   C527      1.0  0.87535  0.44154  0.77203  1.0000
  H   H903      1.0  0.72639  0.01189  0.97945  1.0000
  C   C528      1.0  0.97905  0.37180  0.61724  1.0000
  C   C529      1.0  0.67081  0.02042  0.77389  1.0000
  H   H904      1.0  0.96195  0.37914  0.61200  1.0000
  C   C530      1.0  0.88286  0.29189  0.80894  1.0000
  C   C531      1.0  0.87049  0.31258  0.81715  1.0000
  C   C532      1.0  0.86739  0.33000  0.79030  1.0000
  C   C533      1.0  0.87695  0.32722  0.75511  1.0000
  C   C534      1.0  0.88964  0.30670  0.74713  1.0000
  C   C535      1.0  0.89233  0.28911  0.77372  1.0000
  H   H905      1.0  0.86290  0.31497  0.84391  1.0000
  H   H906      1.0  0.85736  0.34565  0.79679  1.0000
  H   H907      1.0  0.89700  0.30417  0.72024  1.0000
  H   H908      1.0  0.90184  0.27318  0.76691  1.0000
  S   S155      1.0  0.94458  0.21822  0.97723  1.0000
  H   H909      1.0  0.83827  0.41662  0.75878  1.0000
  H   H910      1.0  0.87706  0.45866  0.71702  1.0000
  H   H911      1.0  0.85189  0.39561  0.72957  1.0000
  H   H912      1.0  0.97609  0.46443  0.66949  1.0000
  C   C536      1.0  0.78653  0.14784  0.92863  1.0000
  H   H913      1.0  0.83927  0.17078  0.92220  1.0000
  Fe  Fe77      1.0  0.70468  0.08076  0.97245  1.0000
  C   C537      1.0  0.97096  0.23094  0.96938  1.0000
  C   C538      1.0  0.91868  0.41419  0.74180  1.0000
  Fe  Fe78      1.0  0.91010  0.23615  0.96170  1.0000
  H   H914      1.0  0.89218  0.42502  0.70408  1.0000
  S   S156      1.0  0.90781  0.27301  0.94450  1.0000
  N   N39       1.0  0.87528  0.41780  0.75562  1.0000
  H   H915      1.0  0.87032  0.47724  0.75408  1.0000
  H   H916      1.0  0.91820  0.32054  0.54723  1.0000
  H   H917      1.0  0.82863  0.42304  0.69469  1.0000
  H   H918      1.0  0.69523  0.08095  0.79208  1.0000
  H   H919      1.0  0.77795  0.19886  0.97394  1.0000
  H   H920      1.0  0.92109  0.42989  0.75789  1.0000
  C   C539      1.0  0.67797  0.08121  0.78128  1.0000
  C   C540      1.0  0.90348  0.49600  0.67332  1.0000
  H   H921      1.0  0.80999  0.26041  0.86281  1.0000
  C   C541      1.0  0.82142  0.16966  0.92936  1.0000
  H   H922      1.0  0.98669  0.48188  0.72461  1.0000
  H   H923      1.0  0.85289  0.48170  0.63674  1.0000
  H   H924      1.0  0.95662  0.25869  0.93610  1.0000
  H   H925      1.0  0.88840  0.44170  0.79421  1.0000
  Fe  Fe79      1.0  0.87831  0.27664  0.98426  1.0000
  H   H926      1.0  0.81872  0.13647  0.90389  1.0000
  H   H927      1.0  0.78217  0.20849  0.82682  1.0000
  C   C542      1.0  0.88078  0.46147  0.74606  1.0000
  H   H928      1.0  0.78582  0.17876  0.83820  1.0000
  S   S157      1.0  0.82414  0.21240  0.96453  1.0000
  H   H929      1.0  0.68780  0.02603  0.76516  1.0000
  C   C543      1.0  0.87065  0.47994  0.64520  1.0000
  H   H930      1.0  0.85857  0.44627  0.78530  1.0000
  H   H931      1.0  0.93058  0.41428  0.71816  1.0000
  H   H932      1.0  0.79126  0.19902  0.87248  1.0000
  H   H933      1.0  0.79318  0.23654  0.87405  1.0000
  C   C544      1.0  0.87943  0.40023  0.78576  1.0000
  H   H934      1.0  0.68441  0.00390  0.91824  1.0000
  H   H935      1.0  0.68890  0.07187  0.72665  1.0000
  H   H936      1.0  0.84123  0.44718  0.71389  1.0000
  H   H937      1.0  0.78046  0.09637  0.98248  1.0000
  H   H938      1.0  0.85735  0.42776  0.68293  1.0000
  C   C545      1.0  0.77523  0.16578  0.94823  1.0000
  H   H939      1.0  0.99220  0.40456  0.62898  1.0000
  H   H940      1.0  0.89559  0.40309  0.80068  1.0000
  H   H941      1.0  0.88189  0.38258  0.77430  1.0000
  C   C546      1.0  0.99624  0.38625  0.62702  1.0000
  C   C547      1.0  0.84492  0.42903  0.70571  1.0000
  C   C548      1.0  0.90890  0.31974  0.52069  1.0000
  Fe  Fe80      1.0  0.85730  0.23214  0.95707  1.0000
  H   H942      1.0  0.92392  0.39871  0.75821  1.0000
  H   H943      1.0  0.95494  0.29510  0.98797  1.0000
  H   H944      1.0  0.89890  0.46586  0.74903  1.0000
  H   H945      1.0  0.84517  0.39167  0.80459  1.0000
  S   S158      1.0  0.85220  0.26965  0.94041  1.0000
  C   C549      1.0  0.98404  0.34814  0.61382  1.0000
  C   C550      1.0  0.97196  0.25110  0.94886  1.0000
  H   H946      1.0  0.85592  0.41673  0.82676  1.0000
  H   H947      1.0  0.90157  0.33746  0.51559  1.0000
  H   H948      1.0  0.81119  0.24813  0.90728  1.0000
  H   H949      1.0  0.75740  0.16468  0.95528  1.0000
  C   C551      1.0  0.80968  0.15012  0.91905  1.0000
  C   C552      1.0  0.85235  0.41382  0.73858  1.0000
  S   S159      1.0  0.74171  0.07053  0.95998  1.0000
  C   C553      1.0  0.78698  0.18526  0.95866  1.0000
  N   N40       1.0  0.83026  0.21646  0.83000  1.0000
  C   C554      1.0  0.85469  0.21072  0.81792  1.0000
  C   C555      1.0  0.81904  0.23218  0.80155  1.0000
  C   C556      1.0  0.81827  0.19427  0.83106  1.0000
  C   C557      1.0  0.83065  0.22743  0.86729  1.0000
  C   C558      1.0  0.86821  0.19169  0.83988  1.0000
  C   C559      1.0  0.83174  0.25402  0.79294  1.0000
  C   C560      1.0  0.79293  0.19576  0.84273  1.0000
  C   C561      1.0  0.80993  0.24390  0.87783  1.0000
  H   H950      1.0  0.85526  0.20539  0.78870  1.0000
  H   H951      1.0  0.86497  0.22613  0.81948  1.0000
  H   H952      1.0  0.80125  0.23790  0.80928  1.0000
  H   H953      1.0  0.81731  0.22284  0.77527  1.0000
  H   H954      1.0  0.81935  0.18574  0.80386  1.0000
  H   H955      1.0  0.82677  0.18184  0.85065  1.0000
  H   H956      1.0  0.83255  0.21399  0.88882  1.0000
  H   H957      1.0  0.84594  0.23770  0.87054  1.0000
  H   H958      1.0  0.88688  0.19289  0.83508  1.0000
  H   H959      1.0  0.86522  0.19321  0.86965  1.0000
  H   H960      1.0  0.86380  0.17438  0.83074  1.0000
  H   H961      1.0  0.84708  0.24998  0.77568  1.0000
  H   H962      1.0  0.82025  0.26637  0.77730  1.0000
  H   H963      1.0  0.89248  0.39583  0.71542  1.0000
  C   C562      1.0  0.88818  0.30498  0.52682  1.0000
  H   H964      1.0  0.75071  0.12251  0.98814  1.0000
  H   H965      1.0  0.95662  0.49253  0.62817  1.0000
  C   C563      1.0  0.99123  0.22123  0.98545  1.0000
  H   H966      1.0  0.89343  0.28701  0.53441  1.0000
  H   H967      1.0  0.92743  0.36202  0.50176  1.0000
  H   H968      1.0  0.85159  0.48868  0.56444  1.0000
  C   C564      1.0  0.99279  0.26178  0.94543  1.0000
  H   H969      1.0  0.67381  0.00531  0.79192  1.0000
  C   C565      1.0  0.98694  0.47627  0.65431  1.0000
  H   H970      1.0  0.99309  0.27774  0.93042  1.0000
  H   H971      1.0  0.95266  0.32798  0.51811  1.0000
  H   H972      1.0  0.72621  0.15375  0.99499  1.0000
  H   H973      1.0  0.93742  0.28595  0.52981  1.0000
  H   H974      1.0  0.89205  0.48987  0.55698  1.0000
  H   H975      1.0  0.99139  0.46706  0.62844  1.0000
  C   C566      1.0  0.93425  0.28773  0.49981  1.0000
  Fe  Fe81      1.0  0.89174  0.67776  0.03414  1.0000
  S   S160      1.0  0.87876  0.66514  0.08958  1.0000
  S   S161      1.0  0.90832  0.71148  0.02840  1.0000
  Fe  Fe82      1.0  0.69893  0.86301  0.04887  1.0000
  S   S162      1.0  0.73661  0.86803  0.05434  1.0000
  H   H976      1.0  0.83891  0.55800  0.20984  1.0000
  Fe  Fe83      1.0  0.91756  0.58959  0.27259  1.0000
  S   S163      1.0  0.92640  0.55137  0.27602  1.0000
  S   S164      1.0  0.92773  0.60520  0.21780  1.0000
  Fe  Fe84      1.0  0.90388  0.59154  0.35433  1.0000
  S   S165      1.0  0.91119  0.55386  0.36243  1.0000
  S   S166      1.0  0.89131  0.61199  0.40399  1.0000
  Fe  Fe85      1.0  0.94263  0.55878  0.32962  1.0000
  S   S167      1.0  0.97569  0.54176  0.34988  1.0000
  Fe  Fe86      1.0  0.89411  0.54991  0.30829  1.0000
  H   H977      1.0  0.90178  0.51215  0.24338  1.0000
  S   S168      1.0  0.93675  0.59694  0.32442  1.0000
  S   S169      1.0  0.88377  0.58758  0.30199  1.0000
  C   C567      1.0  0.90142  0.60448  0.44844  1.0000
  Fe  Fe87      1.0  0.73079  0.89416  0.00878  1.0000
  C   C568      1.0  0.84693  0.73607  0.07250  1.0000
  C   C569      1.0  0.83505  0.74385  0.13516  1.0000
  C   C570      1.0  0.92122  0.59007  0.45366  1.0000
  C   C571      1.0  0.79222  0.79344  0.99971  1.0000
  H   H978      1.0  0.93049  0.58307  0.43024  1.0000
  C   C572      1.0  0.92920  0.58491  0.48921  1.0000
  H   H979      1.0  0.67646  0.91313  0.15343  1.0000
  C   C573      1.0  0.66873  0.86795  0.13866  1.0000
  H   H980      1.0  0.97497  0.56110  0.27738  1.0000
  H   H981      1.0  0.97467  0.63009  0.41719  1.0000
  N   N41       1.0  0.68829  0.94217  0.12313  1.0000
  H   H982      1.0  0.72129  0.95205  0.10371  1.0000
  C   C574      1.0  0.88915  0.72527  0.15274  1.0000
  H   H983      1.0  0.89036  0.71023  0.17154  1.0000
  C   C575      1.0  0.67846  0.96626  0.11544  1.0000
  C   C576      1.0  0.89293  0.64888  0.12519  1.0000
  C   C577      1.0  0.91560  0.63990  0.12207  1.0000
  C   C578      1.0  0.92595  0.62685  0.15088  1.0000
  C   C579      1.0  0.91384  0.62257  0.18319  1.0000
  C   C580      1.0  0.89117  0.63160  0.18638  1.0000
  C   C581      1.0  0.88082  0.64467  0.15756  1.0000
  H   H984      1.0  0.92513  0.64292  0.09739  1.0000
  H   H985      1.0  0.94347  0.61992  0.14802  1.0000
  H   H986      1.0  0.88163  0.62856  0.21104  1.0000
  H   H987      1.0  0.86328  0.65153  0.16032  1.0000
  C   C582      1.0  0.87857  0.54646  0.46838  1.0000
  H   H988      1.0  0.86149  0.70629  0.13151  1.0000
  H   H989      1.0  0.90658  0.72609  0.14090  1.0000
  C   C583      1.0  0.88788  0.76346  0.08196  1.0000
  C   C584      1.0  0.68598  0.86567  0.19923  1.0000
  C   C585      1.0  0.68804  0.86392  0.16089  1.0000
  H   H990      1.0  0.97655  0.59923  0.42454  1.0000
  C   C586      1.0  0.85507  0.59226  0.13933  1.0000
  H   H991      1.0  0.87427  0.62459  0.47549  1.0000
  H   H992      1.0  0.70092  0.86201  0.21623  1.0000
  H   H993      1.0  0.70444  0.85886  0.14865  1.0000
  H   H994      1.0  0.82584  0.72776  0.13649  1.0000
  H   H995      1.0  0.82253  0.75734  0.12402  1.0000
  H   H996      1.0  0.88330  0.58240  0.20624  1.0000
  C   C587      1.0  0.67696  0.93205  0.15608  1.0000
  H   H997      1.0  0.90046  0.74874  0.08646  1.0000
  C   C588      1.0  0.66467  0.87150  0.21581  1.0000
  C   C589      1.0  0.71396  0.94254  0.12702  1.0000
  H   H998      1.0  0.83695  0.75142  0.06130  1.0000
  H   H999      1.0  0.83845  0.59736  0.12595  1.0000
  H   H1000     1.0  0.86141  0.73253  0.05321  1.0000
  H   H1001     1.0  0.95679  0.50620  0.30009  1.0000
  H   H1002     1.0  0.89812  0.51947  0.49567  1.0000
  H   H1003     1.0  0.86101  0.49985  0.17770  1.0000
  C   C590      1.0  0.97283  0.61315  0.40430  1.0000
  H   H1004     1.0  0.82284  0.75259  0.18950  1.0000
  C   C591      1.0  0.83959  0.74992  0.17528  1.0000
  H   H1005     1.0  0.89072  0.54410  0.44515  1.0000
  H   H1006     1.0  0.84909  0.73553  0.18971  1.0000
  H   H1007     1.0  0.94461  0.57386  0.49284  1.0000
  H   H1008     1.0  0.87447  0.56525  0.47035  1.0000
  H   H1009     1.0  0.97999  0.62126  0.34844  1.0000
  H   H1010     1.0  0.86862  0.59909  0.12187  1.0000
  S   S170      1.0  0.73734  0.93155  0.02017  1.0000
  H   H1011     1.0  0.92186  0.50476  0.33929  1.0000
  H   H1012     1.0  0.85508  0.60077  0.16631  1.0000
  H   H1013     1.0  0.71881  0.95202  0.15176  1.0000
  H   H1014     1.0  0.88066  0.52432  0.13608  1.0000
  C   C592      1.0  0.92204  0.55425  0.16477  1.0000
  H   H1015     1.0  0.92590  0.53607  0.15686  1.0000
  H   H1016     1.0  0.88225  0.76376  0.05304  1.0000
  H   H1017     1.0  0.87350  0.76877  0.13512  1.0000
  H   H1018     1.0  0.98025  0.72924  0.01493  1.0000
  Fe  Fe88      1.0  0.74270  0.84196  0.00870  1.0000
  C   C593      1.0  0.98786  0.60966  0.36985  1.0000
  C   C594      1.0  0.87153  0.72087  0.12237  1.0000
  H   H1019     1.0  0.71833  0.90621  0.14545  1.0000
  H   H1020     1.0  0.82956  0.71149  0.03955  1.0000
  C   C595      1.0  0.99246  0.55589  0.28458  1.0000
  H   H1021     1.0  0.88523  0.74058  0.16976  1.0000
  H   H1022     1.0  0.86298  0.53762  0.46112  1.0000
  H   H1023     1.0  0.72954  0.91167  0.10052  1.0000
  H   H1024     1.0  0.89693  0.77942  0.08626  1.0000
  H   H1025     1.0  0.84163  0.52386  0.16801  1.0000
  N   N42       1.0  0.85565  0.74092  0.11039  1.0000
  C   C596      1.0  0.86727  0.76326  0.10824  1.0000
  H   H1026     1.0  0.83936  0.69974  0.08209  1.0000
  H   H1027     1.0  0.85475  0.77747  0.09950  1.0000
  H   H1028     1.0  0.69960  0.98545  0.15387  1.0000
  S   S171      1.0  0.66956  0.86382  0.09061  1.0000
  H   H1029     1.0  0.98543  0.59207  0.35940  1.0000
  H   H1030     1.0  0.85398  0.56029  0.25133  1.0000
  H   H1031     1.0  0.84660  0.58564  0.22620  1.0000
  C   C597      1.0  0.88954  0.61334  0.47925  1.0000
  N   N43       1.0  0.87751  0.55640  0.16577  1.0000
  C   C598      1.0  0.89917  0.56406  0.14819  1.0000
  C   C599      1.0  0.85776  0.56582  0.14248  1.0000
  C   C600      1.0  0.87857  0.53049  0.16475  1.0000
  C   C601      1.0  0.87641  0.56505  0.20462  1.0000
  H   H1032     1.0  0.92246  0.55594  0.19484  1.0000
  H   H1033     1.0  0.72554  0.98001  0.02454  1.0000
  H   H1034     1.0  0.84832  0.76609  0.17840  1.0000
  C   C602      1.0  0.85251  0.56727  0.22310  1.0000
  H   H1035     1.0  0.89962  0.55980  0.11852  1.0000
  H   H1036     1.0  0.89979  0.58305  0.14959  1.0000
  H   H1037     1.0  0.84108  0.56008  0.15188  1.0000
  H   H1038     1.0  0.85945  0.55896  0.11414  1.0000
  H   H1039     1.0  0.69030  0.95405  0.19995  1.0000
  H   H1040     1.0  0.93621  0.56414  0.15392  1.0000
  H   H1041     1.0  0.88779  0.55388  0.22250  1.0000
  H   H1042     1.0  0.81420  0.71970  0.07977  1.0000
  C   C603      1.0  0.83168  0.71552  0.06892  1.0000
  C   C604      1.0  0.72712  0.91874  0.12848  1.0000
  C   C605      1.0  0.68362  0.92776  0.09002  1.0000
  H   H1043     1.0  0.88183  0.71414  0.09871  1.0000
  S   S172      1.0  0.86993  0.52153  0.30279  1.0000
  H   H1044     1.0  0.74450  0.92049  0.13999  1.0000
  H   H1045     1.0  0.89375  0.52308  0.17994  1.0000
  H   H1046     1.0  0.98993  0.68216  0.06782  1.0000
  H   H1047     1.0  0.95449  0.61244  0.39662  1.0000
  C   C606      1.0  0.68154  0.98430  0.14536  1.0000
  H   H1048     1.0  0.67645  0.92944  0.21532  1.0000
  H   H1049     1.0  0.99107  0.61634  0.48718  1.0000
  C   C607      1.0  0.68791  0.93582  0.19383  1.0000
  H   H1050     1.0  0.67043  0.98134  0.16928  1.0000
  H   H1051     1.0  0.69013  0.90959  0.09426  1.0000
  S   S173      1.0  0.69310  0.88993  0.00540  1.0000
  H   H1052     1.0  0.85702  0.52148  0.21137  1.0000
  S   S174      1.0  0.76438  0.80719  0.00837  1.0000
  H   H1053     1.0  0.68588  0.97291  0.08971  1.0000
  H   H1054     1.0  0.69297  0.93389  0.06566  1.0000
  H   H1055     1.0  0.70455  0.92578  0.19686  1.0000
  C   C608      1.0  0.85815  0.51872  0.18144  1.0000
  S   S175      1.0  0.70500  0.83529  0.00687  1.0000
  C   C609      1.0  0.99593  0.72135  0.00368  1.0000
  H   H1056     1.0  0.66679  0.82006  0.24010  1.0000
  H   H1057     1.0  0.77996  0.75945  0.00427  1.0000
  H   H1058     1.0  0.94742  0.50142  0.36577  1.0000
  C   C610      1.0  0.79480  0.76922  0.99947  1.0000
  S   S176      1.0  0.91571  0.65999  0.99412  1.0000
  H   H1059     1.0  0.97551  0.57016  0.56530  1.0000
  C   C611      1.0  0.67888  0.95709  0.70423  1.0000
  H   H1060     1.0  0.99100  0.64100  0.83469  1.0000
  H   H1061     1.0  0.98940  0.59645  0.63599  1.0000
  H   H1062     1.0  0.98676  0.67519  0.89823  1.0000
  Fe  Fe89      1.0  0.89067  0.67103  0.94969  1.0000
  S   S177      1.0  0.88692  0.64227  0.90776  1.0000
  S   S178      1.0  0.90628  0.70466  0.93947  1.0000
  Fe  Fe90      1.0  0.70198  0.86275  0.96389  1.0000
  S   S179      1.0  0.73964  0.86871  0.96338  1.0000
  N   N44       1.0  0.67648  0.94506  0.90563  1.0000
  H   H1063     1.0  0.93658  0.69746  0.82299  1.0000
  H   H1064     1.0  0.71209  0.87140  0.86766  1.0000
  C   C612      1.0  0.98653  0.61107  0.54524  1.0000
  C   C613      1.0  0.84777  0.56082  0.57706  1.0000
  H   H1065     1.0  0.84813  0.80366  0.98231  1.0000
  H   H1066     1.0  0.99408  0.50882  0.70888  1.0000
  Fe  Fe91      1.0  0.91377  0.58594  0.62240  1.0000
  S   S180      1.0  0.92132  0.55038  0.64438  1.0000
  S   S181      1.0  0.92788  0.58554  0.56395  1.0000
  Fe  Fe92      1.0  0.89694  0.60268  0.69935  1.0000
  S   S182      1.0  0.90280  0.56772  0.72500  1.0000
  S   S183      1.0  0.88625  0.63471  0.73293  1.0000
  Fe  Fe93      1.0  0.93568  0.56659  0.69355  1.0000
  S   S184      1.0  0.96929  0.55139  0.71464  1.0000
  Fe  Fe94      1.0  0.88772  0.55463  0.67314  1.0000
  S   S185      1.0  0.86482  0.52495  0.66753  1.0000
  S   S186      1.0  0.93100  0.60203  0.67017  1.0000
  S   S187      1.0  0.87890  0.58968  0.64900  1.0000
  C   C614      1.0  0.81636  0.75745  0.99300  1.0000
  N   N45       1.0  0.95699  0.65348  0.85140  1.0000
  H   H1067     1.0  0.79460  0.78601  0.88112  1.0000
  C   C615      1.0  0.85708  0.51822  0.52863  1.0000
  H   H1068     1.0  0.78953  0.83332  0.91359  1.0000
  H   H1069     1.0  0.78067  0.82722  0.86876  1.0000
  C   C616      1.0  0.89721  0.60769  0.51491  1.0000
  C   C617      1.0  0.74572  0.94934  0.95132  1.0000
  H   H1070     1.0  0.91113  0.50994  0.68722  1.0000
  H   H1071     1.0  0.84320  0.52673  0.51158  1.0000
  C   C618      1.0  0.84555  0.50706  0.56178  1.0000
  H   H1072     1.0  0.96667  0.61799  0.86556  1.0000
  C   C619      1.0  0.98209  0.65694  0.84564  1.0000
  C   C620      1.0  0.95396  0.62845  0.79323  1.0000
  H   H1073     1.0  0.92737  0.65072  0.81668  1.0000
  H   H1074     1.0  0.87819  0.57064  0.54980  1.0000
  H   H1075     1.0  0.70454  0.92366  0.84812  1.0000
  H   H1076     1.0  0.96471  0.60103  0.60830  1.0000
  C   C621      1.0  0.88651  0.64093  0.85907  1.0000
  C   C622      1.0  0.89081  0.61944  0.84217  1.0000
  C   C623      1.0  0.89096  0.61730  0.80378  1.0000
  C   C624      1.0  0.88630  0.63660  0.78159  1.0000
  C   C625      1.0  0.88172  0.65810  0.79846  1.0000
  C   C626      1.0  0.88202  0.66032  0.83694  1.0000
  H   H1077     1.0  0.89415  0.60429  0.85892  1.0000
  H   H1078     1.0  0.89442  0.60064  0.79139  1.0000
  H   H1079     1.0  0.87802  0.67316  0.78163  1.0000
  H   H1080     1.0  0.87850  0.67696  0.84942  1.0000
  C   C627      1.0  0.94629  0.65054  0.81427  1.0000
  C   C628      1.0  0.98397  0.59512  0.71385  1.0000
  H   H1081     1.0  0.84251  0.57930  0.58097  1.0000
  H   H1082     1.0  0.85556  0.55478  0.60315  1.0000
  H   H1083     1.0  0.71800  0.79704  0.82178  1.0000
  H   H1084     1.0  0.69856  0.79623  0.86039  1.0000
  S   S188      1.0  0.86490  0.68611  0.99070  1.0000
  H   H1085     1.0  0.95451  0.61661  0.92767  1.0000
  C   C629      1.0  0.95375  0.63196  0.87340  1.0000
  H   H1086     1.0  0.71081  0.87884  0.80059  1.0000
  C   C630      1.0  0.73972  0.99021  0.93594  1.0000
  H   H1087     1.0  0.76385  0.84805  0.89517  1.0000
  C   C631      1.0  0.69633  0.86990  0.85268  1.0000
  C   C632      1.0  0.83591  0.76968  0.98721  1.0000
  H   H1088     1.0  0.78997  0.76549  0.84636  1.0000
  H   H1089     1.0  0.77825  0.76138  0.89074  1.0000
  H   H1090     1.0  0.69913  0.82126  0.83262  1.0000
  H   H1091     1.0  0.84771  0.51557  0.58831  1.0000
  H   H1092     1.0  0.68749  0.90851  0.90589  1.0000
  C   C633      1.0  0.67311  0.98930  0.91620  1.0000
  S   S189      1.0  0.96921  0.68838  0.97252  1.0000
  S   S190      1.0  0.67655  0.85717  0.91825  1.0000
  C   C634      1.0  0.88066  0.49852  0.66185  1.0000
  N   N46       1.0  0.87518  0.53486  0.53670  1.0000
  H   H1093     1.0  0.75330  0.96418  0.89889  1.0000
  H   H1094     1.0  0.94944  0.61266  0.80779  1.0000
  C   C635      1.0  0.67750  0.98194  0.71863  1.0000
  H   H1095     1.0  0.72285  0.94059  0.87551  1.0000
  C   C636      1.0  0.74687  0.96758  0.92615  1.0000
  S   S191      1.0  0.67491  0.87677  0.74697  1.0000
  H   H1096     1.0  0.66891  0.95545  0.67872  1.0000
  H   H1097     1.0  0.75138  0.93205  0.94346  1.0000
  H   H1098     1.0  0.92584  0.67067  0.87230  1.0000
  C   C637      1.0  0.91713  0.59345  0.52003  1.0000
  C   C638      1.0  0.71254  0.92535  0.87531  1.0000
  H   H1099     1.0  0.67321  0.94478  0.72500  1.0000
  H   H1100     1.0  0.96379  0.70158  0.84559  1.0000
  C   C639      1.0  0.99512  0.70171  0.98197  1.0000
  C   C640      1.0  0.67518  0.87197  0.79480  1.0000
  C   C641      1.0  0.68842  0.96682  0.91312  1.0000
  C   C642      1.0  0.73189  0.99454  0.97151  1.0000
  H   H1101     1.0  0.70431  0.92549  0.93284  1.0000
  H   H1102     1.0  0.96981  0.64214  0.92557  1.0000
  H   H1103     1.0  0.90395  0.54002  0.57212  1.0000
  H   H1104     1.0  0.95023  0.67659  0.89760  1.0000
  H   H1105     1.0  0.93727  0.71080  0.86659  1.0000
  C   C643      1.0  0.90361  0.50353  0.56387  1.0000
  N   N47       1.0  0.74538  0.79993  0.88676  1.0000
  C   C644      1.0  0.73355  0.78169  0.90750  1.0000
  C   C645      1.0  0.75977  0.78828  0.85712  1.0000
  C   C646      1.0  0.72831  0.81714  0.86949  1.0000
  C   C647      1.0  0.75991  0.81246  0.91304  1.0000
  C   C648      1.0  0.71610  0.79035  0.93673  1.0000
  C   C649      1.0  0.78180  0.77460  0.87006  1.0000
  C   C650      1.0  0.71013  0.80698  0.84480  1.0000
  C   C651      1.0  0.77409  0.83137  0.89640  1.0000
  H   H1106     1.0  0.72453  0.77039  0.88857  1.0000
  H   H1107     1.0  0.74633  0.77003  0.92210  1.0000
  H   H1108     1.0  0.76483  0.80079  0.83606  1.0000
  H   H1109     1.0  0.74964  0.77597  0.84173  1.0000
  H   H1110     1.0  0.71915  0.82793  0.89060  1.0000
  H   H1111     1.0  0.73723  0.82961  0.85235  1.0000
  H   H1112     1.0  0.74898  0.82126  0.93422  1.0000
  H   H1113     1.0  0.77150  0.80043  0.92920  1.0000
  H   H1114     1.0  0.70758  0.77544  0.94816  1.0000
  H   H1115     1.0  0.72473  0.79833  0.95995  1.0000
  H   H1116     1.0  0.70236  0.80242  0.92577  1.0000
  C   C652      1.0  0.94581  0.69708  0.84947  1.0000
  C   C653      1.0  0.81164  0.80569  0.99299  1.0000
  H   H1117     1.0  0.96770  0.60917  0.54369  1.0000
  C   C654      1.0  0.98193  0.63137  0.62150  1.0000
  H   H1118     1.0  0.97035  0.63419  0.64533  1.0000
  C   C655      1.0  0.94435  0.67387  0.86926  1.0000
  H   H1119     1.0  0.68942  0.98212  0.74233  1.0000
  H   H1120     1.0  0.82678  0.50712  0.55692  1.0000
  H   H1121     1.0  0.94464  0.62855  0.76674  1.0000
  H   H1122     1.0  0.91754  0.50388  0.54337  1.0000
  H   H1123     1.0  0.94972  0.66509  0.79579  1.0000
  C   C656      1.0  0.98276  0.60575  0.61139  1.0000
  H   H1124     1.0  0.96699  0.60078  0.72302  1.0000
  C   C657      1.0  0.89074  0.52731  0.56794  1.0000
  H   H1125     1.0  0.97252  0.62749  0.78678  1.0000
  H   H1126     1.0  0.72489  0.91026  0.87903  1.0000
  C   C658      1.0  0.69556  0.87405  0.81470  1.0000
  C   C659      1.0  0.95449  0.63403  0.91536  1.0000
  Fe  Fe95      1.0  0.88213  0.71930  0.98354  1.0000
  H   H1127     1.0  0.93669  0.62526  0.86743  1.0000
  H   H1128     1.0  0.98476  0.66985  0.82384  1.0000
  H   H1129     1.0  0.88160  0.52716  0.59427  1.0000
  C   C660      1.0  0.86454  0.55856  0.54469  1.0000
  S   S192      1.0  0.86399  0.75584  0.98081  1.0000
  H   H1130     1.0  0.97479  0.64273  0.59948  1.0000
  H   H1131     1.0  0.69833  0.96512  0.93905  1.0000
  H   H1132     1.0  0.88787  0.61460  0.53834  1.0000
  H   H1133     1.0  0.85449  0.56561  0.52100  1.0000
  H   H1134     1.0  0.98729  0.55870  0.62702  1.0000
  H   H1135     1.0  0.93887  0.64374  0.92563  1.0000
  H   H1136     1.0  0.68521  0.99302  0.69775  1.0000
  C   C661      1.0  0.83327  0.79389  0.98698  1.0000
  H   H1137     1.0  0.83186  0.55205  0.57156  1.0000
  H   H1138     1.0  0.70107  0.97017  0.89140  1.0000
  C   C662      1.0  0.69474  0.92554  0.90646  1.0000
  C   C663      1.0  0.67676  0.86328  0.87090  1.0000
  C   C664      1.0  0.98996  0.57163  0.71015  1.0000
  H   H1139     1.0  0.91192  0.49867  0.59033  1.0000
  H   H1140     1.0  0.69701  0.95184  0.69764  1.0000
  Fe  Fe96      1.0  0.93080  0.69412  0.98501  1.0000
  H   H1141     1.0  0.86452  0.50370  0.51180  1.0000
  H   H1142     1.0  0.66892  0.94238  0.96322  1.0000
  H   H1143     1.0  0.81783  0.73889  0.99251  1.0000
  H   H1144     1.0  0.96387  0.50616  0.66980  1.0000
  H   H1145     1.0  0.98807  0.62983  0.54707  1.0000
  H   H1146     1.0  0.67550  0.95608  0.84922  1.0000
  H   H1147     1.0  0.99510  0.62949  0.70740  1.0000
  C   C665      1.0  0.99362  0.57316  0.57245  1.0000
  C   C666      1.0  0.89027  0.53664  0.50341  1.0000
  C   C667      1.0  0.73798  0.95369  0.98693  1.0000
  C   C668      1.0  0.99617  0.66335  0.87926  1.0000
  C   C669      1.0  0.73130  0.97640  0.99697  1.0000
  H   H1148     1.0  0.81011  0.82426  0.99289  1.0000
  H   H1149     1.0  0.90491  0.54735  0.50939  1.0000
  C   C670      1.0  0.99674  0.60341  0.50814  1.0000
  N   N48       1.0  0.99654  0.59847  0.57815  1.0000
  C   C671      1.0  0.66438  0.94765  0.86930  1.0000
  H   H1150     1.0  0.66568  0.92278  0.82414  1.0000
  H   H1151     1.0  0.98011  0.51050  0.62859  1.0000
  C   C672      1.0  0.97125  0.49778  0.64491  1.0000
  H   H1152     1.0  0.99018  0.58682  0.49946  1.0000
