data_image0
_chemical_formula_structural       FeS2FeS2FeSFeS3FeS2FeS2FeSFeS3FeS2FeS2FeSFeS3FeS2FeS2FeSFeS3CHCH3C2HC7H4C2H4CH3CH2C2H5C6H4C6H4C3H2C2H4CHCH3CHNH2CH4C4H5CH4CHCNC8H20NC8H20NC5H2CH4CH9CH5CHC6HNC6H12C2H2C3HCHCH4CH2CHCH8CH2CH2NH2CH4CH5NH3CH9CHC2HCHCHC3H3CHCH2CH3C2H4CFeS2FeS2FeSFeHS2FeS2FeS2FeSFeS3FeS2FeS2FeSFeS3FeS2FeS2FeSFeS3HC2H2C2H4C2H2C2H3C6H4CHC3H4C7H4CH3C4H2C6H4CHCHCHC5HC2H9C4H2CH3NC6H13NC8H20CHCNCHCH2C4HCH5CHNH6NC6HCH21NC7H20CH4SCHCH3CH4C2HC2H3CHNH2CHC2H6CHCH3C2H3CHCFeS2FeS2FeSFeS3FeS2FeS2FeSFeS3FeS2FeS2FeSFeS3FeS2FeS2FeSFeS3CH3C3H3CH4C2H3C6H4CHCH2C3H2C6H4C6H4C3H2CH6C5H2NC4H5CNC4H11NC5H2CH2NCH14C2H3CH3CH18CH2CHCH5CH2CNH3C2HC3HC3H8C3H2CH9CH2C3H3C2HCH2C2NC3H5CH2CHC3H3C2HCH5NHCHCHCH2CH3CH4C2HCH9C4H2CHCH3CH2C4H4CHNCFeS2FeS2FeSFeS3FeS2FeS2FeSFeS3FeS2FeS2FeSFeS3FeS2FeS2FeSFeS3CH3C2H4C3H2C2HCHCHC2H3CH2C6H4C6H9CHCH2C6H6C4H4C5H5CH6CHC2H4C3H3CH2C2H3CH2C2H2CH2CH8NHCH3C2H2CH2C2HNC3H2C2HCH2C3H4CH5C2H10CH3CNHCH3CHCHCNC2H4CH3CHC2HC3H12C2H3CH3NC8H20C2HC3H2NC8H11NH6CH4CH6C2HCHNC2H3NCH4CH5CFeS2FeS2FeSFeS3FeS2FeSHFeSFeS3FeS2FeS2FeSFeS3FeS2FeS2FeSFeS3C6H4C3H2C2H3CH4CH2CHC3H2C3H5C6H5CH3C6H4C2H3C3H3C2H5CH2CH3CH4C2H5CHCHC2HC2H2C2HC2HNH2CH5C2H3CNC2H4C2H2CH4CH8CHC2H3C2HCH2CH2CH5CH3CNCNC2H3C2HC3H4CHCH2NH2C2NHCH3SCHC2H6CH2CNHNC8H20NC2H12CH10FeS2FeS2FeSFeS3FeS2FeS2FeSFeS3FeS2FeS2FeSFeS3FeS2FeS2FeSFeS3CH4C3H2C6H5CHC4H2C4H2C3H2CH2C3H2C6H14C6H5NCHC3NCH2C3H6C5H5NH2CH2C3H3CH5CH2C3NH9CHC2H3C3H3NHC3H2NC3HCHCH10C3H3C3H5CHCHNC8H22CH7CH4C3H3CH8C2H2C2H4CH4CH5C2H9C2H3C2H4CNH4C3H3CFeS2FeS2FeSFeS3FeS2FeS2FeSFeS3FeS2FeS2FeSFeS3FeSHFeS2FeCFeS3H5C6H6C2HC3H2CH2C3H4C6H4C6H4CH4C3H2C6HC3H2CH2CH12CHC3H3CHCHNH3SH8CNC8H20NC8H21CHC2HCH2NCH2CH2CH2CHCH3C2HC2H2NCHCH4CNCH3C2HCH3CH2CHCH3CHNHCH8C2HCSH4C2HCHCH5CH3CH3CHCHCH3C2HC3H2CH2NH2CFeS2FeS2FeSFeS3FeS2FeS2FeSFeS3FeS2FeS2FeSFeS3FeS2FeS2FeSFeS3CH4C2H3CH4C6H4C2HC3H4C3H2C6H6C9H4C3H5C2H3NCH2CH9CHCHCH4NC2HCNC8H20CH4NHCH2CHNC2HCH2C2HCHCHCHCHCHCH2CHCH2CH2CH3C2H6CHCNHCHCHCH2C2HCHCH2CHCH18CH6C2HC2H7CHCHNC5HCH10CHC2HC2H6CH3C3H6CH6CH4NH2CH
_chemical_formula_sum              "Fe128 S256 C896 H1536 N64"
_cell_length_a       67.8444
_cell_length_b       67.7354
_cell_length_c       42.9456
_cell_angle_alpha    89.9016
_cell_angle_beta     89.993
_cell_angle_gamma    83.9836

_space_group_name_H-M_alt    "P 1"
_space_group_IT_number       1

loop_
  _space_group_symop_operation_xyz
  'x, y, z'

loop_
  _atom_site_type_symbol
  _atom_site_label
  _atom_site_symmetry_multiplicity
  _atom_site_fract_x
  _atom_site_fract_y
  _atom_site_fract_z
  _atom_site_occupancy
  Fe  Fe1       1.0  0.40857  0.07103  0.40201  1.0000
  S   S1        1.0  0.41260  0.08502  0.35489  1.0000
  S   S2        1.0  0.39421  0.09054  0.44042  1.0000
  Fe  Fe2       1.0  0.42751  0.03122  0.38073  1.0000
  S   S3        1.0  0.43311  0.04192  0.33254  1.0000
  S   S4        1.0  0.43987  0.00020  0.39336  1.0000
  Fe  Fe3       1.0  0.44325  0.06840  0.35667  1.0000
  S   S5        1.0  0.47094  0.08294  0.34372  1.0000
  Fe  Fe4       1.0  0.40183  0.05727  0.33461  1.0000
  S   S6        1.0  0.38289  0.05177  0.29126  1.0000
  S   S7        1.0  0.43970  0.05652  0.40478  1.0000
  S   S8        1.0  0.39572  0.04451  0.38175  1.0000
  Fe  Fe5       1.0  0.26792  0.06820  0.13063  1.0000
  S   S9        1.0  0.23520  0.06630  0.13550  1.0000
  S   S10       1.0  0.28470  0.07138  0.08518  1.0000
  Fe  Fe6       1.0  0.27442  0.07315  0.20141  1.0000
  S   S11       1.0  0.24171  0.07245  0.21064  1.0000
  S   S12       1.0  0.29495  0.08020  0.24193  1.0000
  Fe  Fe7       1.0  0.24420  0.04662  0.17688  1.0000
  S   S13       1.0  0.22987  0.01894  0.19141  1.0000
  Fe  Fe8       1.0  0.23513  0.09222  0.16859  1.0000
  S   S14       1.0  0.21723  0.12300  0.16101  1.0000
  S   S15       1.0  0.27709  0.04662  0.16956  1.0000
  S   S16       1.0  0.26777  0.09472  0.16193  1.0000
  Fe  Fe9       1.0  0.10391  0.41195  0.33911  1.0000
  S   S17       1.0  0.08600  0.40846  0.38208  1.0000
  S   S18       1.0  0.11985  0.43998  0.33462  1.0000
  Fe  Fe10      1.0  0.09659  0.36986  0.31403  1.0000
  S   S19       1.0  0.07866  0.36393  0.35657  1.0000
  S   S20       1.0  0.09609  0.34973  0.27051  1.0000
  Fe  Fe11      1.0  0.06472  0.39527  0.35057  1.0000
  S   S21       1.0  0.03254  0.40617  0.35745  1.0000
  Fe  Fe12      1.0  0.10163  0.37777  0.38444  1.0000
  S   S22       1.0  0.11396  0.36521  0.43042  1.0000
  S   S23       1.0  0.08126  0.40100  0.30694  1.0000
  S   S24       1.0  0.12104  0.38148  0.34255  1.0000
  Fe  Fe13      1.0  0.10842  0.23478  0.11457  1.0000
  S   S25       1.0  0.09212  0.20772  0.12011  1.0000
  S   S26       1.0  0.11875  0.24808  0.06940  1.0000
  Fe  Fe14      1.0  0.11016  0.24237  0.18540  1.0000
  S   S27       1.0  0.09441  0.21544  0.19569  1.0000
  S   S28       1.0  0.12229  0.26069  0.22480  1.0000
  Fe  Fe15      1.0  0.11419  0.19951  0.15897  1.0000
  S   S29       1.0  0.12851  0.16740  0.16673  1.0000
  Fe  Fe16      1.0  0.07383  0.22570  0.15622  1.0000
  S   S30       1.0  0.04029  0.23374  0.16151  1.0000
  S   S31       1.0  0.13128  0.22571  0.15143  1.0000
  S   S32       1.0  0.08889  0.25343  0.14786  1.0000
  C   C1        1.0  0.01950  0.22003  0.15771  1.0000
  H   H1        1.0  0.44303  0.10010  0.40475  1.0000
  C   C2        1.0  0.02122  0.20013  0.14842  1.0000
  H   H2        1.0  0.23965  0.12413  0.01620  1.0000
  H   H3        1.0  0.03572  0.19247  0.14374  1.0000
  H   H4        1.0  0.03970  0.39748  0.42459  1.0000
  C   C3        1.0  0.23537  0.99433  0.17719  1.0000
  C   C4        1.0  0.11620  0.24983  0.00535  1.0000
  H   H5        1.0  0.03965  0.36478  0.33990  1.0000
  C   C5        1.0  0.08136  0.48659  0.36429  1.0000
  C   C6        1.0  0.10180  0.32389  0.26190  1.0000
  C   C7        1.0  0.09084  0.31525  0.23862  1.0000
  C   C8        1.0  0.09626  0.29564  0.22807  1.0000
  C   C9        1.0  0.11311  0.28448  0.24012  1.0000
  C   C10       1.0  0.12382  0.29296  0.26387  1.0000
  C   C11       1.0  0.11818  0.31244  0.27481  1.0000
  H   H6        1.0  0.07816  0.32391  0.22841  1.0000
  H   H7        1.0  0.08771  0.28938  0.21002  1.0000
  H   H8        1.0  0.13687  0.28456  0.27346  1.0000
  H   H9        1.0  0.12695  0.31886  0.29242  1.0000
  C   C12       1.0  0.09435  0.22877  0.03054  1.0000
  C   C13       1.0  0.10908  0.24168  0.03279  1.0000
  H   H10       1.0  0.99195  0.40524  0.37508  1.0000
  H   H11       1.0  0.08869  0.22243  0.05142  1.0000
  H   H12       1.0  0.19878  0.07676  0.08402  1.0000
  H   H13       1.0  0.02153  0.26946  0.23111  1.0000
  C   C14       1.0  0.99390  0.28121  0.25334  1.0000
  H   H14       1.0  0.99734  0.48967  0.33921  1.0000
  H   H15       1.0  0.39992  0.00898  0.41668  1.0000
  H   H16       1.0  0.24603  0.00960  0.01802  1.0000
  C   C15       1.0  0.02488  0.36757  0.34914  1.0000
  H   H17       1.0  0.00694  0.18423  0.07462  1.0000
  H   H18       1.0  0.43237  0.13883  0.44206  1.0000
  C   C16       1.0  0.10914  0.46398  0.34587  1.0000
  C   C17       1.0  0.08936  0.46740  0.35534  1.0000
  H   H19       1.0  0.02368  0.32439  0.42438  1.0000
  H   H20       1.0  0.13347  0.35234  0.17044  1.0000
  H   H21       1.0  0.01508  0.46423  0.37658  1.0000
  H   H22       1.0  0.08018  0.45526  0.35557  1.0000
  H   H23       1.0  0.45200  0.07374  0.46360  1.0000
  C   C18       1.0  0.15327  0.15532  0.16398  1.0000
  C   C19       1.0  0.15677  0.13494  0.17125  1.0000
  C   C20       1.0  0.17610  0.12480  0.17056  1.0000
  C   C21       1.0  0.19237  0.13492  0.16271  1.0000
  C   C22       1.0  0.18889  0.15533  0.15552  1.0000
  C   C23       1.0  0.16952  0.16544  0.15596  1.0000
  H   H24       1.0  0.14439  0.12689  0.17753  1.0000
  H   H25       1.0  0.17840  0.10915  0.17615  1.0000
  H   H26       1.0  0.20129  0.16340  0.14945  1.0000
  H   H27       1.0  0.16721  0.18109  0.15038  1.0000
  C   C24       1.0  0.35802  0.05931  0.27902  1.0000
  C   C25       1.0  0.35050  0.05019  0.25267  1.0000
  C   C26       1.0  0.33109  0.05586  0.24160  1.0000
  C   C27       1.0  0.31900  0.07110  0.25631  1.0000
  C   C28       1.0  0.32648  0.08010  0.28276  1.0000
  C   C29       1.0  0.34575  0.07417  0.29420  1.0000
  H   H28       1.0  0.35980  0.03869  0.24066  1.0000
  H   H29       1.0  0.32556  0.04855  0.22158  1.0000
  H   H30       1.0  0.31732  0.09188  0.29443  1.0000
  H   H31       1.0  0.35122  0.08137  0.31444  1.0000
  C   C30       1.0  0.28350  0.07450  0.02129  1.0000
  C   C31       1.0  0.27434  0.06763  0.04803  1.0000
  C   C32       1.0  0.25718  0.05807  0.04463  1.0000
  H   H32       1.0  0.33833  0.01281  0.35361  1.0000
  H   H33       1.0  0.25009  0.05254  0.06496  1.0000
  C   C33       1.0  0.46810  0.07516  0.46456  1.0000
  C   C34       1.0  0.12830  0.34244  0.18857  1.0000
  H   H34       1.0  0.00351  0.47360  0.30777  1.0000
  H   H35       1.0  0.08240  0.45316  0.46190  1.0000
  H   H36       1.0  0.22398  0.00470  0.99815  1.0000
  H   H37       1.0  0.00671  0.18895  0.03310  1.0000
  C   C35       1.0  0.34896  0.02050  0.33963  1.0000
  H   H38       1.0  0.11242  0.34678  0.19384  1.0000
  C   C36       1.0  0.08997  0.39076  0.46778  1.0000
  H   H39       1.0  0.46553  0.13689  0.46189  1.0000
  H   H40       1.0  0.06610  0.36404  0.43774  1.0000
  H   H41       1.0  0.34301  0.02371  0.31590  1.0000
  C   C37       1.0  0.14038  0.45340  0.42440  1.0000
  H   H42       1.0  0.17488  0.14222  0.07024  1.0000
  N   N1        1.0  0.46500  0.10939  0.43657  1.0000
  H   H43       1.0  0.29683  0.08184  0.02367  1.0000
  H   H44       1.0  0.15343  0.41796  0.39449  1.0000
  C   C38       1.0  0.43134  0.12865  0.42214  1.0000
  H   H45       1.0  0.10084  0.42748  0.43913  1.0000
  H   H46       1.0  0.40685  0.00351  0.29668  1.0000
  H   H47       1.0  0.15289  0.41699  0.45126  1.0000
  H   H48       1.0  0.13649  0.34512  0.21033  1.0000
  C   C39       1.0  0.02835  0.39650  0.44296  1.0000
  C   C40       1.0  0.36976  0.00878  0.33918  1.0000
  C   C41       1.0  0.00408  0.19016  0.14509  1.0000
  C   C42       1.0  0.01306  0.35189  0.35177  1.0000
  H   H49       1.0  0.00756  0.21817  0.01463  1.0000
  H   H50       1.0  0.03244  0.22893  0.08767  1.0000
  H   H51       1.0  0.13614  0.47750  0.33834  1.0000
  H   H52       1.0  0.14476  0.39514  0.40644  1.0000
  H   H53       1.0  0.12451  0.46082  0.48279  1.0000
  C   C43       1.0  0.01740  0.38677  0.35790  1.0000
  H   H54       1.0  0.02672  0.41110  0.45493  1.0000
  H   H55       1.0  0.19191  0.09118  0.05103  1.0000
  H   H56       1.0  0.37993  0.01956  0.33122  1.0000
  H   H57       1.0  0.48226  0.11709  0.47629  1.0000
  C   C44       1.0  0.05936  0.33626  0.41772  1.0000
  H   H58       1.0  0.11926  0.47982  0.41597  1.0000
  C   C45       1.0  0.10520  0.37523  0.46649  1.0000
  N   N2        1.0  0.15649  0.18337  0.25350  1.0000
  C   C46       1.0  0.14290  0.16713  0.25084  1.0000
  C   C47       1.0  0.17683  0.17461  0.24324  1.0000
  C   C48       1.0  0.14885  0.20018  0.23202  1.0000
  C   C49       1.0  0.15609  0.19017  0.28693  1.0000
  C   C50       1.0  0.12050  0.17358  0.25455  1.0000
  C   C51       1.0  0.18631  0.15691  0.26260  1.0000
  C   C52       1.0  0.16382  0.21435  0.22095  1.0000
  C   C53       1.0  0.17052  0.20525  0.29632  1.0000
  H   H59       1.0  0.14483  0.15953  0.22793  1.0000
  H   H60       1.0  0.14662  0.15532  0.26855  1.0000
  H   H61       1.0  0.18768  0.18574  0.24293  1.0000
  H   H62       1.0  0.17628  0.16950  0.21867  1.0000
  H   H63       1.0  0.14289  0.19423  0.21019  1.0000
  H   H64       1.0  0.13614  0.20951  0.24280  1.0000
  H   H65       1.0  0.14111  0.19742  0.29301  1.0000
  H   H66       1.0  0.15816  0.17742  0.30343  1.0000
  H   H67       1.0  0.11235  0.16023  0.25273  1.0000
  H   H68       1.0  0.11679  0.18044  0.27748  1.0000
  H   H69       1.0  0.11472  0.18372  0.23563  1.0000
  H   H70       1.0  0.18762  0.16071  0.28755  1.0000
  H   H71       1.0  0.17820  0.14361  0.25992  1.0000
  H   H72       1.0  0.20156  0.15259  0.25377  1.0000
  H   H73       1.0  0.15563  0.22735  0.20924  1.0000
  H   H74       1.0  0.17419  0.20702  0.20344  1.0000
  H   H75       1.0  0.17229  0.22029  0.24007  1.0000
  H   H76       1.0  0.16386  0.22070  0.29191  1.0000
  H   H77       1.0  0.18516  0.20278  0.28491  1.0000
  H   H78       1.0  0.17380  0.20364  0.32160  1.0000
  N   N3        1.0  0.33617  0.09167  0.15250  1.0000
  C   C54       1.0  0.34470  0.07013  0.15193  1.0000
  C   C55       1.0  0.35329  0.10408  0.14980  1.0000
  C   C56       1.0  0.32242  0.09521  0.12491  1.0000
  C   C57       1.0  0.32499  0.09521  0.18265  1.0000
  C   C58       1.0  0.32959  0.05468  0.14890  1.0000
  C   C59       1.0  0.36840  0.10192  0.17680  1.0000
  C   C60       1.0  0.31784  0.11673  0.11323  1.0000
  C   C61       1.0  0.31686  0.11672  0.19058  1.0000
  H   H79       1.0  0.35536  0.06734  0.13226  1.0000
  H   H80       1.0  0.35328  0.06610  0.17355  1.0000
  H   H81       1.0  0.34827  0.12013  0.14798  1.0000
  H   H82       1.0  0.36157  0.10050  0.12774  1.0000
  H   H83       1.0  0.32848  0.08663  0.10425  1.0000
  H   H84       1.0  0.30791  0.08960  0.12997  1.0000
  H   H85       1.0  0.31189  0.08668  0.18299  1.0000
  H   H86       1.0  0.33388  0.08912  0.20290  1.0000
  H   H87       1.0  0.32166  0.05576  0.12625  1.0000
  H   H88       1.0  0.99811  0.33300  0.42713  1.0000
  H   H89       1.0  0.31869  0.05578  0.16811  1.0000
  H   H90       1.0  0.37648  0.08683  0.17793  1.0000
  H   H91       1.0  0.37974  0.11237  0.17292  1.0000
  H   H92       1.0  0.36137  0.10579  0.19962  1.0000
  H   H93       1.0  0.30601  0.11706  0.09526  1.0000
  H   H94       1.0  0.33096  0.12206  0.10173  1.0000
  H   H95       1.0  0.31232  0.12717  0.13172  1.0000
  H   H96       1.0  0.30168  0.12030  0.18109  1.0000
  H   H97       1.0  0.32644  0.12802  0.18301  1.0000
  H   H98       1.0  0.31600  0.11826  0.21635  1.0000
  N   N4        1.0  0.22177  0.11665  0.05562  1.0000
  C   C62       1.0  0.23423  0.12979  0.07392  1.0000
  C   C63       1.0  0.20218  0.12862  0.04906  1.0000
  C   C64       1.0  0.23252  0.11122  0.02548  1.0000
  C   C65       1.0  0.21957  0.09843  0.07498  1.0000
  C   C66       1.0  0.25577  0.12111  0.08078  1.0000
  H   H99       1.0  0.05832  0.32414  0.43459  1.0000
  H   H100      1.0  0.13946  0.44973  0.39920  1.0000
  C   C67       1.0  0.20497  0.08403  0.06350  1.0000
  H   H101      1.0  0.23499  0.14424  0.06172  1.0000
  H   H102      1.0  0.22751  0.13355  0.09708  1.0000
  H   H103      1.0  0.09951  0.47130  0.45478  1.0000
  H   H104      1.0  0.04758  0.36618  0.40943  1.0000
  C   C68       1.0  0.36744  0.99607  0.28591  1.0000
  H   H105      1.0  0.24486  0.09935  0.02947  1.0000
  H   H106      1.0  0.23410  0.08928  0.07709  1.0000
  H   H107      1.0  0.21574  0.10238  0.09958  1.0000
  H   H108      1.0  0.25629  0.10783  0.09597  1.0000
  H   H109      1.0  0.26451  0.11749  0.05934  1.0000
  H   H110      1.0  0.26337  0.13229  0.09377  1.0000
  H   H111      1.0  0.47402  0.08076  0.41610  1.0000
  H   H112      1.0  0.00181  0.25453  0.22482  1.0000
  H   H113      1.0  0.12905  0.40836  0.45159  1.0000
  C   C69       1.0  0.99779  0.39045  0.36813  1.0000
  H   H114      1.0  0.43559  0.13591  0.40031  1.0000
  H   H115      1.0  0.07536  0.33537  0.41161  1.0000
  H   H116      1.0  0.21266  0.07222  0.04865  1.0000
  H   H117      1.0  0.00258  0.27769  0.20376  1.0000
  H   H118      1.0  0.16371  0.18529  0.01392  1.0000
  C   C70       1.0  0.10742  0.44127  0.43251  1.0000
  H   H119      1.0  0.37401  0.00523  0.36374  1.0000
  C   C71       1.0  0.01785  0.46474  0.35117  1.0000
  C   C72       1.0  0.13239  0.32025  0.17989  1.0000
  C   C73       1.0  0.13030  0.44529  0.47774  1.0000
  C   C74       1.0  0.24929  0.05543  0.01478  1.0000
  C   C75       1.0  0.12081  0.48000  0.34558  1.0000
  C   C76       1.0  0.22019  0.10420  0.99824  1.0000
  H   H120      1.0  0.19645  0.14672  0.09145  1.0000
  N   N5        1.0  0.12319  0.31391  0.14991  1.0000
  C   C77       1.0  0.12524  0.29152  0.14956  1.0000
  C   C78       1.0  0.10153  0.32194  0.14993  1.0000
  C   C79       1.0  0.13403  0.32249  0.12328  1.0000
  C   C80       1.0  0.14663  0.28132  0.15074  1.0000
  C   C81       1.0  0.08739  0.31130  0.12919  1.0000
  C   C82       1.0  0.12884  0.31619  0.09001  1.0000
  H   H121      1.0  0.11819  0.28546  0.12888  1.0000
  H   H122      1.0  0.11710  0.28585  0.16963  1.0000
  H   H123      1.0  0.09524  0.32128  0.17381  1.0000
  H   H124      1.0  0.09971  0.33795  0.14334  1.0000
  H   H125      1.0  0.13134  0.33897  0.12341  1.0000
  H   H126      1.0  0.14622  0.26507  0.14821  1.0000
  H   H127      1.0  0.08480  0.29672  0.13933  1.0000
  H   H128      1.0  0.09255  0.30918  0.10494  1.0000
  H   H129      1.0  0.07272  0.32029  0.12841  1.0000
  H   H130      1.0  0.11603  0.32594  0.08061  1.0000
  H   H131      1.0  0.12595  0.30049  0.08794  1.0000
  H   H132      1.0  0.14181  0.31742  0.07458  1.0000
  C   C83       1.0  0.44372  0.10846  0.42701  1.0000
  C   C84       1.0  0.14097  0.41151  0.40613  1.0000
  H   H133      1.0  0.47164  0.11344  0.38758  1.0000
  H   H134      1.0  0.03007  0.47424  0.34762  1.0000
  C   C85       1.0  0.08674  0.22421  0.00122  1.0000
  C   C86       1.0  0.00132  0.23130  0.07464  1.0000
  C   C87       1.0  0.99944  0.47371  0.33294  1.0000
  H   H135      1.0  0.01898  0.33700  0.34535  1.0000
  C   C88       1.0  0.05264  0.35723  0.43024  1.0000
  H   H136      1.0  0.12740  0.41459  0.39198  1.0000
  C   C89       1.0  0.02338  0.22503  0.06744  1.0000
  H   H137      1.0  0.41549  0.12613  0.41957  1.0000
  H   H138      1.0  0.00464  0.36251  0.45621  1.0000
  H   H139      1.0  0.12750  0.25993  0.00686  1.0000
  H   H140      1.0  0.35116  0.99725  0.28169  1.0000
  C   C90       1.0  0.01266  0.33337  0.43883  1.0000
  H   H141      1.0  0.02674  0.20891  0.06372  1.0000
  H   H142      1.0  0.25699  0.00140  0.14346  1.0000
  C   C91       1.0  0.18965  0.13528  0.07792  1.0000
  H   H143      1.0  0.43554  0.09999  0.44373  1.0000
  C   C92       1.0  0.13804  0.41904  0.43987  1.0000
  H   H144      1.0  0.37176  0.01118  0.28080  1.0000
  H   H145      1.0  0.08332  0.46474  0.42504  1.0000
  H   H146      1.0  0.00096  0.29515  0.25717  1.0000
  H   H147      1.0  0.14880  0.31683  0.17948  1.0000
  H   H148      1.0  0.46853  0.13578  0.40913  1.0000
  H   H149      1.0  0.15639  0.45092  0.43071  1.0000
  H   H150      1.0  0.35004  0.03509  0.35099  1.0000
  H   H151      1.0  0.99598  0.24261  0.01426  1.0000
  C   C93       1.0  0.00051  0.22978  0.16351  1.0000
  H   H152      1.0  0.07459  0.34668  0.48205  1.0000
  H   H153      1.0  0.10693  0.44179  0.40661  1.0000
  C   C94       1.0  0.03487  0.38014  0.46702  1.0000
  H   H154      1.0  0.04244  0.32977  0.47664  1.0000
  H   H155      1.0  0.15583  0.28610  0.13138  1.0000
  N   N6        1.0  0.12860  0.44016  0.44372  1.0000
  H   H156      1.0  0.15376  0.28358  0.17352  1.0000
  H   H157      1.0  0.15040  0.31971  0.12612  1.0000
  C   C95       1.0  0.47522  0.08855  0.43874  1.0000
  H   H158      1.0  0.23602  0.04799  0.01239  1.0000
  H   H159      1.0  0.99731  0.27245  0.27498  1.0000
  H   H160      1.0  0.12733  0.31175  0.19999  1.0000
  H   H161      1.0  0.04914  0.38403  0.47649  1.0000
  C   C96       1.0  0.04202  0.34568  0.48271  1.0000
  H   H162      1.0  0.20461  0.14222  0.03554  1.0000
  H   H163      1.0  0.13504  0.48196  0.44995  1.0000
  H   H164      1.0  0.41119  0.00389  0.33812  1.0000
  H   H165      1.0  0.18699  0.12267  0.09333  1.0000
  H   H166      1.0  0.33761  0.03953  0.15009  1.0000
  N   N7        1.0  0.03684  0.35905  0.45510  1.0000
  H   H167      1.0  0.05095  0.33322  0.39634  1.0000
  H   H168      1.0  0.08338  0.39690  0.44656  1.0000
  H   H169      1.0  0.19251  0.12054  0.03398  1.0000
  C   C97       1.0  0.09277  0.45864  0.44467  1.0000
  H   H170      1.0  0.00008  0.24780  0.07663  1.0000
  H   H171      1.0  0.07526  0.21430  0.99980  1.0000
  H   H172      1.0  0.00555  0.17479  0.13782  1.0000
  H   H173      1.0  0.15195  0.20819  0.99792  1.0000
  H   H174      1.0  0.48586  0.04936  0.38287  1.0000
  H   H175      1.0  0.41182  0.06162  0.48757  1.0000
  H   H176      1.0  0.99899  0.24525  0.17007  1.0000
  H   H177      1.0  0.21216  0.09137  0.00432  1.0000
  H   H178      1.0  0.02851  0.23327  0.04712  1.0000
  C   C98       1.0  0.46708  0.12061  0.46656  1.0000
  H   H179      1.0  0.47223  0.08025  0.48797  1.0000
  C   C99       1.0  0.00535  0.27012  0.22648  1.0000
  C   C100      1.0  0.23977  0.99912  0.00178  1.0000
  H   H180      1.0  0.47570  0.05993  0.46158  1.0000
  C   C101      1.0  0.47477  0.11995  0.41062  1.0000
  H   H181      1.0  0.39245  0.12385  0.47993  1.0000
  C   C102      1.0  0.13417  0.47589  0.42613  1.0000
  H   H182      1.0  0.02343  0.44976  0.34257  1.0000
  C   C103      1.0  0.40169  0.09249  0.47978  1.0000
  C   C104      1.0  0.45209  0.11745  0.49294  1.0000
  C   C105      1.0  0.40955  0.99413  0.31775  1.0000
  H   H183      1.0  0.14452  0.48364  0.41157  1.0000
  H   H184      1.0  0.02417  0.38190  0.48681  1.0000
  H   H185      1.0  0.01382  0.39459  0.43221  1.0000
  C   C106      1.0  0.01698  0.35519  0.44180  1.0000
  H   H186      1.0  0.01491  0.36188  0.41823  1.0000
  C   C107      1.0  0.99739  0.18696  0.05371  1.0000
  H   H187      1.0  0.49134  0.08861  0.44317  1.0000
  H   H188      1.0  0.44443  0.10392  0.49122  1.0000
  C   C108      1.0  0.99312  0.22696  0.01894  1.0000
  H   H189      1.0  0.14619  0.44436  0.48476  1.0000
  H   H190      1.0  0.99853  0.22578  0.09843  1.0000
  H   H191      1.0  0.12521  0.35523  0.49365  1.0000
  C   C109      1.0  0.40247  0.99333  0.41159  1.0000
  C   C110      1.0  0.99352  0.35555  0.36222  1.0000
  H   H192      1.0  0.01119  0.32631  0.46192  1.0000
  H   H193      1.0  0.38656  0.99623  0.48944  1.0000
  H   H194      1.0  0.99643  0.43400  0.34046  1.0000
  H   H195      1.0  0.06600  0.48906  0.37138  1.0000
  C   C111      1.0  0.39849  0.11122  0.49365  1.0000
  Fe  Fe17      1.0  0.39610  0.06997  0.68464  1.0000
  S   S33       1.0  0.39554  0.05962  0.63458  1.0000
  S   S34       1.0  0.36394  0.07571  0.70404  1.0000
  Fe  Fe18      1.0  0.44234  0.06898  0.68174  1.0000
  S   S35       1.0  0.44424  0.05879  0.63211  1.0000
  S   S36       1.0  0.47080  0.07150  0.70950  1.0000
  Fe  Fe19      1.0  0.41777  0.08084  0.62392  1.0000
  S   S37       1.0  0.41486  0.10264  0.58344  1.0000
  Fe  Fe20      1.0  0.42192  0.03839  0.64664  1.0000
  H   H196      1.0  0.04235  0.46671  0.73513  1.0000
  S   S38       1.0  0.41705  0.09292  0.67300  1.0000
  S   S39       1.0  0.42141  0.04688  0.69723  1.0000
  Fe  Fe21      1.0  0.27655  0.07903  0.84162  1.0000
  S   S40       1.0  0.25135  0.07264  0.81016  1.0000
  S   S41       1.0  0.30814  0.08529  0.82631  1.0000
  Fe  Fe22      1.0  0.25405  0.06728  0.90112  1.0000
  S   S42       1.0  0.22821  0.05985  0.87226  1.0000
  S   S43       1.0  0.24740  0.05865  0.95135  1.0000
  Fe  Fe23      1.0  0.25041  0.04487  0.83925  1.0000
  S   S44       1.0  0.42450  0.00781  0.62567  1.0000
  Fe  Fe24      1.0  0.23092  0.08859  0.84653  1.0000
  S   S45       1.0  0.20004  0.10670  0.84071  1.0000
  S   S46       1.0  0.27617  0.05070  0.86922  1.0000
  S   S47       1.0  0.25622  0.09658  0.87673  1.0000
  Fe  Fe25      1.0  0.10567  0.41371  0.66597  1.0000
  S   S48       1.0  0.07764  0.42002  0.63905  1.0000
  S   S49       1.0  0.12410  0.43906  0.67653  1.0000
  Fe  Fe26      1.0  0.10165  0.36876  0.67005  1.0000
  S   S50       1.0  0.07363  0.37218  0.64184  1.0000
  S   S51       1.0  0.11251  0.33705  0.68630  1.0000
  Fe  Fe27      1.0  0.08822  0.39306  0.61069  1.0000
  S   S52       1.0  0.07964  0.39871  0.55990  1.0000
  Fe  Fe28      1.0  0.06556  0.39879  0.67183  1.0000
  S   S53       1.0  0.03604  0.40553  0.69475  1.0000
  S   S54       1.0  0.11739  0.38763  0.63598  1.0000
  S   S55       1.0  0.09266  0.39444  0.70182  1.0000
  Fe  Fe29      1.0  0.12251  0.21255  0.83838  1.0000
  S   S56       1.0  0.11975  0.24132  0.86570  1.0000
  S   S57       1.0  0.15356  0.19481  0.83505  1.0000
  Fe  Fe30      1.0  0.07748  0.21703  0.82459  1.0000
  S   S58       1.0  0.07198  0.24537  0.85130  1.0000
  S   S59       1.0  0.05436  0.20179  0.79773  1.0000
  Fe  Fe31      1.0  0.09940  0.25433  0.82716  1.0000
  S   S60       1.0  0.09805  0.28700  0.81041  1.0000
  Fe  Fe32      1.0  0.09270  0.23026  0.88721  1.0000
  S   S61       1.0  0.08342  0.22603  0.93769  1.0000
  S   S62       1.0  0.10398  0.22641  0.79842  1.0000
  S   S63       1.0  0.09642  0.20109  0.86163  1.0000
  H   H197      1.0  0.21769  0.01628  0.90433  1.0000
  C   C112      1.0  0.02919  0.19817  0.80574  1.0000
  C   C113      1.0  0.02047  0.18485  0.78654  1.0000
  H   H198      1.0  0.02400  0.21865  0.84403  1.0000
  H   H199      1.0  0.02918  0.17701  0.76844  1.0000
  C   C114      1.0  0.09376  0.23241  0.97380  1.0000
  C   C115      1.0  0.36267  0.15037  0.60289  1.0000
  H   H200      1.0  0.29866  0.05119  0.72611  1.0000
  H   H201      1.0  0.22438  0.02427  0.94260  1.0000
  H   H202      1.0  0.11381  0.25197  0.95510  1.0000
  H   H203      1.0  0.02815  0.44253  0.65848  1.0000
  C   C116      1.0  0.01838  0.39190  0.67774  1.0000
  C   C117      1.0  0.02193  0.38271  0.64886  1.0000
  H   H204      1.0  0.34868  0.15607  0.61461  1.0000
  H   H205      1.0  0.03443  0.38595  0.63499  1.0000
  C   C118      1.0  0.13276  0.14816  0.76574  1.0000
  C   C119      1.0  0.09069  0.38987  0.52465  1.0000
  H   H206      1.0  0.06512  0.33615  0.51631  1.0000
  H   H207      1.0  0.12730  0.12962  0.80664  1.0000
  H   H208      1.0  0.17490  0.19608  0.98221  1.0000
  C   C120      1.0  0.10205  0.30048  0.77540  1.0000
  C   C121      1.0  0.09853  0.32139  0.77563  1.0000
  C   C122      1.0  0.10133  0.33279  0.74862  1.0000
  C   C123      1.0  0.10789  0.32344  0.72088  1.0000
  C   C124      1.0  0.11152  0.30257  0.72068  1.0000
  C   C125      1.0  0.10849  0.29116  0.74759  1.0000
  H   H209      1.0  0.09359  0.32883  0.79696  1.0000
  H   H210      1.0  0.09859  0.34880  0.74941  1.0000
  H   H211      1.0  0.11675  0.29512  0.69951  1.0000
  H   H212      1.0  0.11136  0.27515  0.74690  1.0000
  C   C126      1.0  0.25165  0.99850  0.97111  1.0000
  H   H213      1.0  0.16875  0.18612  0.89768  1.0000
  C   C127      1.0  0.12371  0.47993  0.67499  1.0000
  C   C128      1.0  0.11240  0.46382  0.67889  1.0000
  C   C129      1.0  0.09224  0.46771  0.68606  1.0000
  H   H214      1.0  0.14223  0.15561  0.92444  1.0000
  H   H215      1.0  0.07085  0.40995  0.49744  1.0000
  H   H216      1.0  0.13932  0.47712  0.66955  1.0000
  H   H217      1.0  0.08339  0.45550  0.68940  1.0000
  C   C130      1.0  0.04118  0.30447  0.75832  1.0000
  C   C131      1.0  0.18769  0.13149  0.84069  1.0000
  C   C132      1.0  0.16685  0.13419  0.84339  1.0000
  C   C133      1.0  0.15622  0.15331  0.84224  1.0000
  C   C134      1.0  0.16620  0.17017  0.83776  1.0000
  C   C135      1.0  0.18705  0.16753  0.83553  1.0000
  C   C136      1.0  0.19772  0.14841  0.83717  1.0000
  H   H218      1.0  0.15888  0.12128  0.84633  1.0000
  H   H219      1.0  0.14029  0.15492  0.84446  1.0000
  H   H220      1.0  0.19506  0.18037  0.83224  1.0000
  H   H221      1.0  0.21370  0.14674  0.83500  1.0000
  C   C137      1.0  0.11982  0.43218  0.50057  1.0000
  H   H222      1.0  0.04378  0.46197  0.61927  1.0000
  H   H223      1.0  0.28265  0.07734  0.97098  1.0000
  H   H224      1.0  0.12025  0.43850  0.52440  1.0000
  C   C138      1.0  0.01750  0.20826  0.82904  1.0000
  C   C139      1.0  0.41018  0.09771  0.54369  1.0000
  C   C140      1.0  0.41344  0.07878  0.53009  1.0000
  C   C141      1.0  0.40303  0.11386  0.52506  1.0000
  H   H225      1.0  0.41907  0.06620  0.54422  1.0000
  H   H226      1.0  0.40071  0.12857  0.53507  1.0000
  C   C142      1.0  0.34887  0.07844  0.73855  1.0000
  C   C143      1.0  0.32806  0.08120  0.73540  1.0000
  C   C144      1.0  0.31542  0.08329  0.76175  1.0000
  C   C145      1.0  0.32336  0.08270  0.79192  1.0000
  C   C146      1.0  0.34418  0.08021  0.79505  1.0000
  C   C147      1.0  0.35682  0.07794  0.76870  1.0000
  H   H227      1.0  0.32162  0.08180  0.71234  1.0000
  H   H228      1.0  0.29953  0.08566  0.75872  1.0000
  H   H229      1.0  0.35062  0.07994  0.81811  1.0000
  H   H230      1.0  0.37274  0.07597  0.77176  1.0000
  C   C148      1.0  0.08368  0.48742  0.69017  1.0000
  H   H231      1.0  0.04613  0.47339  0.65609  1.0000
  C   C149      1.0  0.99724  0.20494  0.83271  1.0000
  H   H232      1.0  0.27504  0.05748  0.74360  1.0000
  C   C150      1.0  0.22392  0.99396  0.84500  1.0000
  H   H233      1.0  0.11211  0.16678  0.95305  1.0000
  C   C151      1.0  0.01983  0.45678  0.65090  1.0000
  C   C152      1.0  0.32969  0.02950  0.76058  1.0000
  C   C153      1.0  0.13217  0.12798  0.78214  1.0000
  C   C154      1.0  0.11411  0.17251  0.92917  1.0000
  C   C155      1.0  0.31400  0.01311  0.80485  1.0000
  H   H234      1.0  0.17894  0.19287  0.93311  1.0000
  C   C156      1.0  0.29439  0.03733  0.77214  1.0000
  C   C157      1.0  0.15275  0.22326  0.93026  1.0000
  H   H235      1.0  0.03023  0.34803  0.50082  1.0000
  H   H236      1.0  0.09434  0.14081  0.80690  1.0000
  H   H237      1.0  0.36185  0.02343  0.76367  1.0000
  H   H238      1.0  0.01010  0.21826  0.74291  1.0000
  H   H239      1.0  0.31497  0.04173  0.82916  1.0000
  H   H240      1.0  0.31957  0.99213  0.75166  1.0000
  H   H241      1.0  0.19571  0.16184  0.91876  1.0000
  H   H242      1.0  0.10649  0.18772  0.92724  1.0000
  H   H243      1.0  0.41739  0.00654  0.69204  1.0000
  C   C158      1.0  0.26348  0.00727  0.90762  1.0000
  C   C159      1.0  0.00060  0.18144  0.79035  1.0000
  C   C160      1.0  0.00171  0.23247  0.75020  1.0000
  C   C161      1.0  0.13624  0.17126  0.91999  1.0000
  H   H244      1.0  0.33269  0.04285  0.77403  1.0000
  H   H245      1.0  0.10637  0.16304  0.91313  1.0000
  C   C162      1.0  0.99501  0.44946  0.68940  1.0000
  H   H246      1.0  0.12326  0.11785  0.76933  1.0000
  H   H247      1.0  0.14752  0.12040  0.78299  1.0000
  H   H248      1.0  0.12650  0.21066  0.94515  1.0000
  N   N8        1.0  0.11343  0.16123  0.76244  1.0000
  C   C163      1.0  0.11717  0.17843  0.74147  1.0000
  C   C164      1.0  0.09834  0.15001  0.74617  1.0000
  C   C165      1.0  0.10630  0.16957  0.79352  1.0000
  C   C166      1.0  0.13482  0.18996  0.75035  1.0000
  C   C167      1.0  0.07768  0.16153  0.74170  1.0000
  C   C168      1.0  0.09603  0.15579  0.81576  1.0000
  H   H249      1.0  0.11980  0.17335  0.71699  1.0000
  H   H250      1.0  0.10397  0.18968  0.74059  1.0000
  H   H251      1.0  0.09584  0.13609  0.75829  1.0000
  H   H252      1.0  0.10391  0.14500  0.72275  1.0000
  H   H253      1.0  0.11876  0.17507  0.80663  1.0000
  H   H254      1.0  0.09560  0.18304  0.79011  1.0000
  H   H255      1.0  0.13443  0.20359  0.73583  1.0000
  H   H256      1.0  0.14926  0.18116  0.74574  1.0000
  H   H257      1.0  0.07803  0.17451  0.72603  1.0000
  H   H258      1.0  0.06766  0.15159  0.73071  1.0000
  H   H259      1.0  0.07084  0.16639  0.76421  1.0000
  H   H260      1.0  0.10437  0.15396  0.83801  1.0000
  H   H261      1.0  0.08094  0.16279  0.82176  1.0000
  N   N9        1.0  0.15709  0.37818  0.72385  1.0000
  C   C169      1.0  0.15816  0.36116  0.70098  1.0000
  C   C170      1.0  0.15294  0.39710  0.70531  1.0000
  C   C171      1.0  0.14017  0.37578  0.74600  1.0000
  C   C172      1.0  0.17658  0.37704  0.74097  1.0000
  C   C173      1.0  0.16034  0.34007  0.71524  1.0000
  C   C174      1.0  0.16886  0.40136  0.68127  1.0000
  C   C175      1.0  0.13111  0.39449  0.76346  1.0000
  C   C176      1.0  0.18011  0.39446  0.76267  1.0000
  H   H262      1.0  0.14471  0.36236  0.68588  1.0000
  H   H263      1.0  0.17092  0.36156  0.68484  1.0000
  H   H264      1.0  0.15066  0.41044  0.72028  1.0000
  H   H265      1.0  0.13865  0.39706  0.69263  1.0000
  H   H266      1.0  0.12754  0.37013  0.73334  1.0000
  H   H267      1.0  0.14467  0.36437  0.76406  1.0000
  H   H268      1.0  0.17842  0.36357  0.75599  1.0000
  H   H269      1.0  0.18937  0.37470  0.72463  1.0000
  H   H270      1.0  0.17471  0.33662  0.72736  1.0000
  H   H271      1.0  0.14797  0.33753  0.73113  1.0000
  H   H272      1.0  0.15991  0.32909  0.69611  1.0000
  H   H273      1.0  0.16483  0.41638  0.67121  1.0000
  H   H274      1.0  0.18370  0.40148  0.69197  1.0000
  H   H275      1.0  0.16946  0.39086  0.66144  1.0000
  H   H276      1.0  0.14215  0.40183  0.77684  1.0000
  H   H277      1.0  0.11995  0.39010  0.78036  1.0000
  H   H278      1.0  0.12307  0.40539  0.74740  1.0000
  H   H279      1.0  0.17502  0.39166  0.78671  1.0000
  H   H280      1.0  0.17323  0.40908  0.75466  1.0000
  H   H281      1.0  0.19625  0.39604  0.76351  1.0000
  C   C177      1.0  0.13911  0.20640  0.92918  1.0000
  H   H282      1.0  0.25087  0.01883  0.90480  1.0000
  C   C178      1.0  0.03518  0.47006  0.63820  1.0000
  N   N10       1.0  0.14840  0.18559  0.93626  1.0000
  C   C179      1.0  0.10617  0.37454  0.52350  1.0000
  H   H283      1.0  0.28026  0.03363  0.72635  1.0000
  C   C180      1.0  0.00135  0.38878  0.69451  1.0000
  H   H284      1.0  0.27462  0.00528  0.75652  1.0000
  H   H285      1.0  0.13950  0.14492  0.74236  1.0000
  C   C181      1.0  0.06201  0.34808  0.49866  1.0000
  C   C182      1.0  0.16911  0.18251  0.92298  1.0000
  C   C183      1.0  0.00917  0.36933  0.63773  1.0000
  C   C184      1.0  0.14787  0.18146  0.97073  1.0000
  H   H286      1.0  0.01216  0.36196  0.61564  1.0000
  C   C185      1.0  0.25838  0.06235  0.98803  1.0000
  H   H287      1.0  0.01898  0.33029  0.67242  1.0000
  H   H288      1.0  0.14355  0.23772  0.92768  1.0000
  H   H289      1.0  0.13261  0.20718  0.90534  1.0000
  H   H290      1.0  0.32757  0.03526  0.73644  1.0000
  H   H291      1.0  0.20976  0.11646  0.98876  1.0000
  C   C186      1.0  0.21633  0.01356  0.92970  1.0000
  H   H292      1.0  0.00675  0.23561  0.77406  1.0000
  N   N11       1.0  0.31135  0.02102  0.77205  1.0000
  H   H293      1.0  0.37548  0.15050  0.61893  1.0000
  H   H294      1.0  0.06826  0.49023  0.69672  1.0000
  H   H295      1.0  0.36517  0.16091  0.58379  1.0000
  H   H296      1.0  0.34956  0.00346  0.77784  1.0000
  H   H297      1.0  0.14372  0.15593  0.77904  1.0000
  H   H298      1.0  0.05279  0.29859  0.77523  1.0000
  N   N12       1.0  0.04045  0.32807  0.71017  1.0000
  C   C187      1.0  0.05442  0.33449  0.68565  1.0000
  C   C188      1.0  0.03400  0.34611  0.72964  1.0000
  C   C189      1.0  0.02284  0.32102  0.69351  1.0000
  C   C190      1.0  0.05140  0.31151  0.72884  1.0000
  C   C191      1.0  0.06181  0.31869  0.66126  1.0000
  C   C192      1.0  0.05049  0.35506  0.74789  1.0000
  H   H299      1.0  0.35060  0.00763  0.73648  1.0000
  C   C193      1.0  0.24309  0.99235  0.83260  1.0000
  H   H300      1.0  0.04728  0.34758  0.67263  1.0000
  H   H301      1.0  0.06803  0.33933  0.69633  1.0000
  H   H302      1.0  0.02253  0.34326  0.74694  1.0000
  H   H303      1.0  0.02670  0.35806  0.71460  1.0000
  H   H304      1.0  0.03188  0.29241  0.75271  1.0000
  H   H305      1.0  0.02643  0.30561  0.68471  1.0000
  H   H306      1.0  0.05462  0.29802  0.71424  1.0000
  H   H307      1.0  0.06641  0.31515  0.73555  1.0000
  H   H308      1.0  0.04952  0.31335  0.64771  1.0000
  H   H309      1.0  0.07148  0.32552  0.64433  1.0000
  H   H310      1.0  0.07112  0.30603  0.67194  1.0000
  H   H311      1.0  0.06092  0.36186  0.73225  1.0000
  H   H312      1.0  0.04361  0.36731  0.76277  1.0000
  H   H313      1.0  0.05865  0.34404  0.76354  1.0000
  H   H314      1.0  0.99856  0.39583  0.71690  1.0000
  H   H315      1.0  0.12736  0.41685  0.50194  1.0000
  H   H316      1.0  0.03227  0.31641  0.77106  1.0000
  H   H317      1.0  0.29839  0.05036  0.78548  1.0000
  H   H318      1.0  0.27426  0.01242  0.92442  1.0000
  H   H319      1.0  0.44079  0.13050  0.49490  1.0000
  H   H320      1.0  0.21567  0.00843  0.84733  1.0000
  N   N13       1.0  0.35628  0.11364  0.61084  1.0000
  C   C194      1.0  0.36164  0.12963  0.58886  1.0000
  C   C195      1.0  0.36020  0.09404  0.59395  1.0000
  C   C196      1.0  0.36987  0.11237  0.63891  1.0000
  C   C197      1.0  0.33472  0.11741  0.61957  1.0000
  C   C198      1.0  0.34926  0.09214  0.56278  1.0000
  C   C199      1.0  0.36316  0.12506  0.66765  1.0000
  C   C200      1.0  0.32667  0.10071  0.63886  1.0000
  H   H321      1.0  0.37635  0.12527  0.57797  1.0000
  H   H322      1.0  0.35087  0.13165  0.56928  1.0000
  H   H323      1.0  0.35675  0.08142  0.60891  1.0000
  H   H324      1.0  0.37631  0.09085  0.58880  1.0000
  H   H325      1.0  0.37231  0.09694  0.64800  1.0000
  H   H326      1.0  0.38499  0.11587  0.63220  1.0000
  H   H327      1.0  0.33167  0.13153  0.63263  1.0000
  H   H328      1.0  0.32546  0.11963  0.59823  1.0000
  H   H329      1.0  0.35285  0.07678  0.55387  1.0000
  H   H330      1.0  0.33294  0.09457  0.56536  1.0000
  H   H331      1.0  0.35438  0.10213  0.54467  1.0000
  H   H332      1.0  0.35913  0.14092  0.66233  1.0000
  H   H333      1.0  0.37553  0.12415  0.68473  1.0000
  H   H334      1.0  0.35057  0.11911  0.67970  1.0000
  H   H335      1.0  0.31600  0.10738  0.65652  1.0000
  H   H336      1.0  0.33831  0.09130  0.65171  1.0000
  H   H337      1.0  0.31824  0.09129  0.62375  1.0000
  H   H338      1.0  0.33905  0.02817  0.82277  1.0000
  H   H339      1.0  0.16089  0.22383  0.95244  1.0000
  H   H340      1.0  0.16331  0.22219  0.91042  1.0000
  C   C201      1.0  0.00329  0.32134  0.71194  1.0000
  H   H341      1.0  0.48379  0.07949  0.64601  1.0000
  H   H342      1.0  0.13422  0.19479  0.77493  1.0000
  H   H343      1.0  0.17378  0.15060  0.91122  1.0000
  H   H344      1.0  0.00502  0.31325  0.73428  1.0000
  S   S64       1.0  0.25436  0.01338  0.81956  1.0000
  C   C202      1.0  0.10856  0.24527  0.97596  1.0000
  H   H345      1.0  0.11231  0.36808  0.54490  1.0000
  C   C203      1.0  0.30720  0.00430  0.75077  1.0000
  H   H346      1.0  0.29947  0.01014  0.81497  1.0000
  H   H347      1.0  0.13245  0.18459  0.97969  1.0000
  H   H348      1.0  0.01097  0.45275  0.63052  1.0000
  C   C204      1.0  0.34887  0.01502  0.75956  1.0000
  H   H349      1.0  0.00584  0.24406  0.73389  1.0000
  H   H350      1.0  0.28134  0.03265  0.78467  1.0000
  H   H351      1.0  0.13686  0.17343  0.89429  1.0000
  H   H352      1.0  0.99659  0.33679  0.71601  1.0000
  C   C205      1.0  0.28693  0.04511  0.73997  1.0000
  C   C206      1.0  0.32326  0.02677  0.82818  1.0000
  H   H353      1.0  0.02750  0.44671  0.72971  1.0000
  C   C207      1.0  0.18012  0.16151  0.92654  1.0000
  C   C208      1.0  0.01815  0.47373  0.70239  1.0000
  H   H354      1.0  0.45998  0.11652  0.51566  1.0000
  H   H355      1.0  0.18055  0.15629  0.95101  1.0000
  H   H356      1.0  0.27116  0.00584  0.88476  1.0000
  C   C209      1.0  0.03414  0.45883  0.71745  1.0000
  H   H357      1.0  0.23040  0.09928  0.97885  1.0000
  N   N14       1.0  0.00642  0.46561  0.67646  1.0000
  H   H358      1.0  0.20056  0.01728  0.93636  1.0000
  H   H359      1.0  0.30660  0.00925  0.72602  1.0000
  C   C210      1.0  0.40947  0.07622  0.49797  1.0000
  H   H360      1.0  0.00812  0.47952  0.72157  1.0000
  C   C211      1.0  0.08282  0.39806  0.49669  1.0000
  C   C212      1.0  0.27551  0.07197  0.99139  1.0000
  H   H361      1.0  0.04525  0.45232  0.70044  1.0000
  H   H362      1.0  0.00522  0.43616  0.69558  1.0000
  H   H363      1.0  0.02812  0.48410  0.62801  1.0000
  H   H364      1.0  0.32305  0.99844  0.80534  1.0000
  H   H365      1.0  0.48988  0.02667  0.66909  1.0000
  H   H366      1.0  0.25198  0.01419  0.96391  1.0000
  C   C213      1.0  0.41384  0.99284  0.68185  1.0000
  H   H367      1.0  0.32277  0.02029  0.85190  1.0000
  C   C214      1.0  0.28813  0.99460  0.75798  1.0000
  H   H368      1.0  0.02544  0.48684  0.69438  1.0000
  H   H369      1.0  0.99432  0.17098  0.77520  1.0000
  H   H370      1.0  0.06163  0.36230  0.51151  1.0000
  C   C215      1.0  0.99249  0.36564  0.65503  1.0000
  C   C216      1.0  0.99272  0.48244  0.66304  1.0000
  H   H371      1.0  0.99236  0.31419  0.69768  1.0000
  H   H372      1.0  0.26738  0.99332  0.97677  1.0000
  H   H373      1.0  0.10403  0.43164  0.49454  1.0000
  C   C217      1.0  0.11340  0.36727  0.49445  1.0000
  H   H374      1.0  0.15160  0.16541  0.97601  1.0000
  C   C218      1.0  0.16030  0.19366  0.99197  1.0000
  Fe  Fe33      1.0  0.42024  0.89280  0.36990  1.0000
  S   S65       1.0  0.40682  0.89907  0.41702  1.0000
  S   S66       1.0  0.45225  0.90097  0.37135  1.0000
  Fe  Fe34      1.0  0.37886  0.88470  0.34298  1.0000
  S   S67       1.0  0.36336  0.89027  0.38922  1.0000
  S   S68       1.0  0.36364  0.88131  0.29534  1.0000
  Fe  Fe35      1.0  0.38154  0.91598  0.39267  1.0000
  S   S69       1.0  0.37071  0.94618  0.41091  1.0000
  Fe  Fe36      1.0  0.39033  0.87278  0.41011  1.0000
  S   S70       1.0  0.39326  0.85321  0.45315  1.0000
  S   S71       1.0  0.39557  0.91187  0.34577  1.0000
  S   S72       1.0  0.40500  0.86498  0.36374  1.0000
  Fe  Fe37      1.0  0.25548  0.85823  0.12889  1.0000
  S   S73       1.0  0.22685  0.87786  0.12638  1.0000
  S   S74       1.0  0.26532  0.84147  0.08491  1.0000
  Fe  Fe38      1.0  0.26144  0.86659  0.19880  1.0000
  S   S75       1.0  0.23252  0.88638  0.20031  1.0000
  S   S76       1.0  0.27782  0.86275  0.24582  1.0000
  Fe  Fe39      1.0  0.21952  0.86280  0.17127  1.0000
  S   S77       1.0  0.18884  0.85205  0.18159  1.0000
  Fe  Fe40      1.0  0.24255  0.89926  0.15531  1.0000
  S   S78       1.0  0.24777  0.93053  0.13930  1.0000
  S   S79       1.0  0.24776  0.84230  0.17277  1.0000
  S   S80       1.0  0.27183  0.88021  0.15488  1.0000
  Fe  Fe41      1.0  0.11909  0.75501  0.17445  1.0000
  S   S81       1.0  0.12360  0.72156  0.16759  1.0000
  S   S82       1.0  0.14700  0.77133  0.16388  1.0000
  Fe  Fe42      1.0  0.07362  0.75317  0.18495  1.0000
  S   S83       1.0  0.07583  0.72024  0.17881  1.0000
  S   S84       1.0  0.04330  0.77139  0.18575  1.0000
  Fe  Fe43      1.0  0.10311  0.71920  0.20881  1.0000
  S   S85       1.0  0.10852  0.69983  0.25289  1.0000
  Fe  Fe44      1.0  0.09583  0.72542  0.13834  1.0000
  S   S86       1.0  0.08654  0.71365  0.09144  1.0000
  S   S87       1.0  0.10003  0.75251  0.21731  1.0000
  S   S88       1.0  0.09232  0.75846  0.14304  1.0000
  Fe  Fe45      1.0  0.10863  0.58980  0.41940  1.0000
  S   S89       1.0  0.11754  0.57415  0.37409  1.0000
  S   S90       1.0  0.13047  0.59717  0.45657  1.0000
  Fe  Fe46      1.0  0.06574  0.59611  0.40170  1.0000
  S   S91       1.0  0.07096  0.58142  0.35558  1.0000
  S   S92       1.0  0.03457  0.60645  0.41618  1.0000
  Fe  Fe47      1.0  0.09041  0.55798  0.38151  1.0000
  S   S93       1.0  0.08175  0.52638  0.37541  1.0000
  Fe  Fe48      1.0  0.09726  0.59880  0.35111  1.0000
  S   S94       1.0  0.10052  0.61099  0.30148  1.0000
  S   S95       1.0  0.08330  0.57194  0.42834  1.0000
  S   S96       1.0  0.09040  0.61537  0.39580  1.0000
  C   C219      1.0  0.01991  0.58903  0.40090  1.0000
  H   H375      1.0  0.16970  0.84799  0.04375  1.0000
  H   H376      1.0  0.17009  0.78157  0.26508  1.0000
  H   H377      1.0  0.23427  0.81348  0.28552  1.0000
  C   C220      1.0  0.01716  0.55632  0.37944  1.0000
  C   C221      1.0  0.02856  0.57003  0.39311  1.0000
  C   C222      1.0  0.02706  0.69909  0.13315  1.0000
  H   H378      1.0  0.34875  0.94683  0.33026  1.0000
  H   H379      1.0  0.13510  0.80315  0.08398  1.0000
  H   H380      1.0  0.04406  0.56574  0.39773  1.0000
  C   C223      1.0  0.02050  0.76215  0.19558  1.0000
  H   H381      1.0  0.00092  0.62487  0.29334  1.0000
  H   H382      1.0  0.12096  0.55704  0.24463  1.0000
  H   H383      1.0  0.44168  0.82807  0.38131  1.0000
  H   H384      1.0  0.30687  0.95249  0.28625  1.0000
  C   C224      1.0  0.01964  0.74571  0.21514  1.0000
  C   C225      1.0  0.20761  0.89703  0.99734  1.0000
  H   H385      1.0  0.26318  0.92007  0.20794  1.0000
  H   H386      1.0  0.31753  0.93931  0.23967  1.0000
  H   H387      1.0  0.03318  0.73824  0.22470  1.0000
  C   C226      1.0  0.10513  0.67520  0.26574  1.0000
  C   C227      1.0  0.10692  0.67070  0.29775  1.0000
  C   C228      1.0  0.10508  0.65136  0.30916  1.0000
  C   C229      1.0  0.10174  0.63604  0.28861  1.0000
  C   C230      1.0  0.09989  0.64052  0.25658  1.0000
  C   C231      1.0  0.10140  0.65996  0.24523  1.0000
  H   H388      1.0  0.10987  0.68227  0.31390  1.0000
  H   H389      1.0  0.10666  0.64826  0.33379  1.0000
  H   H390      1.0  0.09738  0.62886  0.24036  1.0000
  H   H391      1.0  0.10010  0.66306  0.22057  1.0000
  C   C232      1.0  0.21298  0.84660  0.26004  1.0000
  H   H392      1.0  0.07988  0.60446  0.48334  1.0000
  C   C233      1.0  0.19998  0.82917  0.25844  1.0000
  H   H393      1.0  0.12201  0.51131  0.35478  1.0000
  H   H394      1.0  0.25486  0.92787  0.26544  1.0000
  C   C234      1.0  0.11947  0.70729  0.05350  1.0000
  C   C235      1.0  0.09977  0.71554  0.05624  1.0000
  C   C236      1.0  0.08976  0.72338  0.02959  1.0000
  H   H395      1.0  0.12715  0.70073  0.07370  1.0000
  H   H396      1.0  0.07443  0.72951  0.03137  1.0000
  C   C237      1.0  0.17730  0.82963  0.17547  1.0000
  C   C238      1.0  0.18648  0.81335  0.15897  1.0000
  C   C239      1.0  0.17698  0.79578  0.15575  1.0000
  C   C240      1.0  0.15811  0.79411  0.16878  1.0000
  C   C241      1.0  0.14890  0.81043  0.18512  1.0000
  C   C242      1.0  0.15842  0.82798  0.18838  1.0000
  H   H397      1.0  0.20095  0.81425  0.14881  1.0000
  H   H398      1.0  0.18440  0.78332  0.14318  1.0000
  H   H399      1.0  0.13443  0.80955  0.19530  1.0000
  H   H400      1.0  0.15105  0.84039  0.20115  1.0000
  C   C243      1.0  0.33937  0.87684  0.28231  1.0000
  C   C244      1.0  0.32413  0.87316  0.30284  1.0000
  C   C245      1.0  0.30544  0.86909  0.29124  1.0000
  C   C246      1.0  0.30154  0.86880  0.25900  1.0000
  C   C247      1.0  0.31664  0.87290  0.23847  1.0000
  C   C248      1.0  0.33538  0.87681  0.25006  1.0000
  H   H401      1.0  0.32686  0.87307  0.32766  1.0000
  H   H402      1.0  0.29398  0.86590  0.30744  1.0000
  H   H403      1.0  0.31408  0.87251  0.21364  1.0000
  H   H404      1.0  0.34702  0.87950  0.23386  1.0000
  C   C249      1.0  0.26658  0.84574  0.02125  1.0000
  C   C250      1.0  0.26591  0.85544  0.05022  1.0000
  C   C251      1.0  0.26518  0.87614  0.05102  1.0000
  H   H405      1.0  0.26714  0.82973  0.02049  1.0000
  H   H406      1.0  0.26463  0.88377  0.07318  1.0000
  C   C252      1.0  0.22279  0.80315  0.28177  1.0000
  H   H407      1.0  0.16986  0.80707  0.27481  1.0000
  H   H408      1.0  0.22391  0.77040  0.27938  1.0000
  H   H409      1.0  0.24604  0.78061  0.26514  1.0000
  H   H410      1.0  0.19153  0.82962  0.28068  1.0000
  H   H411      1.0  0.22726  0.83083  0.04445  1.0000
  H   H412      1.0  0.48086  0.98264  0.38119  1.0000
  C   C253      1.0  0.25279  0.97014  0.14235  1.0000
  C   C254      1.0  0.24272  0.95481  0.15488  1.0000
  C   C255      1.0  0.22905  0.95930  0.17888  1.0000
  C   C256      1.0  0.22540  0.97897  0.18992  1.0000
  C   C257      1.0  0.46956  0.83310  0.46310  1.0000
  H   H413      1.0  0.26335  0.96684  0.12370  1.0000
  H   H414      1.0  0.22111  0.94770  0.18864  1.0000
  N   N15       1.0  0.20393  0.85930  0.00165  1.0000
  C   C258      1.0  0.11899  0.71458  0.99770  1.0000
  C   C259      1.0  0.42463  0.96468  0.39627  1.0000
  C   C260      1.0  0.40921  0.95266  0.39962  1.0000
  C   C261      1.0  0.39032  0.96097  0.40860  1.0000
  H   H415      1.0  0.07730  0.64121  0.48009  1.0000
  H   H416      1.0  0.37251  0.98771  0.42246  1.0000
  H   H417      1.0  0.43907  0.95821  0.38853  1.0000
  H   H418      1.0  0.41195  0.93707  0.39438  1.0000
  H   H419      1.0  0.26522  0.90299  0.02405  1.0000
  C   C262      1.0  0.38870  0.86524  0.48944  1.0000
  N   N16       1.0  0.21081  0.80881  0.25292  1.0000
  C   C263      1.0  0.19545  0.79474  0.24653  1.0000
  C   C264      1.0  0.22412  0.81001  0.22482  1.0000
  C   C265      1.0  0.22884  0.79099  0.20517  1.0000
  C   C266      1.0  0.23391  0.78217  0.28249  1.0000
  H   H420      1.0  0.18868  0.83287  0.23998  1.0000
  H   H421      1.0  0.20233  0.77942  0.24212  1.0000
  H   H422      1.0  0.18722  0.79923  0.22475  1.0000
  H   H423      1.0  0.21727  0.82112  0.20783  1.0000
  H   H424      1.0  0.23849  0.81540  0.23159  1.0000
  H   H425      1.0  0.20316  0.86063  0.26332  1.0000
  H   H426      1.0  0.23428  0.77777  0.21893  1.0000
  H   H427      1.0  0.24050  0.79356  0.18787  1.0000
  H   H428      1.0  0.21565  0.78756  0.19173  1.0000
  H   H429      1.0  0.24103  0.77966  0.30567  1.0000
  H   H430      1.0  0.10693  0.50443  0.28430  1.0000
  N   N17       1.0  0.14690  0.76062  0.06161  1.0000
  C   C267      1.0  0.15996  0.74183  0.06951  1.0000
  C   C268      1.0  0.14417  0.76102  0.02670  1.0000
  C   C269      1.0  0.12716  0.75991  0.07781  1.0000
  C   C270      1.0  0.15706  0.77795  0.07320  1.0000
  C   C271      1.0  0.16295  0.73717  0.10452  1.0000
  H   H431      1.0  0.35565  0.95854  0.49046  1.0000
  H   H432      1.0  0.15623  0.84495  0.00815  1.0000
  C   C272      1.0  0.14678  0.79887  0.06637  1.0000
  H   H433      1.0  0.15398  0.72873  0.05883  1.0000
  H   H434      1.0  0.17511  0.74215  0.05980  1.0000
  N   N18       1.0  0.01850  0.71840  0.11835  1.0000
  C   C273      1.0  0.01586  0.71449  0.08413  1.0000
  H   H435      1.0  0.21462  0.98237  0.20821  1.0000
  H   H436      1.0  0.12782  0.76538  0.10221  1.0000
  H   H437      1.0  0.15845  0.77731  0.09898  1.0000
  H   H438      1.0  0.17275  0.77719  0.06537  1.0000
  H   H439      1.0  0.17138  0.72229  0.10712  1.0000
  H   H440      1.0  0.17181  0.74790  0.11611  1.0000
  H   H441      1.0  0.14878  0.73660  0.11712  1.0000
  H   H442      1.0  0.42835  0.83918  0.41344  1.0000
  H   H443      1.0  0.01971  0.76457  0.12275  1.0000
  H   H444      1.0  0.03139  0.70633  0.04093  1.0000
  H   H445      1.0  0.21936  0.84506  0.07771  1.0000
  H   H446      1.0  0.37519  0.96674  0.26319  1.0000
  H   H447      1.0  0.01548  0.57334  0.46371  1.0000
  H   H448      1.0  0.20324  0.87197  0.04821  1.0000
  C   C274      1.0  0.09301  0.50259  0.36417  1.0000
  C   C275      1.0  0.02701  0.69845  0.16917  1.0000
  H   H449      1.0  0.09578  0.77081  0.07799  1.0000
  H   H450      1.0  0.10963  0.52631  0.24453  1.0000
  H   H451      1.0  0.08366  0.53021  0.23783  1.0000
  C   C276      1.0  0.29606  0.93546  0.19251  1.0000
  H   H452      1.0  0.13212  0.54070  0.32612  1.0000
  H   H453      1.0  0.00813  0.72749  0.07190  1.0000
  H   H454      1.0  0.02206  0.75327  0.08464  1.0000
  C   C277      1.0  0.37450  0.88166  0.49209  1.0000
  H   H455      1.0  0.13669  0.74795  0.01917  1.0000
  H   H456      1.0  0.26234  0.95546  0.21419  1.0000
  H   H457      1.0  0.30961  0.92723  0.29762  1.0000
  H   H458      1.0  0.44242  0.87644  0.44059  1.0000
  H   H459      1.0  0.06566  0.63110  0.44763  1.0000
  H   H460      1.0  0.28382  0.93822  0.17519  1.0000
  H   H461      1.0  0.41040  0.96678  0.48523  1.0000
  H   H462      1.0  0.00059  0.72738  0.23988  1.0000
  H   H463      1.0  0.02766  0.55029  0.47720  1.0000
  H   H464      1.0  0.48823  0.95686  0.37938  1.0000
  H   H465      1.0  0.45865  0.88362  0.49013  1.0000
  H   H466      1.0  0.30006  0.97214  0.23873  1.0000
  H   H467      1.0  0.04499  0.72084  0.06607  1.0000
  H   H468      1.0  0.21318  0.80463  0.30281  1.0000
  H   H469      1.0  0.30530  0.94796  0.18979  1.0000
  H   H470      1.0  0.46730  0.86354  0.34004  1.0000
  H   H471      1.0  0.22130  0.84846  0.23820  1.0000
  H   H472      1.0  0.02404  0.54174  0.37307  1.0000
  C   C278      1.0  0.17976  0.79307  0.27212  1.0000
  H   H473      1.0  0.22340  0.84524  0.27998  1.0000
  H   H474      1.0  0.32215  0.91298  0.19766  1.0000
  C   C279      1.0  0.48931  0.97107  0.36671  1.0000
  H   H475      1.0  0.10388  0.56631  0.31085  1.0000
  C   C280      1.0  0.27510  0.95413  0.23055  1.0000
  H   H476      1.0  0.18650  0.78832  0.29478  1.0000
  H   H477      1.0  0.08360  0.50224  0.26721  1.0000
  H   H478      1.0  0.26814  0.95488  0.25385  1.0000
  H   H479      1.0  0.00074  0.73084  0.15684  1.0000
  H   H480      1.0  0.10724  0.57463  0.20133  1.0000
  C   C281      1.0  0.30491  0.93134  0.24781  1.0000
  H   H481      1.0  0.10695  0.57848  0.25964  1.0000
  H   H482      1.0  0.44635  0.81788  0.41928  1.0000
  C   C282      1.0  0.17126  0.84522  0.01832  1.0000
  N   N19       1.0  0.28784  0.93480  0.22518  1.0000
  H   H483      1.0  0.31574  0.91994  0.15852  1.0000
  H   H484      1.0  0.13415  0.77404  0.01887  1.0000
  H   H485      1.0  0.42394  0.98486  0.31496  1.0000
  C   C283      1.0  0.27489  0.91800  0.22627  1.0000
  C   C284      1.0  0.30948  0.91689  0.18173  1.0000
  H   H486      1.0  0.35107  0.95744  0.29272  1.0000
  C   C285      1.0  0.38704  0.98127  0.41513  1.0000
  C   C286      1.0  0.10492  0.55091  0.30149  1.0000
  C   C287      1.0  0.44884  0.87153  0.48926  1.0000
  H   H487      1.0  0.36187  0.93217  0.48512  1.0000
  C   C288      1.0  0.47974  0.87070  0.34861  1.0000
  C   C289      1.0  0.30102  0.93803  0.28192  1.0000
  C   C290      1.0  0.21497  0.84134  0.05366  1.0000
  H   H488      1.0  0.02406  0.61675  0.49156  1.0000
  H   H489      1.0  0.45432  0.85976  0.39652  1.0000
  H   H490      1.0  0.30110  0.90389  0.17859  1.0000
  H   H491      1.0  0.28740  0.97679  0.20176  1.0000
  H   H492      1.0  0.04278  0.69520  0.12597  1.0000
  H   H493      1.0  0.47513  0.98538  0.32504  1.0000
  H   H494      1.0  0.27531  0.90914  0.27557  1.0000
  H   H495      1.0  0.46253  0.96610  0.34154  1.0000
  C   C291      1.0  0.42114  0.98509  0.40148  1.0000
  C   C292      1.0  0.09244  0.51297  0.27894  1.0000
  C   C293      1.0  0.03513  0.70877  0.06570  1.0000
  H   H496      1.0  0.10491  0.76409  0.04033  1.0000
  H   H497      1.0  0.03524  0.68429  0.17710  1.0000
  C   C294      1.0  0.00271  0.77185  0.18376  1.0000
  H   H498      1.0  0.09760  0.54245  0.31933  1.0000
  H   H499      1.0  0.08305  0.57886  0.21737  1.0000
  H   H500      1.0  0.06618  0.56214  0.25080  1.0000
  H   H501      1.0  0.00601  0.70248  0.08085  1.0000
  H   H502      1.0  0.20135  0.83385  0.05562  1.0000
  H   H503      1.0  0.28546  0.93878  0.28969  1.0000
  H   H504      1.0  0.20902  0.82693  0.99957  1.0000
  H   H505      1.0  0.39503  0.97475  0.34764  1.0000
  H   H506      1.0  0.14044  0.80050  0.04271  1.0000
  C   C295      1.0  0.37746  0.98254  0.26028  1.0000
  H   H507      1.0  0.43398  0.85470  0.45679  1.0000
  H   H508      1.0  0.37108  0.98740  0.23735  1.0000
  C   C296      1.0  0.12896  0.70669  0.02432  1.0000
  C   C297      1.0  0.99696  0.56142  0.37414  1.0000
  C   C298      1.0  0.10552  0.56376  0.24881  1.0000
  H   H509      1.0  0.25461  0.90273  0.25420  1.0000
  H   H510      1.0  0.13628  0.55393  0.29135  1.0000
  H   H511      1.0  0.37289  0.94788  0.31503  1.0000
  C   C299      1.0  0.00113  0.73952  0.22361  1.0000
  C   C300      1.0  0.47642  0.88899  0.36388  1.0000
  H   H512      1.0  0.05036  0.64251  0.47733  1.0000
  C   C301      1.0  0.09940  0.72316  0.00049  1.0000
  H   H513      1.0  0.05610  0.53556  0.28282  1.0000
  H   H514      1.0  0.48473  0.86942  0.46570  1.0000
  C   C302      1.0  0.44689  0.86344  0.45591  1.0000
  C   C303      1.0  0.07371  0.56048  0.27375  1.0000
  N   N20       1.0  0.09469  0.55085  0.27032  1.0000
  C   C304      1.0  0.11283  0.49920  0.35481  1.0000
  C   C305      1.0  0.21233  0.86058  0.03412  1.0000
  C   C306      1.0  0.18159  0.86176  0.00236  1.0000
  H   H515      1.0  0.39613  0.96738  0.30853  1.0000
  H   H516      1.0  0.99296  0.64237  0.35802  1.0000
  H   H517      1.0  0.07374  0.57584  0.28319  1.0000
  H   H518      1.0  0.47748  0.87749  0.42761  1.0000
  H   H519      1.0  0.34219  0.98346  0.32979  1.0000
  C   C307      1.0  0.35795  0.95614  0.31613  1.0000
  H   H520      1.0  0.39367  0.92749  0.47464  1.0000
  H   H521      1.0  0.09274  0.55413  0.20448  1.0000
  C   C308      1.0  0.45944  0.84599  0.40971  1.0000
  H   H522      1.0  0.13003  0.52855  0.28951  1.0000
  C   C309      1.0  0.26448  0.91466  0.25739  1.0000
  C   C310      1.0  0.09514  0.53036  0.25633  1.0000
  C   C311      1.0  0.99533  0.64466  0.33273  1.0000
  H   H523      1.0  0.39358  0.98389  0.25887  1.0000
  H   H524      1.0  0.14406  0.69989  0.02230  1.0000
  H   H525      1.0  0.49047  0.91223  0.38642  1.0000
  C   C312      1.0  0.02889  0.75385  0.10787  1.0000
  C   C313      1.0  0.12708  0.54296  0.30164  1.0000
  H   H526      1.0  0.31062  0.91531  0.24836  1.0000
  C   C314      1.0  0.44305  0.83195  0.40629  1.0000
  H   H527      1.0  0.03363  0.73682  0.14941  1.0000
  H   H528      1.0  0.04337  0.69482  0.07424  1.0000
  H   H529      1.0  0.47479  0.80198  0.44811  1.0000
  H   H530      1.0  0.22734  0.86572  0.03312  1.0000
  H   H531      1.0  0.28358  0.90359  0.22106  1.0000
  N   N21       1.0  0.46478  0.85110  0.44266  1.0000
  H   H532      1.0  0.36640  0.88730  0.47167  1.0000
  C   C315      1.0  0.35775  0.97659  0.33178  1.0000
  H   H533      1.0  0.45560  0.82716  0.47077  1.0000
  C   C316      1.0  0.26545  0.88701  0.02312  1.0000
  H   H534      1.0  0.48876  0.81782  0.42550  1.0000
  C   C317      1.0  0.39296  0.98061  0.32358  1.0000
  H   H535      1.0  0.04330  0.75989  0.10379  1.0000
  H   H536      1.0  0.99665  0.61340  0.32871  1.0000
  C   C318      1.0  0.10877  0.77130  0.06240  1.0000
  H   H537      1.0  0.48443  0.95953  0.31925  1.0000
  H   H538      1.0  0.00811  0.55016  0.44960  1.0000
  H   H539      1.0  0.03449  0.71058  0.17962  1.0000
  C   C319      1.0  0.05962  0.54950  0.29404  1.0000
  H   H540      1.0  0.17165  0.77373  0.01296  1.0000
  H   H541      1.0  0.06525  0.54641  0.31790  1.0000
  H   H542      1.0  0.11055  0.78711  0.05819  1.0000
  H   H543      1.0  0.27599  0.98591  0.23687  1.0000
  C   C320      1.0  0.99964  0.59408  0.39605  1.0000
  C   C321      1.0  0.03286  0.73354  0.12422  1.0000
  H   H544      1.0  0.04838  0.72753  0.11878  1.0000
  C   C322      1.0  0.09636  0.56785  0.21623  1.0000
  H   H545      1.0  0.42807  0.91295  0.47214  1.0000
  H   H546      1.0  0.24098  0.98452  0.01370  1.0000
  H   H547      1.0  0.17611  0.87565  0.01478  1.0000
  H   H548      1.0  0.42676  0.93909  0.46743  1.0000
  H   H549      1.0  0.04535  0.55903  0.29665  1.0000
  H   H550      1.0  0.00320  0.78469  0.16887  1.0000
  H   H551      1.0  0.05421  0.60462  0.47636  1.0000
  H   H552      1.0  0.12343  0.74435  0.08000  1.0000
  H   H553      1.0  0.36039  0.97386  0.35715  1.0000
  C   C323      1.0  0.48295  0.81537  0.44903  1.0000
  C   C324      1.0  0.16318  0.76113  0.00702  1.0000
  C   C325      1.0  0.28554  0.97316  0.22676  1.0000
  C   C326      1.0  0.06454  0.63321  0.47320  1.0000
  H   H554      1.0  0.01108  0.64726  0.32904  1.0000
  H   H555      1.0  0.19189  0.90170  0.00301  1.0000
  C   C327      1.0  0.39525  0.96458  0.49351  1.0000
  H   H556      1.0  0.01179  0.69888  0.17878  1.0000
  C   C328      1.0  0.99865  0.72445  0.13341  1.0000
  H   H557      1.0  0.15798  0.80969  0.06741  1.0000
  H   H558      1.0  0.08467  0.51708  0.30093  1.0000
  H   H559      1.0  0.17868  0.83015  0.01428  1.0000
  C   C329      1.0  0.24924  0.98976  0.15350  1.0000
  H   H560      1.0  0.01890  0.68654  0.12525  1.0000
  H   H561      1.0  0.47234  0.83936  0.39621  1.0000
  C   C330      1.0  0.47749  0.97050  0.33609  1.0000
  C   C331      1.0  0.01301  0.55793  0.47034  1.0000
  C   C332      1.0  0.48162  0.86398  0.44203  1.0000
  C   C333      1.0  0.06517  0.61265  0.48892  1.0000
  H   H562      1.0  0.17276  0.74686  0.00878  1.0000
  H   H563      1.0  0.47681  0.83737  0.48498  1.0000
  H   H564      1.0  0.21696  0.89813  0.01835  1.0000
  H   H565      1.0  0.38666  0.96222  0.47210  1.0000
  C   C334      1.0  0.42451  0.92724  0.48452  1.0000
  H   H566      1.0  0.99288  0.60872  0.40225  1.0000
  N   N22       1.0  0.37207  0.99029  0.31933  1.0000
  C   C335      1.0  0.26594  0.87737  0.99419  1.0000
  Fe  Fe49      1.0  0.42888  0.87513  0.66606  1.0000
  S   S97       1.0  0.41724  0.90363  0.64259  1.0000
  S   S98       1.0  0.46108  0.86526  0.65255  1.0000
  Fe  Fe50      1.0  0.38776  0.87030  0.69555  1.0000
  S   S99       1.0  0.37406  0.89839  0.67356  1.0000
  S   S100      1.0  0.36794  0.85190  0.72472  1.0000
  Fe  Fe51      1.0  0.39063  0.88830  0.63004  1.0000
  S   S101      1.0  0.37408  0.89467  0.58440  1.0000
  Fe  Fe52      1.0  0.40182  0.91076  0.68792  1.0000
  S   S102      1.0  0.40023  0.93987  0.71289  1.0000
  S   S103      1.0  0.40279  0.85907  0.65073  1.0000
  S   S104      1.0  0.41511  0.88335  0.71268  1.0000
  Fe  Fe53      1.0  0.23094  0.90567  0.86284  1.0000
  S   S105      1.0  0.26277  0.90468  0.87552  1.0000
  S   S106      1.0  0.21366  0.93635  0.85965  1.0000
  Fe  Fe54      1.0  0.23167  0.86002  0.86808  1.0000
  S   S107      1.0  0.26449  0.85684  0.88079  1.0000
  S   S108      1.0  0.21740  0.83042  0.87099  1.0000
  Fe  Fe55      1.0  0.25634  0.88288  0.91233  1.0000
  S   S109      1.0  0.26688  0.89173  0.95995  1.0000
  Fe  Fe56      1.0  0.26818  0.87904  0.84226  1.0000
  S   S110      1.0  0.29415  0.88513  0.81008  1.0000
  S   S111      1.0  0.22390  0.88515  0.90175  1.0000
  S   S112      1.0  0.23598  0.88088  0.82754  1.0000
  Fe  Fe57      1.0  0.12219  0.76193  0.87217  1.0000
  S   S113      1.0  0.13795  0.73116  0.87692  1.0000
  S   S114      1.0  0.13400  0.79244  0.86436  1.0000
  Fe  Fe58      1.0  0.08132  0.74609  0.88306  1.0000
  S   S115      1.0  0.09444  0.71439  0.88914  1.0000
  S   S116      1.0  0.04917  0.75830  0.89223  1.0000
  Fe  Fe59      1.0  0.11771  0.72744  0.91766  1.0000
  S   S117      1.0  0.13161  0.71336  0.96159  1.0000
  Fe  Fe60      1.0  0.11347  0.72021  0.84776  1.0000
  S   S118      1.0  0.12342  0.69759  0.80936  1.0000
  S   S119      1.0  0.10338  0.75866  0.91475  1.0000
  S   S120      1.0  0.09897  0.75144  0.83986  1.0000
  Fe  Fe61      1.0  0.06711  0.59304  0.64564  1.0000
  S   S121      1.0  0.06834  0.58297  0.69520  1.0000
  S   S122      1.0  0.03886  0.60238  0.61989  1.0000
  Fe  Fe62      1.0  0.11111  0.58786  0.63905  1.0000
  S   S123      1.0  0.11627  0.57723  0.68888  1.0000
  S   S124      1.0  0.13504  0.59415  0.60490  1.0000
  Fe  Fe63      1.0  0.09112  0.55859  0.67870  1.0000
  S   S125      1.0  0.08362  0.52792  0.69438  1.0000
  Fe  Fe64      1.0  0.09302  0.60244  0.70170  1.0000
  S   S126      1.0  0.08861  0.62301  0.74464  1.0000
  S   S127      1.0  0.08796  0.56770  0.62833  1.0000
  S   S128      1.0  0.08988  0.61411  0.65270  1.0000
  C   C336      1.0  0.02281  0.58433  0.62736  1.0000
  H   H567      1.0  0.26690  0.84909  0.97109  1.0000
  H   H568      1.0  0.01634  0.59191  0.69660  1.0000
  H   H569      1.0  0.07614  0.63938  0.53202  1.0000
  C   C337      1.0  0.01688  0.55294  0.65095  1.0000
  C   C338      1.0  0.02993  0.56669  0.64241  1.0000
  H   H570      1.0  0.46208  0.98867  0.67369  1.0000
  H   H571      1.0  0.46575  0.90956  0.70947  1.0000
  H   H572      1.0  0.02244  0.53955  0.66329  1.0000
  H   H573      1.0  0.04548  0.56367  0.64800  1.0000
  C   C339      1.0  0.13219  0.59454  0.56382  1.0000
  C   C340      1.0  0.11913  0.58331  0.54787  1.0000
  C   C341      1.0  0.14419  0.60612  0.54663  1.0000
  H   H574      1.0  0.11041  0.57370  0.56095  1.0000
  H   H575      1.0  0.15461  0.61452  0.55849  1.0000
  C   C342      1.0  0.02746  0.74776  0.88052  1.0000
  C   C343      1.0  0.00879  0.75686  0.88993  1.0000
  H   H576      1.0  0.01027  0.62604  0.52473  1.0000
  C   C344      1.0  0.14410  0.65082  0.85497  1.0000
  H   H577      1.0  0.40304  0.96220  0.55643  1.0000
  C   C345      1.0  0.02833  0.73073  0.86203  1.0000
  H   H578      1.0  0.00796  0.77005  0.90424  1.0000
  C   C346      1.0  0.44881  0.92933  0.74052  1.0000
  C   C347      1.0  0.22274  0.99162  0.93776  1.0000
  H   H579      1.0  0.04256  0.72359  0.85457  1.0000
  H   H580      1.0  0.45045  0.96556  0.70614  1.0000
  H   H581      1.0  0.13120  0.67748  0.66314  1.0000
  C   C348      1.0  0.39885  0.85787  0.51629  1.0000
  H   H582      1.0  0.21831  0.98303  0.91735  1.0000
  H   H583      1.0  0.30599  0.90741  0.86635  1.0000
  C   C349      1.0  0.11309  0.67725  0.79124  1.0000
  C   C350      1.0  0.12480  0.66534  0.76994  1.0000
  C   C351      1.0  0.11758  0.64881  0.75547  1.0000
  C   C352      1.0  0.09843  0.64398  0.76179  1.0000
  C   C353      1.0  0.08682  0.65573  0.78341  1.0000
  C   C354      1.0  0.09402  0.67229  0.79793  1.0000
  H   H584      1.0  0.13966  0.66883  0.76487  1.0000
  H   H585      1.0  0.12695  0.63952  0.73995  1.0000
  H   H586      1.0  0.07204  0.65210  0.78877  1.0000
  H   H587      1.0  0.08474  0.68126  0.81413  1.0000
  C   C355      1.0  0.19389  0.82039  0.86971  1.0000
  C   C356      1.0  0.19326  0.79989  0.87498  1.0000
  C   C357      1.0  0.17520  0.79111  0.87379  1.0000
  C   C358      1.0  0.15736  0.80268  0.86715  1.0000
  C   C359      1.0  0.15795  0.82323  0.86218  1.0000
  C   C360      1.0  0.17599  0.83203  0.86354  1.0000
  H   H588      1.0  0.20692  0.79065  0.87973  1.0000
  H   H589      1.0  0.17517  0.77532  0.87760  1.0000
  H   H590      1.0  0.14435  0.83244  0.85701  1.0000
  H   H591      1.0  0.17609  0.84777  0.85937  1.0000
  H   H592      1.0  0.10828  0.57500  0.50254  1.0000
  H   H593      1.0  0.01045  0.60757  0.74852  1.0000
  H   H594      1.0  0.14961  0.62809  0.81935  1.0000
  H   H595      1.0  0.99907  0.57862  0.74485  1.0000
  H   H596      1.0  0.44026  0.94419  0.74148  1.0000
  C   C361      1.0  0.38030  0.88304  0.54824  1.0000
  H   H597      1.0  0.02143  0.60109  0.52554  1.0000
  C   C362      1.0  0.39492  0.86695  0.54552  1.0000
  H   H598      1.0  0.09265  0.61736  0.52950  1.0000
  H   H599      1.0  0.40284  0.86120  0.56603  1.0000
  C   C363      1.0  0.34782  0.86132  0.74914  1.0000
  C   C364      1.0  0.33572  0.84801  0.76286  1.0000
  C   C365      1.0  0.31921  0.85492  0.78145  1.0000
  C   C366      1.0  0.31467  0.87528  0.78679  1.0000
  C   C367      1.0  0.32680  0.88855  0.77311  1.0000
  C   C368      1.0  0.34324  0.88166  0.75444  1.0000
  H   H600      1.0  0.33904  0.83225  0.75886  1.0000
  H   H601      1.0  0.30994  0.84450  0.79142  1.0000
  H   H602      1.0  0.32347  0.90433  0.77699  1.0000
  H   H603      1.0  0.35237  0.89213  0.74417  1.0000
  H   H604      1.0  0.30866  0.86344  0.98335  1.0000
  H   H605      1.0  0.10343  0.65669  0.65289  1.0000
  C   C369      1.0  0.21507  0.97670  0.85310  1.0000
  C   C370      1.0  0.22541  0.95772  0.84949  1.0000
  C   C371      1.0  0.24471  0.95617  0.83766  1.0000
  C   C372      1.0  0.25339  0.97337  0.82896  1.0000
  H   H606      1.0  0.47389  0.86857  0.71726  1.0000
  H   H607      1.0  0.20005  0.97805  0.86192  1.0000
  H   H608      1.0  0.25277  0.94169  0.83439  1.0000
  H   H609      1.0  0.26815  0.97189  0.81919  1.0000
  C   C373      1.0  0.45786  0.95804  0.68567  1.0000
  C   C374      1.0  0.41112  0.97195  0.63674  1.0000
  C   C375      1.0  0.40523  0.95689  0.65593  1.0000
  C   C376      1.0  0.40435  0.95955  0.68820  1.0000
  C   C377      1.0  0.40824  0.97768  0.70110  1.0000
  H   H610      1.0  0.14760  0.66449  0.58846  1.0000
  H   H611      1.0  0.41229  0.96972  0.61188  1.0000
  H   H612      1.0  0.40152  0.94322  0.64577  1.0000
  H   H613      1.0  0.45893  0.91083  0.64795  1.0000
  H   H614      1.0  0.42386  0.93534  0.58220  1.0000
  C   C378      1.0  0.48253  0.96027  0.74055  1.0000
  H   H615      1.0  0.16279  0.68589  0.66951  1.0000
  H   H616      1.0  0.46637  0.97150  0.64176  1.0000
  H   H617      1.0  0.24970  0.98109  0.89622  1.0000
  H   H618      1.0  0.22662  0.87329  0.97663  1.0000
  H   H619      1.0  0.21284  0.98713  0.95661  1.0000
  H   H620      1.0  0.28643  0.98276  0.74061  1.0000
  C   C379      1.0  0.13420  0.66153  0.60181  1.0000
  H   H621      1.0  0.13051  0.62702  0.90452  1.0000
  C   C380      1.0  0.25713  0.98685  0.91686  1.0000
  C   C381      1.0  0.11050  0.65739  0.67608  1.0000
  H   H622      1.0  0.31878  0.84253  0.84755  1.0000
  H   H623      1.0  0.10169  0.66926  0.68949  1.0000
  H   H624      1.0  0.34490  0.85052  0.62124  1.0000
  H   H625      1.0  0.37639  0.87332  0.89465  1.0000
  C   C382      1.0  0.09740  0.66217  0.90655  1.0000
  C   C383      1.0  0.07891  0.62273  0.57430  1.0000
  C   C384      1.0  0.11134  0.65794  0.87850  1.0000
  H   H626      1.0  0.10681  0.64406  0.86827  1.0000
  H   H627      1.0  0.30253  0.87222  0.87442  1.0000
  H   H628      1.0  0.31513  0.85494  0.59508  1.0000
  C   C385      1.0  0.16810  0.67675  0.64913  1.0000
  H   H629      1.0  0.06561  0.63075  0.58525  1.0000
  H   H630      1.0  0.12784  0.67520  0.61363  1.0000
  C   C386      1.0  0.01056  0.68305  0.93173  1.0000
  C   C387      1.0  0.31841  0.91046  0.88182  1.0000
  H   H631      1.0  0.35114  0.85492  0.91646  1.0000
  H   H632      1.0  0.10747  0.66981  0.86087  1.0000
  H   H633      1.0  0.44508  0.95452  0.67139  1.0000
  C   C388      1.0  0.00270  0.58787  0.61974  1.0000
  H   H634      1.0  0.40973  0.84506  0.51449  1.0000
  H   H635      1.0  0.27124  0.97698  0.91965  1.0000
  C   C389      1.0  0.40926  0.94957  0.54166  1.0000
  C   C390      1.0  0.13206  0.66245  0.67356  1.0000
  H   H636      1.0  0.13350  0.62097  0.67151  1.0000
  H   H637      1.0  0.16196  0.59804  0.67575  1.0000
  C   C391      1.0  0.13895  0.67615  0.89491  1.0000
  H   H638      1.0  0.17900  0.61639  0.67389  1.0000
  H   H639      1.0  0.13414  0.68750  0.87690  1.0000
  C   C392      1.0  0.13904  0.63995  0.90871  1.0000
  H   H640      1.0  0.01066  0.61566  0.67736  1.0000
  H   H641      1.0  0.00129  0.49463  0.65496  1.0000
  H   H642      1.0  0.29952  0.87787  0.58960  1.0000
  H   H643      1.0  0.32331  0.87868  0.60501  1.0000
  H   H644      1.0  0.18852  0.83687  0.95154  1.0000
  H   H645      1.0  0.48450  0.97250  0.67235  1.0000
  H   H646      1.0  0.35829  0.90220  0.52339  1.0000
  H   H647      1.0  0.30551  0.90727  0.64899  1.0000
  N   N23       1.0  0.13330  0.65611  0.88513  1.0000
  H   H648      1.0  0.22639  0.95074  0.92454  1.0000
  C   C393      1.0  0.35868  0.94409  0.50262  1.0000
  H   H649      1.0  0.12263  0.65807  0.58492  1.0000
  H   H650      1.0  0.03958  0.62297  0.55799  1.0000
  H   H651      1.0  0.00830  0.67142  0.91432  1.0000
  C   C394      1.0  0.46844  0.97342  0.66721  1.0000
  C   C395      1.0  0.24639  0.96466  0.95683  1.0000
  H   H652      1.0  0.12546  0.63534  0.62442  1.0000
  H   H653      1.0  0.07891  0.58647  0.54249  1.0000
  C   C396      1.0  0.21217  0.84020  0.98614  1.0000
  H   H654      1.0  0.40749  0.97979  0.72606  1.0000
  H   H655      1.0  0.13143  0.63296  0.95656  1.0000
  C   C397      1.0  0.31464  0.86498  0.93371  1.0000
  C   C398      1.0  0.13879  0.64363  0.62378  1.0000
  H   H656      1.0  0.08191  0.66476  0.89788  1.0000
  N   N24       1.0  0.14610  0.64763  0.65611  1.0000
  C   C399      1.0  0.06337  0.59163  0.53619  1.0000
  C   C400      1.0  0.13006  0.59580  0.49786  1.0000
  C   C401      1.0  0.00411  0.61592  0.72788  1.0000
  H   H657      1.0  0.04260  0.57903  0.50349  1.0000
  H   H658      1.0  0.33227  0.90833  0.86822  1.0000
  C   C402      1.0  0.02359  0.61621  0.51736  1.0000
  C   C403      1.0  0.31866  0.89769  0.91176  1.0000
  H   H659      1.0  0.05655  0.56137  0.52805  1.0000
  C   C404      1.0  0.14311  0.60676  0.51407  1.0000
  H   H660      1.0  0.35813  0.85542  0.65641  1.0000
  H   H661      1.0  0.12401  0.63490  0.82605  1.0000
  C   C405      1.0  0.38678  0.98459  0.50775  1.0000
  C   C406      1.0  0.24198  0.94877  0.93267  1.0000
  C   C407      1.0  0.34712  0.87120  0.91382  1.0000
  H   H662      1.0  0.39952  0.92852  0.57637  1.0000
  H   H663      1.0  0.12617  0.65869  0.94887  1.0000
  H   H664      1.0  0.31585  0.92640  0.88821  1.0000
  H   H665      1.0  0.30315  0.90025  0.92071  1.0000
  C   C408      1.0  0.11500  0.49971  0.67828  1.0000
  H   H666      1.0  0.35168  0.87787  0.93598  1.0000
  H   H667      1.0  0.09802  0.64920  0.92246  1.0000
  H   H668      1.0  0.16319  0.69155  0.91249  1.0000
  H   H669      1.0  0.04173  0.63973  0.52690  1.0000
  H   H670      1.0  0.13761  0.66441  0.69769  1.0000
  C   C409      1.0  0.13856  0.63209  0.83800  1.0000
  C   C410      1.0  0.11801  0.58396  0.51484  1.0000
  H   H671      1.0  0.15892  0.76282  0.98207  1.0000
  H   H672      1.0  0.46044  0.92776  0.75876  1.0000
  H   H673      1.0  0.37548  0.93018  0.54039  1.0000
  H   H674      1.0  0.23631  0.96274  0.97677  1.0000
  H   H675      1.0  0.16809  0.66514  0.91527  1.0000
  H   H676      1.0  0.01158  0.70981  0.83861  1.0000
  H   H677      1.0  0.31224  0.88787  0.97092  1.0000
  H   H678      1.0  0.13858  0.61911  0.85372  1.0000
  H   H679      1.0  0.17428  0.65135  0.67789  1.0000
  H   H680      1.0  0.09154  0.72925  0.98014  1.0000
  C   C411      1.0  0.16457  0.61247  0.66497  1.0000
  H   H681      1.0  0.16577  0.60996  0.63957  1.0000
  H   H682      1.0  0.99716  0.60145  0.60796  1.0000
  H   H683      1.0  0.00432  0.56782  0.51586  1.0000
  C   C412      1.0  0.99206  0.73209  0.86227  1.0000
  N   N25       1.0  0.06172  0.61268  0.52367  1.0000
  H   H684      1.0  0.15134  0.64775  0.95401  1.0000
  C   C413      1.0  0.16660  0.65448  0.65518  1.0000
  H   H685      1.0  0.33317  0.86903  0.97527  1.0000
  H   H686      1.0  0.43823  0.91838  0.74620  1.0000
  H   H687      1.0  0.01318  0.67637  0.95512  1.0000
  C   C414      1.0  0.41560  0.98987  0.64973  1.0000
  H   H688      1.0  0.16017  0.68242  0.62799  1.0000
  C   C415      1.0  0.31873  0.86822  0.87761  1.0000
  H   H689      1.0  0.16940  0.67762  0.87805  1.0000
  C   C416      1.0  0.01615  0.60823  0.69915  1.0000
  N   N26       1.0  0.32510  0.87567  0.90871  1.0000
  C   C417      1.0  0.26635  0.85668  0.99327  1.0000
  C   C418      1.0  0.99666  0.55681  0.64451  1.0000
  H   H690      1.0  0.18395  0.67906  0.64585  1.0000
  H   H691      1.0  0.09190  0.63019  0.58196  1.0000
  H   H692      1.0  0.44457  0.92311  0.69253  1.0000
  H   H693      1.0  0.41982  0.91806  0.55216  1.0000
  C   C419      1.0  0.48574  0.87224  0.70213  1.0000
  H   H694      1.0  0.14189  0.66330  0.83804  1.0000
  H   H695      1.0  0.00769  0.63139  0.73185  1.0000
  H   H696      1.0  0.24426  0.93387  0.94380  1.0000
  C   C420      1.0  0.16125  0.67736  0.90044  1.0000
  H   H697      1.0  0.37057  0.95611  0.54436  1.0000
  C   C421      1.0  0.48066  0.92984  0.66620  1.0000
  C   C422      1.0  0.20482  0.83703  0.95269  1.0000
  H   H698      1.0  0.17593  0.64601  0.63733  1.0000
  C   C423      1.0  0.14739  0.62826  0.67400  1.0000
  C   C424      1.0  0.07781  0.62337  0.53840  1.0000
  C   C425      1.0  0.01073  0.72299  0.85295  1.0000
  H   H699      1.0  0.14907  0.63088  0.69941  1.0000
  H   H700      1.0  0.05490  0.59083  0.55831  1.0000
  H   H701      1.0  0.49072  0.93979  0.65523  1.0000
  H   H702      1.0  0.10938  0.64340  0.68900  1.0000
  H   H703      1.0  0.13113  0.68174  0.91620  1.0000
  H   H704      1.0  0.45641  0.93572  0.63161  1.0000
  H   H705      1.0  0.47626  0.91780  0.62015  1.0000
  H   H706      1.0  0.49059  0.91641  0.67319  1.0000
  H   H707      1.0  0.17517  0.86416  0.97860  1.0000
  H   H708      1.0  0.15493  0.63419  0.90568  1.0000
  H   H709      1.0  0.31361  0.83703  0.88691  1.0000
  H   H710      1.0  0.99904  0.71252  0.94382  1.0000
  C   C426      1.0  0.41319  0.93169  0.56400  1.0000
  C   C427      1.0  0.09497  0.50355  0.68634  1.0000
  H   H711      1.0  0.14984  0.63331  0.61117  1.0000
  H   H712      1.0  0.31959  0.84880  0.93375  1.0000
  H   H713      1.0  0.35474  0.83068  0.64588  1.0000
  C   C428      1.0  0.37000  0.89017  0.52144  1.0000
  H   H714      1.0  0.20960  0.84819  0.93617  1.0000
  H   H715      1.0  0.16039  0.64842  0.85886  1.0000
  H   H716      1.0  0.48210  0.97486  0.72867  1.0000
  N   N27       1.0  0.06973  0.81223  0.84344  1.0000
  C   C429      1.0  0.08356  0.81013  0.81573  1.0000
  C   C430      1.0  0.05593  0.79623  0.84075  1.0000
  C   C431      1.0  0.08234  0.80847  0.87222  1.0000
  C   C432      1.0  0.05899  0.83291  0.84355  1.0000
  C   C433      1.0  0.09896  0.82535  0.81331  1.0000
  C   C434      1.0  0.04298  0.79684  0.81117  1.0000
  C   C435      1.0  0.07157  0.80962  0.90380  1.0000
  C   C436      1.0  0.03905  0.83598  0.86142  1.0000
  H   H717      1.0  0.09188  0.79502  0.81522  1.0000
  H   H718      1.0  0.07512  0.81169  0.79353  1.0000
  H   H719      1.0  0.04568  0.79621  0.86076  1.0000
  H   H720      1.0  0.06450  0.78130  0.84155  1.0000
  H   H721      1.0  0.09089  0.79352  0.87091  1.0000
  H   H722      1.0  0.09356  0.81923  0.87405  1.0000
  H   H723      1.0  0.06880  0.84366  0.85306  1.0000
  H   H724      1.0  0.05552  0.83778  0.81917  1.0000
  H   H725      1.0  0.10727  0.82280  0.79112  1.0000
  H   H726      1.0  0.09197  0.84089  0.81282  1.0000
  H   H727      1.0  0.11023  0.82354  0.83200  1.0000
  H   H728      1.0  0.03096  0.78709  0.81471  1.0000
  H   H729      1.0  0.03591  0.81193  0.80576  1.0000
  H   H730      1.0  0.05168  0.79080  0.79078  1.0000
  H   H731      1.0  0.06525  0.82500  0.90912  1.0000
  H   H732      1.0  0.08260  0.80529  0.92237  1.0000
  H   H733      1.0  0.06014  0.79915  0.90566  1.0000
  H   H734      1.0  0.03776  0.85080  0.87274  1.0000
  H   H735      1.0  0.03707  0.82510  0.88004  1.0000
  H   H736      1.0  0.02636  0.83644  0.84499  1.0000
  C   C437      1.0  0.32289  0.84569  0.87192  1.0000
  C   C438      1.0  0.36077  0.87841  0.88854  1.0000
  H   H737      1.0  0.32574  0.87555  0.85798  1.0000
  C   C439      1.0  0.46700  0.92336  0.64026  1.0000
  C   C440      1.0  0.37533  0.94430  0.52713  1.0000
  C   C441      1.0  0.31757  0.87197  0.96750  1.0000
  H   H738      1.0  0.35809  0.87213  0.86528  1.0000
  H   H739      1.0  0.35967  0.89480  0.88744  1.0000
  N   N28       1.0  0.31485  0.86625  0.66551  1.0000
  C   C442      1.0  0.30221  0.86670  0.69457  1.0000
  C   C443      1.0  0.32715  0.88349  0.66755  1.0000
  C   C444      1.0  0.32818  0.84689  0.66524  1.0000
  C   C445      1.0  0.30116  0.86774  0.63776  1.0000
  C   C446      1.0  0.29111  0.84828  0.70059  1.0000
  C   C447      1.0  0.31553  0.90427  0.66921  1.0000
  C   C448      1.0  0.34740  0.84613  0.64580  1.0000
  C   C449      1.0  0.31058  0.86976  0.60534  1.0000
  H   H740      1.0  0.31135  0.86863  0.71564  1.0000
  H   H741      1.0  0.29068  0.87966  0.69439  1.0000
  H   H742      1.0  0.33752  0.88390  0.64771  1.0000
  H   H743      1.0  0.33689  0.88176  0.68847  1.0000
  H   H744      1.0  0.33323  0.84280  0.68932  1.0000
  H   H745      1.0  0.31993  0.83450  0.65710  1.0000
  H   H746      1.0  0.29306  0.85433  0.63626  1.0000
  H   H747      1.0  0.28903  0.88004  0.64046  1.0000
  H   H748      1.0  0.28070  0.84565  0.68154  1.0000
  H   H749      1.0  0.30143  0.83473  0.70481  1.0000
  H   H750      1.0  0.28213  0.85083  0.72216  1.0000
  N   N29       1.0  0.39569  0.94674  0.51460  1.0000
  H   H751      1.0  0.30717  0.90655  0.69134  1.0000
  H   H752      1.0  0.32627  0.91559  0.66869  1.0000
  H   H753      1.0  0.08116  0.60738  0.58359  1.0000
  H   H754      1.0  0.32789  0.90459  0.92930  1.0000
  H   H755      1.0  0.33879  0.84030  0.87462  1.0000
  H   H756      1.0  0.28881  0.98743  0.78123  1.0000
  C   C450      1.0  0.48286  0.87275  0.66987  1.0000
  H   H757      1.0  0.10025  0.67564  0.91962  1.0000
  H   H758      1.0  0.15268  0.61569  0.50124  1.0000
  H   H759      1.0  0.25209  0.94827  0.91233  1.0000
  H   H760      1.0  0.12392  0.51193  0.67553  1.0000
  C   C451      1.0  0.05722  0.57524  0.51441  1.0000
  H   H761      1.0  0.46858  0.95977  0.75365  1.0000
  H   H762      1.0  0.29837  0.86628  0.92916  1.0000
  H   H763      1.0  0.03177  0.61140  0.70208  1.0000
  H   H764      1.0  0.42381  0.95382  0.53348  1.0000
  H   H765      1.0  0.02439  0.68937  0.92474  1.0000
  H   H766      1.0  0.21149  0.82235  0.94412  1.0000
  C   C452      1.0  0.48684  0.94295  0.71729  1.0000
  C   C453      1.0  0.13673  0.64560  0.94361  1.0000
  H   H767      1.0  0.37132  0.98444  0.51598  1.0000
  C   C454      1.0  0.45751  0.92463  0.70799  1.0000
  H   H768      1.0  0.45373  0.85972  0.50627  1.0000
  N   N30       1.0  0.47052  0.93932  0.69460  1.0000
  C   C455      1.0  0.04201  0.62365  0.53241  1.0000
  C   C456      1.0  0.99334  0.69987  0.93144  1.0000
  H   H769      1.0  0.00058  0.54271  0.50851  1.0000
  H   H770      1.0  0.20267  0.87746  0.95978  1.0000
  H   H771      1.0  0.49158  0.92916  0.73077  1.0000
  N   N31       1.0  0.24428  0.98593  0.94547  1.0000
  C   C457      1.0  0.99855  0.55787  0.49812  1.0000
  H   H772      1.0  0.06846  0.57186  0.49585  1.0000
  H   H773      1.0  0.26169  0.96034  0.96571  1.0000
  H   H774      1.0  0.34475  0.94119  0.51457  1.0000
  H   H775      1.0  0.43528  0.92742  0.50386  1.0000
  C   C458      1.0  0.21058  0.87615  0.98250  1.0000
  H   H776      1.0  0.40099  0.91470  0.50928  1.0000
  H   H777      1.0  0.22867  0.83927  0.98530  1.0000
  H   H778      1.0  0.21241  0.90794  0.98030  1.0000
  H   H779      1.0  0.43398  0.87818  0.49706  1.0000
  H   H780      1.0  0.39621  0.98927  0.52691  1.0000
  C   C459      1.0  0.40284  0.92850  0.49597  1.0000
  Fe  Fe65      1.0  0.78292  0.08905  0.16109  1.0000
  S   S129      1.0  0.74961  0.09625  0.15693  1.0000
  S   S130      1.0  0.80120  0.11544  0.15063  1.0000
  Fe  Fe66      1.0  0.77793  0.04426  0.17097  1.0000
  S   S131      1.0  0.74494  0.04897  0.16707  1.0000
  S   S132      1.0  0.79307  0.01330  0.18127  1.0000
  Fe  Fe67      1.0  0.75073  0.06896  0.12679  1.0000
  S   S133      1.0  0.73437  0.06388  0.08185  1.0000
  Fe  Fe68      1.0  0.74682  0.07545  0.19767  1.0000
  S   S134      1.0  0.73043  0.08076  0.24426  1.0000
  S   S135      1.0  0.78381  0.06261  0.12875  1.0000
  S   S136      1.0  0.78004  0.06999  0.20376  1.0000
  Fe  Fe69      1.0  0.62470  0.06764  0.41273  1.0000
  S   S137      1.0  0.60788  0.07882  0.36955  1.0000
  S   S138      1.0  0.62887  0.08638  0.45563  1.0000
  Fe  Fe70      1.0  0.62922  0.02535  0.38997  1.0000
  S   S139      1.0  0.61285  0.03278  0.34561  1.0000
  H   H781      1.0  0.92144  0.09304  0.21246  1.0000
  Fe  Fe71      1.0  0.63134  0.05868  0.34332  1.0000
  S   S140      1.0  0.64483  0.06300  0.29472  1.0000
  Fe  Fe72      1.0  0.59090  0.05198  0.37499  1.0000
  S   S141      1.0  0.55835  0.04608  0.38107  1.0000
  S   S142      1.0  0.64910  0.04967  0.38633  1.0000
  S   S143      1.0  0.60652  0.04245  0.41950  1.0000
  Fe  Fe73      1.0  0.91975  0.38731  0.36994  1.0000
  S   S144      1.0  0.93443  0.36819  0.40826  1.0000
  S   S145      1.0  0.92092  0.41980  0.38409  1.0000
  Fe  Fe74      1.0  0.90952  0.34983  0.33360  1.0000
  S   S146      1.0  0.92310  0.32899  0.36994  1.0000
  S   S147      1.0  0.89611  0.33745  0.28962  1.0000
  Fe  Fe75      1.0  0.90857  0.35050  0.40505  1.0000
  S   S148      1.0  0.89016  0.33985  0.44463  1.0000
  Fe  Fe76      1.0  0.94740  0.34884  0.36971  1.0000
  S   S149      1.0  0.97897  0.33591  0.36645  1.0000
  S   S150      1.0  0.89285  0.37031  0.36870  1.0000
  S   S151      1.0  0.93494  0.36886  0.33142  1.0000
  Fe  Fe77      1.0  0.89661  0.22427  0.12478  1.0000
  S   S152      1.0  0.90736  0.19181  0.12582  1.0000
  S   S153      1.0  0.88477  0.23818  0.07944  1.0000
  Fe  Fe78      1.0  0.90517  0.23079  0.19379  1.0000
  S   S154      1.0  0.91630  0.19835  0.19901  1.0000
  S   S155      1.0  0.90923  0.24786  0.23935  1.0000
  Fe  Fe79      1.0  0.93253  0.20166  0.15418  1.0000
  S   S156      1.0  0.96390  0.18707  0.14551  1.0000
  Fe  Fe80      1.0  0.89000  0.19102  0.17052  1.0000
  S   S157      1.0  0.87483  0.16386  0.18767  1.0000
  S   S158      1.0  0.92296  0.23426  0.15006  1.0000
  S   S159      1.0  0.87769  0.22330  0.16826  1.0000
  C   C460      1.0  0.89999  0.31250  0.27580  1.0000
  C   C461      1.0  0.90822  0.29689  0.29465  1.0000
  C   C462      1.0  0.91056  0.27727  0.28316  1.0000
  C   C463      1.0  0.90501  0.27291  0.25254  1.0000
  C   C464      1.0  0.89677  0.28850  0.23364  1.0000
  C   C465      1.0  0.89414  0.30812  0.24532  1.0000
  H   H782      1.0  0.91290  0.29988  0.31807  1.0000
  H   H783      1.0  0.91693  0.26536  0.29804  1.0000
  H   H784      1.0  0.89235  0.28545  0.21007  1.0000
  H   H785      1.0  0.88764  0.32001  0.23052  1.0000
  C   C466      1.0  0.91481  0.21990  0.04272  1.0000
  C   C467      1.0  0.89722  0.23265  0.04383  1.0000
  C   C468      1.0  0.88913  0.24085  0.01592  1.0000
  H   H786      1.0  0.92114  0.21347  0.06401  1.0000
  H   H787      1.0  0.87554  0.25075  0.01663  1.0000
  C   C469      1.0  0.96517  0.24909  0.25625  1.0000
  C   C470      1.0  0.96839  0.30253  0.22539  1.0000
  H   H788      1.0  0.90251  0.46489  0.29524  1.0000
  H   H789      1.0  0.93852  0.15342  0.11984  1.0000
  H   H790      1.0  0.97703  0.31505  0.23170  1.0000
  C   C471      1.0  0.72808  0.01916  0.22813  1.0000
  H   H791      1.0  0.96060  0.45620  0.37356  1.0000
  H   H792      1.0  0.82267  0.31783  0.36417  1.0000
  H   H793      1.0  0.96895  0.22751  0.16499  1.0000
  H   H794      1.0  0.77063  0.03903  0.27999  1.0000
  C   C472      1.0  0.93466  0.14057  0.13387  1.0000
  H   H795      1.0  0.94513  0.25158  0.08853  1.0000
  H   H796      1.0  0.98537  0.45220  0.38475  1.0000
  C   C473      1.0  0.87521  0.18830  0.00849  1.0000
  H   H797      1.0  0.97068  0.37783  0.37794  1.0000
  C   C474      1.0  0.91847  0.46041  0.38163  1.0000
  C   C475      1.0  0.91621  0.44304  0.36470  1.0000
  C   C476      1.0  0.91049  0.44475  0.33343  1.0000
  H   H798      1.0  0.92293  0.45930  0.40579  1.0000
  H   H799      1.0  0.90869  0.43153  0.32007  1.0000
  C   C477      1.0  0.53436  0.05745  0.37110  1.0000
  C   C478      1.0  0.51779  0.04894  0.38272  1.0000
  C   C479      1.0  0.53124  0.07408  0.35165  1.0000
  H   H800      1.0  0.52005  0.03635  0.39822  1.0000
  H   H801      1.0  0.54382  0.08081  0.34254  1.0000
  H   H802      1.0  0.53740  0.00626  0.37223  1.0000
  H   H803      1.0  0.96598  0.23581  0.24093  1.0000
  H   H804      1.0  0.94953  0.10590  0.17434  1.0000
  C   C480      1.0  0.82220  0.12819  0.16090  1.0000
  C   C481      1.0  0.83455  0.12259  0.18626  1.0000
  C   C482      1.0  0.85048  0.13365  0.19394  1.0000
  C   C483      1.0  0.85441  0.15049  0.17652  1.0000
  C   C484      1.0  0.84210  0.15605  0.15112  1.0000
  C   C485      1.0  0.82616  0.14501  0.14347  1.0000
  H   H805      1.0  0.83180  0.10978  0.20002  1.0000
  H   H806      1.0  0.85980  0.12915  0.21367  1.0000
  H   H807      1.0  0.84476  0.16894  0.13746  1.0000
  H   H808      1.0  0.81672  0.14962  0.12391  1.0000
  H   H809      1.0  0.91031  0.14942  0.22141  1.0000
  C   C486      1.0  0.90823  0.10273  0.20446  1.0000
  H   H810      1.0  0.87173  0.18937  0.05882  1.0000
  H   H811      1.0  0.72357  0.03534  0.22481  1.0000
  H   H812      1.0  0.50224  0.13092  0.39552  1.0000
  C   C487      1.0  0.70661  0.07539  0.25765  1.0000
  C   C488      1.0  0.70258  0.07610  0.28985  1.0000
  C   C489      1.0  0.68397  0.07204  0.30170  1.0000
  C   C490      1.0  0.66894  0.06751  0.28141  1.0000
  C   C491      1.0  0.67301  0.06673  0.24919  1.0000
  C   C492      1.0  0.69173  0.07049  0.23738  1.0000
  H   H813      1.0  0.71391  0.07989  0.30584  1.0000
  H   H814      1.0  0.68112  0.07277  0.32648  1.0000
  H   H815      1.0  0.66151  0.06332  0.23322  1.0000
  H   H816      1.0  0.69447  0.06993  0.21257  1.0000
  C   C493      1.0  0.94663  0.31136  0.22081  1.0000
  C   C494      1.0  0.96875  0.31025  0.29473  1.0000
  H   H817      1.0  0.89976  0.10930  0.22472  1.0000
  H   H818      1.0  0.77323  0.03810  0.06985  1.0000
  H   H819      1.0  0.88494  0.31563  0.34714  1.0000
  C   C495      1.0  0.73486  0.06640  0.01818  1.0000
  C   C496      1.0  0.74108  0.07440  0.04624  1.0000
  C   C497      1.0  0.75239  0.09050  0.04529  1.0000
  H   H820      1.0  0.72605  0.05399  0.01882  1.0000
  H   H821      1.0  0.75718  0.09683  0.06678  1.0000
  H   H822      1.0  0.69816  0.01330  0.21320  1.0000
  C   C498      1.0  0.78105  0.03007  0.05014  1.0000
  C   C499      1.0  0.91357  0.11896  0.18159  1.0000
  H   H823      1.0  0.74274  0.01656  0.21679  1.0000
  H   H824      1.0  0.83167  0.31862  0.42551  1.0000
  H   H825      1.0  0.93327  0.15947  0.25928  1.0000
  H   H826      1.0  0.97213  0.41524  0.31557  1.0000
  H   H827      1.0  0.87080  0.30252  0.41155  1.0000
  C   C500      1.0  0.90921  0.48109  0.33641  1.0000
  H   H828      1.0  0.86233  0.34780  0.33044  1.0000
  H   H829      1.0  0.81760  0.34902  0.34597  1.0000
  C   C501      1.0  0.70586  0.01768  0.31077  1.0000
  H   H830      1.0  0.83590  0.31299  0.31402  1.0000
  H   H831      1.0  0.99024  0.17327  0.04883  1.0000
  H   H832      1.0  0.94366  0.16486  0.22271  1.0000
  C   C502      1.0  0.83579  0.32823  0.40606  1.0000
  H   H833      1.0  0.95626  0.48928  0.38704  1.0000
  H   H834      1.0  0.71266  0.00342  0.32057  1.0000
  H   H835      1.0  0.96900  0.24646  0.10595  1.0000
  H   H836      1.0  0.54263  0.99373  0.33554  1.0000
  C   C503      1.0  0.97182  0.48251  0.38932  1.0000
  C   C504      1.0  0.57529  0.07973  0.47955  1.0000
  H   H837      1.0  0.83948  0.30016  0.38148  1.0000
  H   H838      1.0  0.58303  0.07220  0.45935  1.0000
  H   H839      1.0  0.93996  0.31811  0.24240  1.0000
  H   H840      1.0  0.70175  0.03381  0.26782  1.0000
  H   H841      1.0  0.97532  0.20543  0.99618  1.0000
  C   C505      1.0  0.87929  0.17923  0.04116  1.0000
  H   H842      1.0  0.75371  0.00688  0.15843  1.0000
  C   C506      1.0  0.98500  0.44260  0.32590  1.0000
  H   H843      1.0  0.90560  0.15939  0.00648  1.0000
  C   C507      1.0  0.76139  0.99270  0.16476  1.0000
  C   C508      1.0  0.96409  0.47387  0.31818  1.0000
  H   H844      1.0  0.82884  0.34585  0.30758  1.0000
  C   C509      1.0  0.63469  0.05294  0.49293  1.0000
  C   C510      1.0  0.92476  0.13995  0.22280  1.0000
  H   H845      1.0  0.58108  0.09439  0.48140  1.0000
  H   H846      1.0  0.89531  0.17811  0.04701  1.0000
  C   C511      1.0  0.51175  0.08179  0.34353  1.0000
  C   C512      1.0  0.96884  0.12688  0.18992  1.0000
  H   H847      1.0  0.89405  0.29665  0.39290  1.0000
  C   C513      1.0  0.94919  0.11723  0.19317  1.0000
  C   C514      1.0  0.98512  0.19992  0.15111  1.0000
  H   H848      1.0  0.87827  0.33016  0.38000  1.0000
  N   N32       1.0  0.98611  0.22493  0.05204  1.0000
  H   H849      1.0  0.95388  0.22656  0.09745  1.0000
  H   H850      1.0  0.85777  0.34996  0.48505  1.0000
  C   C515      1.0  0.49838  0.05638  0.37418  1.0000
  H   H851      1.0  0.94211  0.15738  0.17362  1.0000
  H   H852      1.0  0.90223  0.39881  0.43581  1.0000
  H   H853      1.0  0.91717  0.11125  0.15912  1.0000
  H   H854      1.0  0.85000  0.33366  0.41305  1.0000
  H   H855      1.0  0.76444  0.03148  0.24211  1.0000
  C   C516      1.0  0.53157  0.00365  0.34864  1.0000
  C   C517      1.0  0.83751  0.31619  0.37545  1.0000
  H   H856      1.0  0.96120  0.42766  0.34869  1.0000
  H   H857      1.0  0.77236  0.01320  0.27209  1.0000
  H   H858      1.0  0.93715  0.30034  0.21163  1.0000
  C   C518      1.0  0.74198  0.02762  0.27878  1.0000
  N   N33       1.0  0.72895  0.01417  0.26238  1.0000
  C   C519      1.0  0.96236  0.29134  0.27943  1.0000
  C   C520      1.0  0.76346  0.02751  0.26706  1.0000
  H   H859      1.0  0.59855  0.00493  0.38722  1.0000
  H   H860      1.0  0.50948  0.09457  0.32831  1.0000
  H   H861      1.0  0.85437  0.28245  0.29944  1.0000
  H   H862      1.0  0.50237  0.12463  0.43602  1.0000
  C   C521      1.0  0.88647  0.44861  0.45904  1.0000
  C   C522      1.0  0.75712  0.09873  0.01645  1.0000
  H   H863      1.0  0.92268  0.12830  0.24038  1.0000
  H   H864      1.0  0.88282  0.20200  0.00749  1.0000
  C   C523      1.0  0.95865  0.24079  0.08899  1.0000
  H   H865      1.0  0.63594  0.04444  0.47160  1.0000
  H   H866      1.0  0.73517  0.04329  0.27759  1.0000
  H   H867      1.0  0.93492  0.40420  0.46184  1.0000
  H   H868      1.0  0.88186  0.45990  0.47703  1.0000
  C   C524      1.0  0.83049  0.35179  0.33138  1.0000
  H   H869      1.0  0.94989  0.10871  0.21542  1.0000
  H   H870      1.0  0.96048  0.31288  0.31693  1.0000
  H   H871      1.0  0.76997  0.02210  0.03795  1.0000
  H   H872      1.0  0.89967  0.12883  0.17714  1.0000
  H   H873      1.0  0.97725  0.20304  0.08446  1.0000
  H   H874      1.0  0.92221  0.38244  0.47066  1.0000
  H   H875      1.0  0.97504  0.12461  0.16610  1.0000
  H   H876      1.0  0.96739  0.20081  0.04740  1.0000
  C   C525      1.0  0.93086  0.14732  0.16784  1.0000
  H   H877      1.0  0.85214  0.35259  0.36777  1.0000
  C   C526      1.0  0.90698  0.46369  0.31941  1.0000
  C   C527      1.0  0.98579  0.37489  0.36997  1.0000
  H   H878      1.0  0.65411  0.99544  0.30574  1.0000
  H   H879      1.0  0.88250  0.38398  0.44101  1.0000
  H   H880      1.0  0.84916  0.28063  0.34008  1.0000
  C   C528      1.0  0.91496  0.47928  0.36766  1.0000
  C   C529      1.0  0.88692  0.39913  0.44453  1.0000
  H   H881      1.0  0.92109  0.13557  0.12334  1.0000
  C   C530      1.0  0.96267  0.26806  0.23597  1.0000
  H   H882      1.0  0.95531  0.23445  0.04080  1.0000
  H   H883      1.0  0.94602  0.29327  0.27725  1.0000
  C   C531      1.0  0.79035  0.04523  0.02933  1.0000
  H   H884      1.0  0.85908  0.19342  0.00795  1.0000
  H   H885      1.0  0.68980  0.01903  0.31662  1.0000
  C   C532      1.0  0.97489  0.46275  0.37132  1.0000
  H   H886      1.0  0.91125  0.42725  0.44973  1.0000
  H   H887      1.0  0.82443  0.34121  0.40393  1.0000
  H   H888      1.0  0.89147  0.45675  0.43849  1.0000
  H   H889      1.0  0.97396  0.29765  0.20198  1.0000
  H   H890      1.0  0.98475  0.30867  0.30069  1.0000
  C   C533      1.0  0.87785  0.29938  0.38852  1.0000
  H   H891      1.0  0.80183  0.05117  0.04424  1.0000
  H   H892      1.0  0.87376  0.28509  0.32628  1.0000
  H   H893      1.0  0.87354  0.16460  0.04382  1.0000
  C   C534      1.0  0.88394  0.40481  0.47924  1.0000
  N   N34       1.0  0.98080  0.46368  0.33755  1.0000
  C   C535      1.0  0.49524  0.07284  0.35445  1.0000
  N   N35       1.0  0.79914  0.03796  0.99853  1.0000
  C   C536      1.0  0.88960  0.34830  0.48379  1.0000
  C   C537      1.0  0.92424  0.21553  0.01401  1.0000
  H   H894      1.0  0.93782  0.20566  0.01333  1.0000
  H   H895      1.0  0.91663  0.15714  0.16801  1.0000
  H   H896      1.0  0.97892  0.24755  0.27022  1.0000
  C   C538      1.0  0.93987  0.15252  0.23774  1.0000
  C   C539      1.0  0.92982  0.39467  0.48056  1.0000
  H   H897      1.0  0.96808  0.14281  0.19580  1.0000
  C   C540      1.0  0.96713  0.43017  0.32511  1.0000
  C   C541      1.0  0.51103  0.99578  0.34979  1.0000
  C   C542      1.0  0.98343  0.21979  0.16042  1.0000
  H   H898      1.0  0.86051  0.31745  0.30433  1.0000
  H   H899      1.0  0.80038  0.00670  0.01150  1.0000
  H   H900      1.0  0.50073  0.00689  0.36245  1.0000
  H   H901      1.0  0.96530  0.46877  0.29352  1.0000
  C   C543      1.0  0.71388  0.00784  0.20856  1.0000
  H   H902      1.0  0.95500  0.43675  0.30981  1.0000
  C   C544      1.0  0.70816  0.01872  0.27506  1.0000
  H   H903      1.0  0.95350  0.14315  0.24493  1.0000
  H   H904      1.0  0.50531  0.10547  0.40621  1.0000
  N   N36       1.0  0.93014  0.13090  0.19144  1.0000
  H   H905      1.0  0.89828  0.09314  0.19248  1.0000
  H   H906      1.0  0.94710  0.12870  0.13175  1.0000
  C   C545      1.0  0.90374  0.43380  0.47072  1.0000
  C   C546      1.0  0.85040  0.34371  0.34634  1.0000
  N   N37       1.0  0.97184  0.28575  0.24856  1.0000
  H   H907      1.0  0.51153  0.00439  0.41205  1.0000
  C   C547      1.0  0.81006  0.01752  0.00222  1.0000
  H   H908      1.0  0.96782  0.26423  0.21188  1.0000
  H   H909      1.0  0.77879  0.05789  0.02560  1.0000
  H   H910      1.0  0.99127  0.44242  0.30188  1.0000
  S   S160      1.0  0.63944  0.99404  0.40395  1.0000
  C   C548      1.0  0.63207  0.07369  0.49167  1.0000
  H   H911      1.0  0.83018  0.36815  0.32885  1.0000
  C   C549      1.0  0.85758  0.28851  0.32273  1.0000
  C   C550      1.0  0.96741  0.23895  0.05578  1.0000
  H   H912      1.0  0.96549  0.27912  0.29669  1.0000
  H   H913      1.0  0.94618  0.32350  0.20332  1.0000
  H   H914      1.0  0.94955  0.46975  0.32651  1.0000
  H   H915      1.0  0.95233  0.24868  0.27226  1.0000
  H   H916      1.0  0.53019  0.01823  0.33648  1.0000
  H   H917      1.0  0.94639  0.27158  0.23315  1.0000
  C   C551      1.0  0.49747  0.12011  0.41273  1.0000
  H   H918      1.0  0.96511  0.32369  0.28026  1.0000
  H   H919      1.0  0.76553  0.11145  0.01592  1.0000
  C   C552      1.0  0.98115  0.20424  0.05944  1.0000
  N   N38       1.0  0.89812  0.41815  0.49317  1.0000
  H   H920      1.0  0.87300  0.28549  0.37925  1.0000
  N   N39       1.0  0.76598  0.13859  0.23036  1.0000
  C   C553      1.0  0.74935  0.12565  0.23486  1.0000
  C   C554      1.0  0.78513  0.12509  0.23188  1.0000
  C   C555      1.0  0.76378  0.14762  0.19823  1.0000
  C   C556      1.0  0.76436  0.15442  0.25523  1.0000
  C   C557      1.0  0.72806  0.13576  0.23043  1.0000
  C   C558      1.0  0.78878  0.11322  0.26240  1.0000
  C   C559      1.0  0.77902  0.16182  0.18870  1.0000
  C   C560      1.0  0.78349  0.16398  0.26334  1.0000
  H   H921      1.0  0.75114  0.11273  0.21878  1.0000
  H   H922      1.0  0.74970  0.11916  0.25872  1.0000
  H   H923      1.0  0.79829  0.13310  0.22786  1.0000
  H   H924      1.0  0.78572  0.11404  0.21266  1.0000
  H   H925      1.0  0.76422  0.13570  0.18027  1.0000
  H   H926      1.0  0.74919  0.15654  0.19549  1.0000
  H   H927      1.0  0.75275  0.16662  0.24883  1.0000
  H   H928      1.0  0.75928  0.14817  0.27752  1.0000
  H   H929      1.0  0.71741  0.12564  0.23924  1.0000
  H   H930      1.0  0.72530  0.14983  0.24357  1.0000
  H   H931      1.0  0.72448  0.13826  0.20541  1.0000
  H   H932      1.0  0.80441  0.10640  0.26289  1.0000
  H   H933      1.0  0.78630  0.12265  0.28336  1.0000
  H   H934      1.0  0.77934  0.10079  0.26365  1.0000
  H   H935      1.0  0.79451  0.15507  0.19077  1.0000
  H   H936      1.0  0.77686  0.17591  0.20197  1.0000
  H   H937      1.0  0.77677  0.16574  0.16372  1.0000
  H   H938      1.0  0.77952  0.18001  0.26824  1.0000
  H   H939      1.0  0.79493  0.16320  0.24500  1.0000
  H   H940      1.0  0.79013  0.15759  0.28526  1.0000
  N   N40       1.0  0.85320  0.32170  0.35322  1.0000
  C   C561      1.0  0.85144  0.31102  0.32267  1.0000
  C   C562      1.0  0.87390  0.31736  0.36633  1.0000
  H   H941      1.0  0.55931  0.08165  0.47369  1.0000
  H   H942      1.0  0.74328  0.02392  0.30399  1.0000
  H   H943      1.0  0.79262  0.01925  0.06062  1.0000
  H   H944      1.0  0.87684  0.40890  0.42938  1.0000
  H   H945      1.0  0.98010  0.11913  0.20574  1.0000
  H   H946      1.0  0.96990  0.25422  0.04804  1.0000
  H   H947      1.0  0.82206  0.01781  0.01992  1.0000
  H   H948      1.0  0.87429  0.14653  0.99826  1.0000
  H   H949      1.0  0.80171  0.07998  0.01120  1.0000
  H   H950      1.0  0.87349  0.44115  0.45162  1.0000
  H   H951      1.0  0.50550  0.99624  0.32538  1.0000
  H   H952      1.0  0.71198  0.03034  0.32240  1.0000
  C   C563      1.0  0.73579  0.99260  0.26877  1.0000
  H   H953      1.0  0.82727  0.05007  0.00466  1.0000
  H   H954      1.0  0.71653  0.01062  0.18347  1.0000
  H   H955      1.0  0.69804  0.00838  0.26533  1.0000
  H   H956      1.0  0.91488  0.44267  0.48150  1.0000
  H   H957      1.0  0.76208  0.99285  0.23649  1.0000
  H   H958      1.0  0.86845  0.41201  0.48097  1.0000
  H   H959      1.0  0.97498  0.47962  0.41438  1.0000
  H   H960      1.0  0.92117  0.34715  0.49085  1.0000
  H   H961      1.0  0.94333  0.38752  0.49228  1.0000
  H   H962      1.0  0.88424  0.39080  0.49286  1.0000
  Fe  Fe81      1.0  0.74776  0.07316  0.84356  1.0000
  S   S161      1.0  0.77806  0.05851  0.83005  1.0000
  S   S162      1.0  0.71834  0.06623  0.82128  1.0000
  Fe  Fe82      1.0  0.76319  0.08460  0.90811  1.0000
  S   S163      1.0  0.79394  0.07024  0.89918  1.0000
  S   S164      1.0  0.75677  0.10182  0.95279  1.0000
  Fe  Fe83      1.0  0.79050  0.08524  0.85238  1.0000
  S   S165      1.0  0.81655  0.10047  0.83151  1.0000
  Fe  Fe84      1.0  0.77919  0.04504  0.87802  1.0000
  S   S166      1.0  0.78506  0.01320  0.89615  1.0000
  S   S167      1.0  0.75997  0.10074  0.86218  1.0000
  S   S168      1.0  0.74877  0.05863  0.89087  1.0000
  Fe  Fe85      1.0  0.62964  0.07457  0.69412  1.0000
  S   S169      1.0  0.63974  0.04396  0.67644  1.0000
  S   S170      1.0  0.65219  0.09262  0.71810  1.0000
  Fe  Fe86      1.0  0.58686  0.07352  0.66805  1.0000
  S   S171      1.0  0.59480  0.04297  0.64937  1.0000
  S   S172      1.0  0.55547  0.08503  0.65183  1.0000
  Fe  Fe87      1.0  0.61048  0.03655  0.69452  1.0000
  S   S173      1.0  0.60642  0.00834  0.72026  1.0000
  Fe  Fe88      1.0  0.62317  0.05333  0.63245  1.0000
  S   S174      1.0  0.63301  0.04053  0.58534  1.0000
  S   S175      1.0  0.60089  0.06646  0.71505  1.0000
  S   S176      1.0  0.61473  0.08461  0.64839  1.0000
  Fe  Fe89      1.0  0.91071  0.35347  0.69606  1.0000
  S   S177      1.0  0.92043  0.33939  0.65026  1.0000
  S   S178      1.0  0.90629  0.33906  0.74396  1.0000
  Fe  Fe90      1.0  0.91954  0.39605  0.67286  1.0000
  S   S179      1.0  0.93002  0.38445  0.62614  1.0000
  S   S180      1.0  0.92636  0.42667  0.68987  1.0000
  Fe  Fe91      1.0  0.90405  0.36651  0.62769  1.0000
  S   S181      1.0  0.88263  0.36682  0.58687  1.0000
  Fe  Fe92      1.0  0.94540  0.35866  0.65241  1.0000
  S   S182      1.0  0.97719  0.34806  0.64192  1.0000
  S   S183      1.0  0.89230  0.37965  0.67358  1.0000
  S   S184      1.0  0.93678  0.37116  0.69896  1.0000
  Fe  Fe93      1.0  0.89257  0.19094  0.86116  1.0000
  S   S185      1.0  0.88721  0.22230  0.87965  1.0000
  S   S186      1.0  0.86555  0.17338  0.87055  1.0000
  Fe  Fe94      1.0  0.93601  0.19833  0.84228  1.0000
  S   S187      1.0  0.93287  0.22939  0.86025  1.0000
  S   S188      1.0  0.96347  0.18634  0.81485  1.0000
  Fe  Fe95      1.0  0.91758  0.21655  0.90132  1.0000
  S   S189      1.0  0.92921  0.21804  0.95103  1.0000
  Fe  Fe96      1.0  0.90301  0.23220  0.83665  1.0000
  S   S190      1.0  0.89145  0.25319  0.79696  1.0000
  S   S191      1.0  0.92244  0.18504  0.88431  1.0000
  S   S192      1.0  0.90659  0.20114  0.81726  1.0000
  C   C564      1.0  0.54293  0.02725  0.62919  1.0000
  H   H963      1.0  0.52727  0.03372  0.62733  1.0000
  H   H964      1.0  0.67171  0.13145  0.90849  1.0000
  H   H965      1.0  0.55249  0.04380  0.68481  1.0000
  H   H966      1.0  0.96581  0.23361  0.80616  1.0000
  C   C565      1.0  0.88641  0.35923  0.54753  1.0000
  C   C566      1.0  0.49647  0.07914  0.66133  1.0000
  C   C567      1.0  0.90515  0.35563  0.53343  1.0000
  H   H967      1.0  0.88284  0.17965  0.93073  1.0000
  H   H968      1.0  0.91834  0.35688  0.54712  1.0000
  C   C568      1.0  0.90415  0.31431  0.75721  1.0000
  C   C569      1.0  0.89758  0.29968  0.73794  1.0000
  C   C570      1.0  0.89415  0.28100  0.75041  1.0000
  C   C571      1.0  0.89771  0.27642  0.78208  1.0000
  C   C572      1.0  0.90499  0.29078  0.80108  1.0000
  C   C573      1.0  0.90797  0.30963  0.78879  1.0000
  H   H969      1.0  0.89437  0.30304  0.71371  1.0000
  H   H970      1.0  0.88838  0.27013  0.73545  1.0000
  H   H971      1.0  0.90756  0.28769  0.82555  1.0000
  H   H972      1.0  0.91290  0.32081  0.80404  1.0000
  H   H973      1.0  0.79653  0.99876  0.83371  1.0000
  C   C574      1.0  0.76752  0.02420  0.97659  1.0000
  H   H974      1.0  0.88898  0.37710  0.78110  1.0000
  C   C575      1.0  0.70693  0.13003  0.95166  1.0000
  C   C576      1.0  0.86626  0.41854  0.81021  1.0000
  C   C577      1.0  0.88666  0.38770  0.76124  1.0000
  C   C578      1.0  0.63084  0.08448  0.51968  1.0000
  H   H975      1.0  0.69817  0.06761  0.88838  1.0000
  H   H976      1.0  0.97620  0.37230  0.69733  1.0000
  C   C579      1.0  0.55448  0.02944  0.69746  1.0000
  C   C580      1.0  0.91612  0.45120  0.68051  1.0000
  C   C581      1.0  0.92621  0.46716  0.69051  1.0000
  C   C582      1.0  0.89793  0.45528  0.66519  1.0000
  H   H977      1.0  0.94009  0.46417  0.70285  1.0000
  H   H978      1.0  0.88991  0.44316  0.65764  1.0000
  C   C583      1.0  0.53204  0.08157  0.66864  1.0000
  C   C584      1.0  0.52961  0.07860  0.70062  1.0000
  C   C585      1.0  0.51527  0.08212  0.64923  1.0000
  H   H979      1.0  0.54223  0.07868  0.71601  1.0000
  H   H980      1.0  0.51675  0.08493  0.62465  1.0000
  C   C586      1.0  0.88984  0.47515  0.66048  1.0000
  H   H981      1.0  0.94341  0.38844  0.78073  1.0000
  H   H982      1.0  0.95617  0.26300  0.83788  1.0000
  C   C587      1.0  0.63361  0.05383  0.54983  1.0000
  C   C588      1.0  0.63145  0.07461  0.54867  1.0000
  C   C589      1.0  0.63551  0.04309  0.52185  1.0000
  H   H983      1.0  0.63018  0.08304  0.57008  1.0000
  H   H984      1.0  0.63734  0.02704  0.52249  1.0000
  C   C590      1.0  0.83032  0.12040  0.84370  1.0000
  C   C591      1.0  0.84804  0.12347  0.82803  1.0000
  C   C592      1.0  0.85921  0.13925  0.83618  1.0000
  C   C593      1.0  0.85267  0.15250  0.85993  1.0000
  C   C594      1.0  0.83489  0.14954  0.87546  1.0000
  C   C595      1.0  0.82389  0.13357  0.86764  1.0000
  H   H985      1.0  0.85323  0.11346  0.80947  1.0000
  H   H986      1.0  0.87282  0.14113  0.82397  1.0000
  H   H987      1.0  0.82943  0.15975  0.89357  1.0000
  H   H988      1.0  0.81028  0.13162  0.87983  1.0000
  H   H989      1.0  0.77521  0.05368  0.97234  1.0000
  H   H990      1.0  0.74501  0.03203  0.81325  1.0000
  H   H991      1.0  0.86599  0.13116  0.95382  1.0000
  H   H992      1.0  0.51558  0.02975  0.71331  1.0000
  H   H993      1.0  0.70043  0.09244  0.94822  1.0000
  H   H994      1.0  0.79014  0.03694  0.94992  1.0000
  H   H995      1.0  0.85412  0.39460  0.76731  1.0000
  H   H996      1.0  0.88615  0.45011  0.77517  1.0000
  H   H997      1.0  0.75789  0.01095  0.83073  1.0000
  H   H998      1.0  0.57270  0.06642  0.58803  1.0000
  C   C596      1.0  0.70064  0.07365  0.79155  1.0000
  C   C597      1.0  0.68499  0.06192  0.78632  1.0000
  C   C598      1.0  0.67043  0.06714  0.76337  1.0000
  C   C599      1.0  0.67102  0.08449  0.74576  1.0000
  C   C600      1.0  0.68661  0.09628  0.75117  1.0000
  C   C601      1.0  0.70146  0.09080  0.77361  1.0000
  H   H999      1.0  0.68400  0.04874  0.80021  1.0000
  H   H1000     1.0  0.65847  0.05802  0.75976  1.0000
  H   H1001     1.0  0.68724  0.10974  0.73775  1.0000
  H   H1002     1.0  0.71340  0.09996  0.77713  1.0000
  H   H1003     1.0  0.92218  0.41925  0.77396  1.0000
  N   N41       1.0  0.69707  0.10906  0.90483  1.0000
  C   C602      1.0  0.70866  0.12544  0.91647  1.0000
  H   H1004     1.0  0.71495  0.11810  0.96595  1.0000
  C   C603      1.0  0.70411  0.09059  0.92308  1.0000
  C   C604      1.0  0.67521  0.11502  0.91010  1.0000
  C   C605      1.0  0.98874  0.19139  0.81328  1.0000
  N   N42       1.0  0.54001  0.01551  0.68622  1.0000
  C   C606      1.0  0.60812  0.99199  0.66200  1.0000
  H   H1005     1.0  0.56994  0.02314  0.69248  1.0000
  H   H1006     1.0  0.72476  0.12204  0.91104  1.0000
  C   C607      1.0  0.88824  0.42882  0.52086  1.0000
  C   C608      1.0  0.69586  0.07119  0.91337  1.0000
  C   C609      1.0  0.57699  0.03931  0.56183  1.0000
  H   H1007     1.0  0.68006  0.07132  0.91992  1.0000
  H   H1008     1.0  0.53911  0.04190  0.73985  1.0000
  H   H1009     1.0  0.67091  0.11117  0.93423  1.0000
  H   H1010     1.0  0.54737  0.02131  0.60587  1.0000
  H   H1011     1.0  0.69261  0.01363  0.75201  1.0000
  H   H1012     1.0  0.56566  0.10673  0.53092  1.0000
  C   C610      1.0  0.86497  0.38747  0.75059  1.0000
  C   C611      1.0  0.90280  0.16784  0.98446  1.0000
  C   C612      1.0  0.51944  0.02618  0.68865  1.0000
  C   C613      1.0  0.70214  0.10567  0.87093  1.0000
  C   C614      1.0  0.90673  0.35031  0.50148  1.0000
  H   H1013     1.0  0.70395  0.05873  0.92654  1.0000
  H   H1014     1.0  0.56472  0.04524  0.73728  1.0000
  H   H1015     1.0  0.98830  0.21272  0.85060  1.0000
  H   H1016     1.0  0.89668  0.42554  0.81072  1.0000
  H   H1017     1.0  0.73954  0.01504  0.87370  1.0000
  N   N43       1.0  0.96576  0.24771  0.76064  1.0000
  H   H1018     1.0  0.89598  0.40913  0.56131  1.0000
  H   H1019     1.0  0.90609  0.13923  0.95979  1.0000
  C   C615      1.0  0.94485  0.24526  0.75076  1.0000
  H   H1020     1.0  0.84584  0.18739  0.94865  1.0000
  H   H1021     1.0  0.73529  0.06790  0.96792  1.0000
  C   C616      1.0  0.88560  0.42315  0.74625  1.0000
  C   C617      1.0  0.93614  0.22688  0.76400  1.0000
  C   C618      1.0  0.97128  0.26700  0.74741  1.0000
  H   H1022     1.0  0.92044  0.40311  0.74184  1.0000
  H   H1023     1.0  0.89780  0.43975  0.53056  1.0000
  H   H1024     1.0  0.93529  0.22725  0.78971  1.0000
  C   C619      1.0  0.98854  0.37553  0.68328  1.0000
  H   H1025     1.0  0.93459  0.25860  0.75688  1.0000
  H   H1026     1.0  0.94385  0.24416  0.72496  1.0000
  H   H1027     1.0  0.96070  0.27962  0.75549  1.0000
  H   H1028     1.0  0.94459  0.21280  0.75645  1.0000
  H   H1029     1.0  0.85497  0.36014  0.54008  1.0000
  C   C620      1.0  0.81416  0.05178  0.98886  1.0000
  H   H1030     1.0  0.91304  0.39488  0.52206  1.0000
  H   H1031     1.0  0.66107  0.11280  0.86402  1.0000
  C   C621      1.0  0.72865  0.00455  0.86751  1.0000
  C   C622      1.0  0.91837  0.48697  0.68515  1.0000
  C   C623      1.0  0.50221  0.01539  0.67608  1.0000
  N   N44       1.0  0.73075  0.00504  0.80741  1.0000
  H   H1032     1.0  0.71237  0.13314  0.85259  1.0000
  H   H1033     1.0  0.70389  0.13972  0.90448  1.0000
  H   H1034     1.0  0.75756  0.02147  0.76120  1.0000
  H   H1035     1.0  0.69131  0.13271  0.95947  1.0000
  H   H1036     1.0  0.87413  0.43756  0.51385  1.0000
  H   H1037     1.0  0.86923  0.42456  0.74484  1.0000
  H   H1038     1.0  0.72057  0.08786  0.92200  1.0000
  H   H1039     1.0  0.96514  0.23118  0.99192  1.0000
  H   H1040     1.0  0.59603  0.06401  0.51113  1.0000
  C   C624      1.0  0.92729  0.38835  0.78525  1.0000
  H   H1041     1.0  0.85928  0.40514  0.81747  1.0000
  C   C625      1.0  0.97115  0.26870  0.71149  1.0000
  C   C626      1.0  0.91205  0.15386  0.95896  1.0000
  H   H1042     1.0  0.87401  0.40347  0.54051  1.0000
  H   H1043     1.0  0.75515  0.03044  0.99169  1.0000
  H   H1044     1.0  0.91036  0.16033  0.93535  1.0000
  C   C627      1.0  0.57869  0.10321  0.57677  1.0000
  C   C628      1.0  0.89847  0.23626  0.98710  1.0000
  C   C629      1.0  0.96757  0.24836  0.79564  1.0000
  H   H1045     1.0  0.83132  0.01643  0.96286  1.0000
  H   H1046     1.0  0.71776  0.09905  0.86842  1.0000
  H   H1047     1.0  0.66290  0.08998  0.88579  1.0000
  N   N45       1.0  0.89361  0.40753  0.76940  1.0000
  H   H1048     1.0  0.92620  0.41607  0.51759  1.0000
  C   C630      1.0  0.95298  0.26378  0.81250  1.0000
  C   C631      1.0  0.81946  0.00807  0.97232  1.0000
  C   C632      1.0  0.80673  0.07416  0.98808  1.0000
  H   H1049     1.0  0.98594  0.43573  0.64574  1.0000
  H   H1050     1.0  0.61535  0.00470  0.65468  1.0000
  N   N46       1.0  0.57067  0.07483  0.53897  1.0000
  C   C633      1.0  0.74908  0.01584  0.80990  1.0000
  C   C634      1.0  0.54557  0.01009  0.65304  1.0000
  C   C635      1.0  0.71963  0.01305  0.77889  1.0000
  H   H1051     1.0  0.86493  0.42933  0.82976  1.0000
  C   C636      1.0  0.90001  0.49110  0.67044  1.0000
  H   H1052     1.0  0.71413  0.14369  0.95659  1.0000
  C   C637      1.0  0.97929  0.44206  0.66758  1.0000
  H   H1053     1.0  0.86253  0.39432  0.72722  1.0000
  H   H1054     1.0  0.76141  0.02159  0.95313  1.0000
  H   H1055     1.0  0.86182  0.37176  0.74818  1.0000
  H   H1056     1.0  0.85757  0.42609  0.79111  1.0000
  H   H1057     1.0  0.92513  0.39012  0.81070  1.0000
  H   H1058     1.0  0.88392  0.45447  0.73425  1.0000
  H   H1059     1.0  0.55801  0.02141  0.74738  1.0000
  H   H1060     1.0  0.98524  0.47802  0.64146  1.0000
  H   H1061     1.0  0.95452  0.27923  0.80523  1.0000
  H   H1062     1.0  0.87557  0.47818  0.64926  1.0000
  C   C638      1.0  0.57632  0.09573  0.54314  1.0000
  C   C639      1.0  0.57970  0.06670  0.50885  1.0000
  C   C640      1.0  0.54851  0.07480  0.53631  1.0000
  H   H1063     1.0  0.70441  0.00320  0.83601  1.0000
  H   H1064     1.0  0.68876  0.00856  0.79194  1.0000
  H   H1065     1.0  0.96717  0.45385  0.66218  1.0000
  C   C641      1.0  0.76366  0.01345  0.78220  1.0000
  C   C642      1.0  0.88839  0.41317  0.80255  1.0000
  C   C643      1.0  0.89126  0.44432  0.75210  1.0000
  H   H1066     1.0  0.69327  0.09461  0.86022  1.0000
  H   H1067     1.0  0.50593  0.00672  0.65474  1.0000
  H   H1068     1.0  0.90739  0.44524  0.74948  1.0000
  H   H1069     1.0  0.53387  0.00023  0.72905  1.0000
  H   H1070     1.0  0.56146  0.03639  0.55777  1.0000
  C   C644      1.0  0.86597  0.14734  0.94956  1.0000
  H   H1071     1.0  0.98768  0.45392  0.71183  1.0000
  C   C645      1.0  0.51073  0.07591  0.71283  1.0000
  H   H1072     1.0  0.62902  0.10054  0.51890  1.0000
  N   N47       1.0  0.84010  0.20116  0.79072  1.0000
  C   C646      1.0  0.85278  0.21510  0.80692  1.0000
  C   C647      1.0  0.85375  0.18314  0.78116  1.0000
  C   C648      1.0  0.82494  0.19544  0.81397  1.0000
  C   C649      1.0  0.83022  0.21206  0.76331  1.0000
  C   C650      1.0  0.84167  0.23365  0.82228  1.0000
  C   C651      1.0  0.86907  0.18665  0.75570  1.0000
  C   C652      1.0  0.81454  0.17671  0.80710  1.0000
  C   C653      1.0  0.81899  0.19986  0.74018  1.0000
  H   H1073     1.0  0.86184  0.20714  0.82559  1.0000
  H   H1074     1.0  0.86355  0.22082  0.79055  1.0000
  H   H1075     1.0  0.84558  0.17097  0.77241  1.0000
  H   H1076     1.0  0.86204  0.17662  0.80176  1.0000
  H   H1077     1.0  0.83188  0.19282  0.83735  1.0000
  H   H1078     1.0  0.81297  0.20782  0.81719  1.0000
  H   H1079     1.0  0.81920  0.22428  0.77142  1.0000
  H   H1080     1.0  0.84103  0.21996  0.74973  1.0000
  H   H1081     1.0  0.83312  0.24336  0.80518  1.0000
  H   H1082     1.0  0.83196  0.22973  0.84162  1.0000
  H   H1083     1.0  0.85278  0.24267  0.83264  1.0000
  H   H1084     1.0  0.87957  0.19719  0.76307  1.0000
  H   H1085     1.0  0.87811  0.17234  0.75077  1.0000
  H   H1086     1.0  0.86186  0.19177  0.73354  1.0000
  H   H1087     1.0  0.82490  0.16296  0.80866  1.0000
  H   H1088     1.0  0.80677  0.17730  0.78452  1.0000
  H   H1089     1.0  0.80315  0.17524  0.82532  1.0000
  H   H1090     1.0  0.80292  0.20116  0.74578  1.0000
  H   H1091     1.0  0.82462  0.18399  0.73888  1.0000
  H   H1092     1.0  0.82068  0.20572  0.71624  1.0000
  H   H1093     1.0  0.98583  0.27070  0.75644  1.0000
  H   H1094     1.0  0.55245  0.03917  0.63429  1.0000
  C   C654      1.0  0.97933  0.23019  0.74901  1.0000
  H   H1095     1.0  0.55802  0.99379  0.71405  1.0000
  H   H1096     1.0  0.64519  0.11015  0.89642  1.0000
  H   H1097     1.0  0.80820  0.00635  0.95408  1.0000
  H   H1098     1.0  0.89219  0.24276  0.96580  1.0000
  H   H1099     1.0  0.92343  0.37356  0.77779  1.0000
  H   H1100     1.0  0.57469  0.05200  0.50316  1.0000
  H   H1101     1.0  0.93741  0.26057  0.80958  1.0000
  C   C655      1.0  0.91594  0.40546  0.76656  1.0000
  H   H1102     1.0  0.85616  0.20422  0.92276  1.0000
  H   H1103     1.0  0.77732  0.02026  0.78849  1.0000
  H   H1104     1.0  0.50901  0.07373  0.73761  1.0000
  H   H1105     1.0  0.53758  0.09535  0.57367  1.0000
  C   C656      1.0  0.87837  0.18790  0.95218  1.0000
  C   C657      1.0  0.78347  0.03869  0.97355  1.0000
  C   C658      1.0  0.71843  0.01016  0.83611  1.0000
  H   H1106     1.0  0.89570  0.38073  0.74176  1.0000
  H   H1107     1.0  0.89055  0.41873  0.72226  1.0000
  H   H1108     1.0  0.58059  0.11929  0.57621  1.0000
  C   C659      1.0  0.53634  0.07996  0.56594  1.0000
  H   H1109     1.0  0.51856  0.04102  0.67741  1.0000
  H   H1110     1.0  0.69923  0.11967  0.82520  1.0000
  H   H1111     1.0  0.81994  0.04815  0.96506  1.0000
  H   H1112     1.0  0.59098  0.09729  0.53220  1.0000
  H   H1113     1.0  0.97563  0.22615  0.72477  1.0000
  H   H1114     1.0  0.89348  0.40077  0.81860  1.0000
  H   H1115     1.0  0.92073  0.22673  0.75529  1.0000
  H   H1116     1.0  0.87339  0.42472  0.56509  1.0000
  C   C660      1.0  0.86949  0.35745  0.52952  1.0000
  C   C661      1.0  0.69958  0.12430  0.84999  1.0000
  H   H1117     1.0  0.97464  0.25435  0.69947  1.0000
  H   H1118     1.0  0.54245  0.08552  0.51821  1.0000
  C   C662      1.0  0.87107  0.35175  0.49819  1.0000
  C   C663      1.0  0.66053  0.10631  0.88770  1.0000
  H   H1119     1.0  0.71365  0.02638  0.83680  1.0000
  H   H1120     1.0  0.95646  0.27550  0.70308  1.0000
  H   H1121     1.0  0.58676  0.03249  0.54315  1.0000
  H   H1122     1.0  0.68565  0.13385  0.85492  1.0000
  C   C664      1.0  0.55373  0.03457  0.73253  1.0000
  H   H1123     1.0  0.97234  0.42993  0.67943  1.0000
  H   H1124     1.0  0.88839  0.19992  0.95288  1.0000
  H   H1125     1.0  0.87752  0.14894  0.93190  1.0000
  H   H1126     1.0  0.56586  0.10136  0.59186  1.0000
  C   C665      1.0  0.88273  0.41554  0.54818  1.0000
  H   H1127     1.0  0.59224  0.09566  0.58783  1.0000
  H   H1128     1.0  0.59520  0.06300  0.56767  1.0000
  H   H1129     1.0  0.71714  0.02958  0.77990  1.0000
  H   H1130     1.0  0.54030  0.06935  0.58517  1.0000
  H   H1131     1.0  0.52042  0.07905  0.56078  1.0000
  C   C666      1.0  0.49406  0.07599  0.69325  1.0000
  C   C667      1.0  0.91669  0.40626  0.50494  1.0000
  H   H1132     1.0  0.97070  0.48213  0.70170  1.0000
  H   H1133     1.0  0.56132  0.00341  0.65191  1.0000
  H   H1134     1.0  0.98269  0.27816  0.70394  1.0000
  H   H1135     1.0  0.85124  0.15218  0.93927  1.0000
  H   H1136     1.0  0.71736  0.00560  0.88633  1.0000
  H   H1137     1.0  0.49663  0.00574  0.69430  1.0000
  H   H1138     1.0  0.58207  0.03165  0.58373  1.0000
  H   H1139     1.0  0.82648  0.99291  0.97784  1.0000
  H   H1140     1.0  0.97718  0.21663  0.76276  1.0000
  C   C668      1.0  0.57913  0.06165  0.56514  1.0000
  C   C669      1.0  0.74006  0.07428  0.98933  1.0000
  H   H1141     1.0  0.98635  0.22169  0.97031  1.0000
  H   H1142     1.0  0.92825  0.15101  0.96325  1.0000
  H   H1143     1.0  0.54469  0.06005  0.52833  1.0000
  C   C670      1.0  0.69939  0.00551  0.77254  1.0000
  C   C671      1.0  0.85718  0.19795  0.94669  1.0000
  H   H1144     1.0  0.91177  0.18069  0.98577  1.0000
  H   H1145     1.0  0.53689  0.99846  0.64372  1.0000
  H   H1146     1.0  0.98270  0.25157  0.80260  1.0000
  H   H1147     1.0  0.72847  0.00950  0.75744  1.0000
  C   C672      1.0  0.97897  0.22090  0.99332  1.0000
  N   N48       1.0  0.88111  0.17509  0.98097  1.0000
  H   H1148     1.0  0.85361  0.21058  0.96289  1.0000
  H   H1149     1.0  0.79476  0.07763  0.97078  1.0000
  H   H1150     1.0  0.76832  0.99767  0.77667  1.0000
  H   H1151     1.0  0.66285  0.99291  0.73348  1.0000
  C   C673      1.0  0.54225  0.99733  0.70693  1.0000
  C   C674      1.0  0.86849  0.15799  0.98100  1.0000
  C   C675      1.0  0.75113  0.09057  0.98840  1.0000
  H   H1152     1.0  0.81913  0.08261  0.98081  1.0000
  H   H1153     1.0  0.77333  0.00929  0.98493  1.0000
  H   H1154     1.0  0.85317  0.16321  0.98889  1.0000
  C   C676      1.0  0.91615  0.22365  0.98611  1.0000
  Fe  Fe97      1.0  0.75537  0.90205  0.17231  1.0000
  S   S193      1.0  0.72671  0.88835  0.16690  1.0000
  S   S194      1.0  0.74821  0.93559  0.16526  1.0000
  Fe  Fe98      1.0  0.77937  0.86051  0.17935  1.0000
  S   S195      1.0  0.75189  0.84475  0.17473  1.0000
  S   S196      1.0  0.81181  0.84570  0.18151  1.0000
  Fe  Fe99      1.0  0.74369  0.86622  0.13551  1.0000
  S   S197      1.0  0.72836  0.85802  0.09079  1.0000
  Fe  Fe100     1.0  0.73675  0.86843  0.20657  1.0000
  S   S198      1.0  0.71596  0.86047  0.24632  1.0000
  S   S199      1.0  0.77168  0.88098  0.13821  1.0000
  S   S200      1.0  0.76491  0.88303  0.21408  1.0000
  Fe  Fe101     1.0  0.60257  0.87542  0.40753  1.0000
  S   S201      1.0  0.59963  0.85827  0.36277  1.0000
  S   S202      1.0  0.62098  0.86749  0.45085  1.0000
  Fe  Fe102     1.0  0.58065  0.91261  0.38117  1.0000
  S   S203      1.0  0.57616  0.89911  0.33457  1.0000
  S   S204      1.0  0.56753  0.94357  0.39219  1.0000
  Fe  Fe103     1.0  0.56794  0.87318  0.36260  1.0000
  S   S205      1.0  0.54004  0.85851  0.35055  1.0000
  Fe  Fe104     1.0  0.60816  0.88565  0.33784  1.0000
  S   S206      1.0  0.62802  0.89053  0.29503  1.0000
  S   S207      1.0  0.57060  0.88775  0.40914  1.0000
  S   S208      1.0  0.61291  0.90166  0.38253  1.0000
  Fe  Fe105     1.0  0.93516  0.73442  0.19585  1.0000
  S   S209      1.0  0.94064  0.70755  0.16568  1.0000
  S   S210      1.0  0.96027  0.74311  0.22639  1.0000
  Fe  Fe106     1.0  0.89062  0.74057  0.17973  1.0000
  S   S211      1.0  0.89337  0.71328  0.14887  1.0000
  S   S212      1.0  0.85962  0.75808  0.18547  1.0000
  Fe  Fe107     1.0  0.91270  0.69791  0.18695  1.0000
  S   S213      1.0  0.91457  0.66467  0.20065  1.0000
  Fe  Fe108     1.0  0.92109  0.72486  0.13068  1.0000
  S   S214      1.0  0.93151  0.73043  0.08117  1.0000
  S   S215      1.0  0.90798  0.72426  0.21890  1.0000
  S   S216      1.0  0.91752  0.75273  0.15974  1.0000
  Fe  Fe109     1.0  0.91326  0.53338  0.33994  1.0000
  S   S217      1.0  0.93345  0.52993  0.38073  1.0000
  H   H1155     1.0  0.76921  0.94539  0.01793  1.0000
  Fe  Fe110     1.0  0.91318  0.57923  0.34029  1.0000
  S   S218      1.0  0.93330  0.57800  0.38258  1.0000
  S   S219      1.0  0.90382  0.61123  0.32291  1.0000
  Fe  Fe111     1.0  0.95014  0.55245  0.35788  1.0000
  C   C677      1.0  0.75286  0.98268  0.24834  1.0000
  Fe  Fe112     1.0  0.91466  0.55547  0.40225  1.0000
  S   S220      1.0  0.90939  0.54641  0.45239  1.0000
  S   S221      1.0  0.93146  0.55459  0.31475  1.0000
  S   S222      1.0  0.89303  0.55808  0.36215  1.0000
  H   H1156     1.0  0.97072  0.77321  0.18269  1.0000
  H   H1157     1.0  0.66882  0.93132  0.36819  1.0000
  H   H1158     1.0  0.88745  0.77999  0.04853  1.0000
  H   H1159     1.0  0.58209  0.85797  0.47261  1.0000
  H   H1160     1.0  0.64992  0.92832  0.46639  1.0000
  C   C678      1.0  0.91158  0.65020  0.23513  1.0000
  C   C679      1.0  0.91618  0.62940  0.23392  1.0000
  C   C680      1.0  0.91397  0.61726  0.26034  1.0000
  C   C681      1.0  0.90698  0.62570  0.28853  1.0000
  C   C682      1.0  0.90238  0.64649  0.28974  1.0000
  C   C683      1.0  0.90477  0.65866  0.26341  1.0000
  H   H1161     1.0  0.92133  0.62259  0.21223  1.0000
  H   H1162     1.0  0.91735  0.60133  0.25870  1.0000
  H   H1163     1.0  0.89682  0.65327  0.31124  1.0000
  H   H1164     1.0  0.90103  0.67455  0.26487  1.0000
  H   H1165     1.0  0.97259  0.58407  0.37914  1.0000
  H   H1166     1.0  0.64841  0.94642  0.23350  1.0000
  C   C684      1.0  0.65133  0.95059  0.25796  1.0000
  C   C685      1.0  0.96093  0.64226  0.28599  1.0000
  H   H1167     1.0  0.90136  0.58893  0.46670  1.0000
  C   C686      1.0  0.92341  0.73457  0.01877  1.0000
  C   C687      1.0  0.92043  0.72365  0.04593  1.0000
  C   C688      1.0  0.90939  0.70738  0.04411  1.0000
  H   H1168     1.0  0.93178  0.74729  0.01999  1.0000
  H   H1169     1.0  0.90706  0.69880  0.06481  1.0000
  C   C689      1.0  0.51572  0.87083  0.35497  1.0000
  H   H1170     1.0  0.50493  0.93444  0.34529  1.0000
  H   H1171     1.0  0.71832  0.97905  0.08017  1.0000
  C   C690      1.0  0.61114  0.86346  0.48822  1.0000
  C   C691      1.0  0.97210  0.53892  0.44689  1.0000
  C   C692      1.0  0.51236  0.88917  0.37003  1.0000
  H   H1172     1.0  0.74073  0.90708  0.04367  1.0000
  H   H1173     1.0  0.85428  0.74520  0.00464  1.0000
  H   H1174     1.0  0.97017  0.63408  0.23798  1.0000
  H   H1175     1.0  0.52483  0.89626  0.37866  1.0000
  C   C693      1.0  0.82457  0.82107  0.18194  1.0000
  C   C694      1.0  0.84528  0.81861  0.17723  1.0000
  C   C695      1.0  0.85618  0.79960  0.17795  1.0000
  C   C696      1.0  0.84664  0.78263  0.18400  1.0000
  C   C697      1.0  0.82595  0.78506  0.18863  1.0000
  C   C698      1.0  0.81498  0.80405  0.18742  1.0000
  H   H1176     1.0  0.85291  0.83157  0.17280  1.0000
  H   H1177     1.0  0.87194  0.79814  0.17358  1.0000
  H   H1178     1.0  0.81827  0.77214  0.19320  1.0000
  H   H1179     1.0  0.79913  0.80555  0.19119  1.0000
  C   C699      1.0  0.69193  0.87001  0.26044  1.0000
  C   C700      1.0  0.68006  0.88535  0.24544  1.0000
  C   C701      1.0  0.66067  0.89139  0.25643  1.0000
  C   C702      1.0  0.65290  0.88252  0.28287  1.0000
  C   C703      1.0  0.66492  0.86748  0.29820  1.0000
  C   C704      1.0  0.68418  0.86123  0.28694  1.0000
  H   H1180     1.0  0.68573  0.89238  0.22518  1.0000
  H   H1181     1.0  0.65159  0.90298  0.24421  1.0000
  H   H1182     1.0  0.65928  0.86042  0.31849  1.0000
  H   H1183     1.0  0.69313  0.84936  0.29882  1.0000
  C   C705      1.0  0.97457  0.58629  0.30191  1.0000
  H   H1184     1.0  0.95040  0.54982  0.48098  1.0000
  H   H1185     1.0  0.57041  0.98500  0.38235  1.0000
  H   H1186     1.0  0.71975  0.92489  0.04231  1.0000
  H   H1187     1.0  0.97917  0.60657  0.26511  1.0000
  C   C706      1.0  0.72665  0.86482  0.02738  1.0000
  C   C707      1.0  0.73854  0.86397  0.05429  1.0000
  C   C708      1.0  0.75807  0.86860  0.05185  1.0000
  H   H1188     1.0  0.71155  0.86112  0.02895  1.0000
  H   H1189     1.0  0.76754  0.86754  0.07215  1.0000
  C   C709      1.0  0.82924  0.78351  0.10222  1.0000
  C   C710      1.0  0.58422  0.97836  0.39214  1.0000
  C   C711      1.0  0.58643  0.95836  0.40068  1.0000
  C   C712      1.0  0.60431  0.94995  0.41357  1.0000
  C   C713      1.0  0.62046  0.96120  0.41576  1.0000
  C   C714      1.0  0.79061  0.97286  0.18363  1.0000
  H   H1190     1.0  0.60581  0.93470  0.42122  1.0000
  C   C715      1.0  0.75174  0.97539  0.16193  1.0000
  C   C716      1.0  0.76147  0.95666  0.16955  1.0000
  C   C717      1.0  0.78102  0.95543  0.18037  1.0000
  H   H1191     1.0  0.73655  0.97657  0.15396  1.0000
  H   H1192     1.0  0.78868  0.94113  0.18643  1.0000
  C   C718      1.0  0.73395  0.87112  0.99862  1.0000
  H   H1193     1.0  0.53631  0.97540  0.39345  1.0000
  H   H1194     1.0  0.51776  0.96328  0.31740  1.0000
  C   C719      1.0  0.60028  0.98963  0.39465  1.0000
  H   H1195     1.0  0.90743  0.79607  0.18831  1.0000
  H   H1196     1.0  0.98675  0.65856  0.32500  1.0000
  H   H1197     1.0  0.78703  0.91680  0.09821  1.0000
  H   H1198     1.0  0.89060  0.78789  0.08839  1.0000
  H   H1199     1.0  0.82343  0.77352  0.11973  1.0000
  H   H1200     1.0  0.75718  0.93742  0.09999  1.0000
  H   H1201     1.0  0.78023  0.87927  0.02196  1.0000
  H   H1202     1.0  0.61748  0.94772  0.47861  1.0000
  H   H1203     1.0  0.94527  0.64048  0.28002  1.0000
  H   H1204     1.0  0.99017  0.58449  0.31002  1.0000
  H   H1205     1.0  0.96579  0.61359  0.35190  1.0000
  H   H1206     1.0  0.85449  0.74294  0.12206  1.0000
  C   C720      1.0  0.52020  0.97382  0.39514  1.0000
  H   H1207     1.0  0.72825  0.92655  0.10604  1.0000
  C   C721      1.0  0.73394  0.92087  0.05494  1.0000
  C   C722      1.0  0.95852  0.69172  0.00043  1.0000
  C   C723      1.0  0.49286  0.89816  0.37442  1.0000
  H   H1208     1.0  0.62947  0.97628  0.34262  1.0000
  H   H1209     1.0  0.77100  0.90378  0.07458  1.0000
  H   H1210     1.0  0.87297  0.71841  0.08354  1.0000
  C   C724      1.0  0.95712  0.62245  0.33383  1.0000
  H   H1211     1.0  0.85685  0.79247  0.08680  1.0000
  C   C725      1.0  0.94774  0.64155  0.34980  1.0000
  H   H1212     1.0  0.97303  0.57408  0.28512  1.0000
  N   N49       1.0  0.51060  0.97529  0.36344  1.0000
  H   H1213     1.0  0.97789  0.73254  0.09477  1.0000
  H   H1214     1.0  0.82580  0.79884  0.11138  1.0000
  H   H1215     1.0  0.71227  0.95440  0.08617  1.0000
  S   S223      1.0  0.90511  0.50465  0.31773  1.0000
  H   H1216     1.0  0.85282  0.77818  0.03962  1.0000
  H   H1217     1.0  0.85048  0.71136  0.09897  1.0000
  H   H1218     1.0  0.64287  0.93137  0.37398  1.0000
  H   H1219     1.0  0.63455  0.95450  0.42454  1.0000
  H   H1220     1.0  0.95934  0.67886  0.01665  1.0000
  H   H1221     1.0  0.50126  0.84793  0.40674  1.0000
  H   H1222     1.0  0.60488  0.90490  0.48848  1.0000
  H   H1223     1.0  0.91442  0.80962  0.22136  1.0000
  C   C726      1.0  0.75323  0.87663  0.99660  1.0000
  N   N50       1.0  0.67928  0.83901  0.16117  1.0000
  C   C727      1.0  0.67176  0.86079  0.16337  1.0000
  C   C728      1.0  0.66746  0.82820  0.18422  1.0000
  C   C729      1.0  0.67519  0.83218  0.12860  1.0000
  C   C730      1.0  0.70127  0.83671  0.16782  1.0000
  C   C731      1.0  0.67911  0.87446  0.13803  1.0000
  C   C732      1.0  0.66926  0.83450  0.21852  1.0000
  C   C733      1.0  0.68112  0.81012  0.12127  1.0000
  C   C734      1.0  0.71067  0.81604  0.17893  1.0000
  H   H1224     1.0  0.65524  0.86295  0.16277  1.0000
  H   H1225     1.0  0.67602  0.86704  0.18605  1.0000
  H   H1226     1.0  0.67125  0.81195  0.18357  1.0000
  H   H1227     1.0  0.65140  0.83030  0.17812  1.0000
  H   H1228     1.0  0.65913  0.83550  0.12300  1.0000
  H   H1229     1.0  0.68336  0.84036  0.11110  1.0000
  H   H1230     1.0  0.70969  0.84084  0.14695  1.0000
  H   H1231     1.0  0.70480  0.84737  0.18617  1.0000
  H   H1232     1.0  0.69523  0.87149  0.13387  1.0000
  H   H1233     1.0  0.67110  0.87302  0.11575  1.0000
  H   H1234     1.0  0.67611  0.89018  0.14553  1.0000
  H   H1235     1.0  0.66209  0.82406  0.23375  1.0000
  H   H1236     1.0  0.68489  0.83415  0.22611  1.0000
  H   H1237     1.0  0.66144  0.84946  0.22285  1.0000
  H   H1238     1.0  0.67645  0.80715  0.09708  1.0000
  H   H1239     1.0  0.67375  0.79995  0.13654  1.0000
  H   H1240     1.0  0.69745  0.80653  0.12178  1.0000
  H   H1241     1.0  0.72490  0.81224  0.16643  1.0000
  H   H1242     1.0  0.70181  0.80354  0.17496  1.0000
  H   H1243     1.0  0.71464  0.81657  0.20402  1.0000
  N   N51       1.0  0.90262  0.78185  0.26641  1.0000
  C   C735      1.0  0.92236  0.76944  0.26970  1.0000
  C   C736      1.0  0.89820  0.78372  0.23205  1.0000
  C   C737      1.0  0.88714  0.77093  0.28247  1.0000
  C   C738      1.0  0.90438  0.80165  0.28162  1.0000
  C   C739      1.0  0.92874  0.76323  0.30313  1.0000
  C   C740      1.0  0.91298  0.79446  0.21261  1.0000
  C   C741      1.0  0.86533  0.77631  0.27279  1.0000
  C   C742      1.0  0.88697  0.81803  0.27737  1.0000
  H   H1244     1.0  0.92249  0.75550  0.25599  1.0000
  H   H1245     1.0  0.93465  0.77729  0.26008  1.0000
  H   H1246     1.0  0.88334  0.79153  0.22749  1.0000
  H   H1247     1.0  0.89750  0.76875  0.22167  1.0000
  H   H1248     1.0  0.89010  0.75462  0.27827  1.0000
  H   H1249     1.0  0.88783  0.77288  0.30818  1.0000
  H   H1250     1.0  0.90618  0.79978  0.30723  1.0000
  H   H1251     1.0  0.91825  0.80789  0.27447  1.0000
  H   H1252     1.0  0.94344  0.75430  0.30194  1.0000
  H   H1253     1.0  0.93058  0.77619  0.31816  1.0000
  H   H1254     1.0  0.91843  0.75362  0.31412  1.0000
  H   H1255     1.0  0.96173  0.50397  0.33936  1.0000
  H   H1256     1.0  0.92777  0.78578  0.21126  1.0000
  H   H1257     1.0  0.87251  0.73571  0.03180  1.0000
  H   H1258     1.0  0.86052  0.79237  0.27343  1.0000
  H   H1259     1.0  0.85558  0.76899  0.28900  1.0000
  H   H1260     1.0  0.86249  0.77049  0.24927  1.0000
  H   H1261     1.0  0.87585  0.81736  0.29623  1.0000
  H   H1262     1.0  0.87949  0.81787  0.25455  1.0000
  H   H1263     1.0  0.89274  0.83278  0.27836  1.0000
  H   H1264     1.0  0.88814  0.74425  0.07250  1.0000
  C   C743      1.0  0.63807  0.92126  0.47871  1.0000
  H   H1265     1.0  0.95387  0.60584  0.27546  1.0000
  C   C744      1.0  0.86450  0.74960  0.02299  1.0000
  C   C745      1.0  0.63313  0.94698  0.27778  1.0000
  H   H1266     1.0  0.66127  0.98333  0.34104  1.0000
  C   C746      1.0  0.76530  0.87506  0.02326  1.0000
  H   H1267     1.0  0.80566  0.97181  0.19230  1.0000
  H   H1268     1.0  0.95942  0.53164  0.43754  1.0000
  N   N52       1.0  0.96962  0.62476  0.30514  1.0000
  C   C747      1.0  0.59165  0.85899  0.49258  1.0000
  H   H1269     1.0  0.52050  0.98699  0.44115  1.0000
  H   H1270     1.0  0.72429  0.95849  0.03362  1.0000
  C   C748      1.0  0.85190  0.77914  0.09841  1.0000
  H   H1271     1.0  0.94441  0.61394  0.32828  1.0000
  H   H1272     1.0  0.98747  0.64809  0.25894  1.0000
  C   C749      1.0  0.88145  0.75775  0.08429  1.0000
  H   H1273     1.0  0.66596  0.94066  0.31560  1.0000
  H   H1274     1.0  0.82125  0.78266  0.07984  1.0000
  C   C750      1.0  0.77843  0.91749  0.07613  1.0000
  H   H1275     1.0  0.66493  0.94119  0.26511  1.0000
  C   C751      1.0  0.89238  0.77510  0.07215  1.0000
  H   H1276     1.0  0.49597  0.81150  0.46437  1.0000
  H   H1277     1.0  0.65374  0.96651  0.25748  1.0000
  H   H1278     1.0  0.73914  0.90181  0.09624  1.0000
  C   C752      1.0  0.49929  0.86168  0.34423  1.0000
  C   C753      1.0  0.90194  0.70175  0.01516  1.0000
  H   H1279     1.0  0.94058  0.63743  0.37183  1.0000
  C   C754      1.0  0.72483  0.96335  0.08226  1.0000
  C   C755      1.0  0.65578  0.98062  0.31719  1.0000
  H   H1280     1.0  0.73469  0.96264  0.10283  1.0000
  H   H1281     1.0  0.76620  0.91963  0.01816  1.0000
  N   N53       1.0  0.74756  0.93703  0.05151  1.0000
  C   C756      1.0  0.52203  0.96049  0.34217  1.0000
  H   H1282     1.0  0.59517  0.97130  0.31664  1.0000
  C   C757      1.0  0.85673  0.72242  0.08370  1.0000
  H   H1283     1.0  0.98534  0.52780  0.44728  1.0000
  H   H1284     1.0  0.83663  0.75954  0.04546  1.0000
  H   H1285     1.0  0.61515  0.92822  0.32416  1.0000
  H   H1286     1.0  0.83417  0.74514  0.09568  1.0000
  C   C758      1.0  0.61858  0.98091  0.40556  1.0000
  N   N54       1.0  0.85920  0.76041  0.08099  1.0000
  C   C759      1.0  0.59592  0.95491  0.31474  1.0000
  H   H1287     1.0  0.58372  0.95017  0.32926  1.0000
  H   H1288     1.0  0.59044  0.92722  0.47756  1.0000
  H   H1289     1.0  0.85845  0.77888  0.12216  1.0000
  C   C760      1.0  0.52018  0.93839  0.34905  1.0000
  C   C761      1.0  0.61577  0.94450  0.32690  1.0000
  H   H1290     1.0  0.61565  0.94722  0.35233  1.0000
  C   C762      1.0  0.63522  0.97264  0.31881  1.0000
  H   H1291     1.0  0.52993  0.92912  0.33276  1.0000
  H   H1292     1.0  0.65033  0.92185  0.32024  1.0000
  H   H1293     1.0  0.50172  0.84752  0.33249  1.0000
  C   C763      1.0  0.85063  0.74331  0.09681  1.0000
  H   H1294     1.0  0.74586  0.96896  0.04664  1.0000
  H   H1295     1.0  0.90851  0.77023  0.07087  1.0000
  C   C764      1.0  0.85241  0.76254  0.04752  1.0000
  H   H1296     1.0  0.77214  0.94925  0.07411  1.0000
  C   C765      1.0  0.65418  0.93905  0.36149  1.0000
  H   H1297     1.0  0.88568  0.75536  0.10920  1.0000
  H   H1298     1.0  0.62509  0.98189  0.30288  1.0000
  H   H1299     1.0  0.74700  0.97280  0.23075  1.0000
  C   C766      1.0  0.98427  0.76529  0.19143  1.0000
  H   H1300     1.0  0.63007  0.93135  0.27356  1.0000
  N   N55       1.0  0.63438  0.95083  0.31228  1.0000
  H   H1301     1.0  0.78927  0.91783  0.05682  1.0000
  C   C767      1.0  0.65163  0.93773  0.32590  1.0000
  H   H1302     1.0  0.59280  0.95043  0.29057  1.0000
  H   H1303     1.0  0.85038  0.72062  0.06021  1.0000
  H   H1304     1.0  0.71402  0.90909  0.08828  1.0000
  H   H1305     1.0  0.62057  0.95652  0.26716  1.0000
  H   H1306     1.0  0.65368  0.95457  0.36978  1.0000
  H   H1307     1.0  0.53817  0.96213  0.34319  1.0000
  H   H1308     1.0  0.96455  0.58387  0.32161  1.0000
  H   H1309     1.0  0.50859  0.84303  0.44691  1.0000
  C   C768      1.0  0.76345  0.93623  0.07624  1.0000
  C   C769      1.0  0.98816  0.58020  0.38284  1.0000
  H   H1310     1.0  0.99016  0.75320  0.10945  1.0000
  C   C770      1.0  0.96234  0.49676  0.31633  1.0000
  S   S224      1.0  0.98302  0.54412  0.35668  1.0000
  H   H1311     1.0  0.76308  0.97277  0.26310  1.0000
  H   H1312     1.0  0.95867  0.65192  0.35578  1.0000
  H   H1313     1.0  0.93576  0.64923  0.33520  1.0000
  H   H1314     1.0  0.51222  0.86595  0.42880  1.0000
  C   C771      1.0  0.51134  0.98882  0.41970  1.0000
  C   C772      1.0  0.73593  0.95727  0.05194  1.0000
  H   H1315     1.0  0.95834  0.70503  0.01555  1.0000
  C   C773      1.0  0.75791  0.93466  0.02033  1.0000
  H   H1316     1.0  0.62974  0.91403  0.46045  1.0000
  C   C774      1.0  0.72884  0.91467  0.08844  1.0000
  H   H1317     1.0  0.99048  0.71120  0.13735  1.0000
  H   H1318     1.0  0.97096  0.74362  0.13114  1.0000
  H   H1319     1.0  0.89383  0.68885  0.01381  1.0000
  H   H1320     1.0  0.66732  0.97134  0.30425  1.0000
  H   H1321     1.0  0.52522  0.93402  0.37285  1.0000
  C   C775      1.0  0.50184  0.85433  0.43033  1.0000
  H   H1322     1.0  0.51939  0.95886  0.40545  1.0000
  H   H1323     1.0  0.98209  0.59409  0.47925  1.0000
  H   H1324     1.0  0.72323  0.98342  0.26561  1.0000
  C   C776      1.0  0.96899  0.60639  0.28538  1.0000
  H   H1325     1.0  0.87509  0.75834  0.01065  1.0000
  H   H1326     1.0  0.96448  0.65990  0.24453  1.0000
  H   H1327     1.0  0.94836  0.50211  0.30410  1.0000
  C   C777      1.0  0.98335  0.74924  0.21176  1.0000
  H   H1328     1.0  0.96010  0.65637  0.29914  1.0000
  C   C778      1.0  0.97166  0.64600  0.25523  1.0000
  H   H1329     1.0  0.94530  0.59702  0.48069  1.0000
  C   C779      1.0  0.91041  0.56032  0.48691  1.0000
  H   H1330     1.0  0.97422  0.55064  0.42970  1.0000
  H   H1331     1.0  0.74038  0.99050  0.29355  1.0000
  H   H1332     1.0  0.49606  0.98610  0.42634  1.0000
  C   C780      1.0  0.98390  0.73935  0.11577  1.0000
  C   C781      1.0  0.90547  0.58087  0.48791  1.0000
  H   H1333     1.0  0.98250  0.57802  0.44724  1.0000
  C   C782      1.0  0.97474  0.58150  0.46946  1.0000
  C   C783      1.0  0.99093  0.62626  0.31396  1.0000
  C   C784      1.0  0.95332  0.58950  0.46078  1.0000
  H   H1334     1.0  0.94479  0.57771  0.45153  1.0000
  H   H1335     1.0  0.95374  0.60081  0.44209  1.0000
  C   C785      1.0  0.96676  0.54674  0.47985  1.0000
  H   H1336     1.0  0.97457  0.50202  0.30245  1.0000
  H   H1337     1.0  0.91647  0.49245  0.38121  1.0000
  N   N56       1.0  0.97689  0.56408  0.49158  1.0000
  H   H1338     1.0  0.71632  0.99158  0.21233  1.0000
  H   H1339     1.0  0.98195  0.49350  0.38240  1.0000
  C   C786      1.0  0.78083  0.99159  0.17589  1.0000
  Fe  Fe113     1.0  0.75712  0.88325  0.91145  1.0000
  S   S225      1.0  0.78570  0.88187  0.88429  1.0000
  S   S226      1.0  0.76176  0.88873  0.96332  1.0000
  Fe  Fe114     1.0  0.73202  0.87957  0.85134  1.0000
  S   S227      1.0  0.75924  0.87764  0.82114  1.0000
  S   S228      1.0  0.69945  0.87948  0.83470  1.0000
  Fe  Fe115     1.0  0.77436  0.85684  0.85751  1.0000
  S   S229      1.0  0.78937  0.82493  0.84898  1.0000
  Fe  Fe116     1.0  0.76835  0.90275  0.85092  1.0000
  S   S230      1.0  0.77907  0.93020  0.82805  1.0000
  S   S231      1.0  0.74637  0.85735  0.88637  1.0000
  S   S232      1.0  0.74053  0.90561  0.87939  1.0000
  Fe  Fe117     1.0  0.59429  0.91157  0.64627  1.0000
  S   S233      1.0  0.59491  0.90489  0.69755  1.0000
  S   S234      1.0  0.59400  0.94130  0.62307  1.0000
  Fe  Fe118     1.0  0.59502  0.86853  0.62744  1.0000
  S   S235      1.0  0.59627  0.85808  0.67741  1.0000
  S   S236      1.0  0.58898  0.84939  0.58607  1.0000
  Fe  Fe119     1.0  0.57250  0.88361  0.68526  1.0000
  S   S237      1.0  0.54380  0.88162  0.71249  1.0000
  Fe  Fe120     1.0  0.61868  0.88026  0.68555  1.0000
  S   S238      1.0  0.65040  0.87643  0.70648  1.0000
  S   S239      1.0  0.57032  0.89257  0.63528  1.0000
  S   S240      1.0  0.61901  0.88836  0.63430  1.0000
  Fe  Fe121     1.0  0.89517  0.75015  0.85813  1.0000
  S   S241      1.0  0.88033  0.72259  0.86730  1.0000
  S   S242      1.0  0.87840  0.78108  0.84807  1.0000
  Fe  Fe122     1.0  0.93730  0.72666  0.86101  1.0000
  S   S243      1.0  0.92444  0.69796  0.87106  1.0000
  S   S244      1.0  0.97061  0.72079  0.85138  1.0000
  Fe  Fe123     1.0  0.90226  0.70674  0.83349  1.0000
  S   S245      1.0  0.89327  0.68877  0.79107  1.0000
  Fe  Fe124     1.0  0.90409  0.71623  0.90397  1.0000
  S   S246      1.0  0.89690  0.70391  0.95167  1.0000
  S   S247      1.0  0.91585  0.73482  0.82205  1.0000
  S   S248      1.0  0.91821  0.74443  0.89641  1.0000
  Fe  Fe125     1.0  0.94902  0.55403  0.66090  1.0000
  S   S249      1.0  0.93045  0.54907  0.70270  1.0000
  S   S250      1.0  0.98044  0.54023  0.65792  1.0000
  Fe  Fe126     1.0  0.91541  0.57683  0.62600  1.0000
  S   S251      1.0  0.89390  0.57417  0.66561  1.0000
  S   S252      1.0  0.90807  0.59316  0.58049  1.0000
  Fe  Fe127     1.0  0.91879  0.58155  0.69731  1.0000
  S   S253      1.0  0.92011  0.60015  0.74217  1.0000
  Fe  Fe128     1.0  0.90744  0.54216  0.66788  1.0000
  S   S254      1.0  0.88895  0.51590  0.66549  1.0000
  S   S255      1.0  0.93912  0.58654  0.65727  1.0000
  S   S256      1.0  0.92717  0.54476  0.62663  1.0000
  C   C787      1.0  0.84788  0.77355  0.77107  1.0000
  H   H1340     1.0  0.97996  0.64552  0.70783  1.0000
  H   H1341     1.0  0.97692  0.75617  0.88834  1.0000
  H   H1342     1.0  0.88539  0.55446  0.59088  1.0000
  H   H1343     1.0  0.87856  0.75108  0.79904  1.0000
  C   C788      1.0  0.90987  0.58047  0.54449  1.0000
  C   C789      1.0  0.91557  0.56007  0.54312  1.0000
  H   H1344     1.0  0.93498  0.68171  0.93617  1.0000
  H   H1345     1.0  0.91959  0.55191  0.56407  1.0000
  H   H1346     1.0  0.63948  0.91646  0.72790  1.0000
  C   C790      1.0  0.73703  0.98306  0.80442  1.0000
  H   H1347     1.0  0.62154  0.93688  0.72028  1.0000
  H   H1348     1.0  0.68355  0.93929  0.70896  1.0000
  H   H1349     1.0  0.91790  0.73774  0.96928  1.0000
  H   H1350     1.0  0.83284  0.71502  0.79185  1.0000
  C   C791      1.0  0.90149  0.66425  0.77755  1.0000
  C   C792      1.0  0.89544  0.65827  0.74790  1.0000
  C   C793      1.0  0.90106  0.63888  0.73652  1.0000
  C   C794      1.0  0.91263  0.62502  0.75485  1.0000
  C   C795      1.0  0.91876  0.63103  0.78444  1.0000
  C   C796      1.0  0.91338  0.65049  0.79562  1.0000
  H   H1351     1.0  0.88624  0.66869  0.73365  1.0000
  H   H1352     1.0  0.89621  0.63461  0.71375  1.0000
  H   H1353     1.0  0.92763  0.62049  0.79897  1.0000
  H   H1354     1.0  0.91810  0.65472  0.81850  1.0000
  C   C797      1.0  0.52026  0.87918  0.69546  1.0000
  C   C798      1.0  0.51714  0.88041  0.66326  1.0000
  H   H1355     1.0  0.87737  0.72946  0.77682  1.0000
  C   C799      1.0  0.88639  0.75428  0.75104  1.0000
  C   C800      1.0  0.66460  0.97889  0.71987  1.0000
  C   C801      1.0  0.77562  0.97473  0.89269  1.0000
  H   H1356     1.0  0.52911  0.88353  0.64804  1.0000
  H   H1357     1.0  0.94499  0.64228  0.72415  1.0000
  H   H1358     1.0  0.81973  0.78250  0.79536  1.0000
  H   H1359     1.0  0.64380  0.93084  0.64123  1.0000
  C   C802      1.0  0.59720  0.85617  0.54881  1.0000
  C   C803      1.0  0.61642  0.86135  0.54451  1.0000
  C   C804      1.0  0.58484  0.85496  0.52274  1.0000
  H   H1360     1.0  0.62618  0.86198  0.56432  1.0000
  H   H1361     1.0  0.57003  0.85077  0.52582  1.0000
  C   C805      1.0  0.81451  0.81382  0.85259  1.0000
  C   C806      1.0  0.83075  0.82371  0.84368  1.0000
  C   C807      1.0  0.85010  0.81356  0.84315  1.0000
  C   C808      1.0  0.85373  0.79347  0.85208  1.0000
  C   C809      1.0  0.83758  0.78375  0.86203  1.0000
  C   C810      1.0  0.81814  0.79373  0.86171  1.0000
  H   H1362     1.0  0.82834  0.83905  0.83629  1.0000
  H   H1363     1.0  0.86235  0.82136  0.83546  1.0000
  H   H1364     1.0  0.84000  0.76849  0.86973  1.0000
  H   H1365     1.0  0.80581  0.78584  0.86868  1.0000
  H   H1366     1.0  0.67234  0.91762  0.71532  1.0000
  H   H1367     1.0  0.86285  0.58308  0.57084  1.0000
  C   C811      1.0  0.62478  0.93744  0.49641  1.0000
  C   C812      1.0  0.96736  0.67785  0.92695  1.0000
  C   C813      1.0  0.63417  0.92525  0.56365  1.0000
  C   C814      1.0  0.68618  0.87910  0.79861  1.0000
  C   C815      1.0  0.69569  0.87729  0.76966  1.0000
  C   C816      1.0  0.68450  0.87642  0.74194  1.0000
  C   C817      1.0  0.66361  0.87763  0.74253  1.0000
  C   C818      1.0  0.65408  0.87977  0.77144  1.0000
  C   C819      1.0  0.66529  0.88035  0.79919  1.0000
  H   H1368     1.0  0.71167  0.87649  0.76860  1.0000
  H   H1369     1.0  0.69211  0.87485  0.71980  1.0000
  H   H1370     1.0  0.63808  0.88071  0.77250  1.0000
  H   H1371     1.0  0.65769  0.88177  0.82135  1.0000
  C   C820      1.0  0.59436  0.97285  0.70271  1.0000
  C   C821      1.0  0.59109  0.95814  0.68100  1.0000
  C   C822      1.0  0.59656  0.96023  0.64987  1.0000
  H   H1372     1.0  0.75019  0.97893  0.81938  1.0000
  H   H1373     1.0  0.97411  0.57683  0.62247  1.0000
  H   H1374     1.0  0.58413  0.94530  0.68829  1.0000
  H   H1375     1.0  0.63497  0.94636  0.50916  1.0000
  H   H1376     1.0  0.97944  0.60682  0.77395  1.0000
  C   C823      1.0  0.78103  0.95298  0.84769  1.0000
  C   C824      1.0  0.78901  0.96850  0.83177  1.0000
  H   H1377     1.0  0.65964  0.91634  0.66777  1.0000
  H   H1378     1.0  0.79441  0.96609  0.80824  1.0000
  H   H1379     1.0  0.59580  0.97735  0.55130  1.0000
  N   N57       1.0  0.97387  0.69507  0.94514  1.0000
  C   C825      1.0  0.57844  0.91084  0.51506  1.0000
  H   H1380     1.0  0.98753  0.69954  0.98966  1.0000
  H   H1381     1.0  0.67502  0.91835  0.76934  1.0000
  C   C826      1.0  0.59641  0.94770  0.53144  1.0000
  H   H1382     1.0  0.63987  0.91365  0.58066  1.0000
  H   H1383     1.0  0.60883  0.97468  0.51514  1.0000
  H   H1384     1.0  0.72336  0.95568  0.79786  1.0000
  H   H1385     1.0  0.89596  0.52449  0.55659  1.0000
  H   H1386     1.0  0.77063  0.97695  0.91647  1.0000
  H   H1387     1.0  0.97281  0.58503  0.52989  1.0000
  H   H1388     1.0  0.75358  0.93276  0.97031  1.0000
  H   H1389     1.0  0.94896  0.66298  0.96010  1.0000
  H   H1390     1.0  0.96763  0.63964  0.79529  1.0000
  C   C827      1.0  0.63593  0.93263  0.73227  1.0000
  H   H1391     1.0  0.70106  0.98956  0.76627  1.0000
  C   C828      1.0  0.60485  0.97728  0.64029  1.0000
  H   H1392     1.0  0.62343  0.94995  0.77229  1.0000
  C   C829      1.0  0.61848  0.91686  0.54312  1.0000
  H   H1393     1.0  0.96259  0.54245  0.54446  1.0000
  H   H1394     1.0  0.85891  0.53752  0.49461  1.0000
  H   H1395     1.0  0.84253  0.52653  0.52063  1.0000
  H   H1396     1.0  0.72527  0.96233  0.83733  1.0000
  N   N58       1.0  0.60933  0.93025  0.51771  1.0000
  C   C830      1.0  0.96416  0.73240  0.95572  1.0000
  C   C831      1.0  0.68025  0.93134  0.75732  1.0000
  H   H1397     1.0  0.97668  0.73862  0.94395  1.0000
  C   C832      1.0  0.97703  0.68984  0.97910  1.0000
  N   N59       1.0  0.72328  0.81576  0.81327  1.0000
  C   C833      1.0  0.71995  0.81131  0.84733  1.0000
  C   C834      1.0  0.73293  0.79683  0.79893  1.0000
  C   C835      1.0  0.70325  0.82143  0.79859  1.0000
  C   C836      1.0  0.73607  0.83264  0.81133  1.0000
  C   C837      1.0  0.70652  0.82703  0.86563  1.0000
  C   C838      1.0  0.75369  0.78949  0.81171  1.0000
  C   C839      1.0  0.70254  0.82404  0.76295  1.0000
  C   C840      1.0  0.74641  0.83606  0.77987  1.0000
  H   H1398     1.0  0.71328  0.79705  0.85013  1.0000
  H   H1399     1.0  0.73428  0.80933  0.86024  1.0000
  H   H1400     1.0  0.73451  0.79794  0.77341  1.0000
  H   H1401     1.0  0.72331  0.78461  0.80212  1.0000
  H   H1402     1.0  0.69294  0.81020  0.80449  1.0000
  H   H1403     1.0  0.69639  0.83583  0.80812  1.0000
  H   H1404     1.0  0.72735  0.84686  0.81764  1.0000
  H   H1405     1.0  0.74803  0.83083  0.82917  1.0000
  H   H1406     1.0  0.71113  0.84208  0.86274  1.0000
  H   H1407     1.0  0.69072  0.82713  0.85888  1.0000
  H   H1408     1.0  0.70750  0.82346  0.89089  1.0000
  H   H1409     1.0  0.76428  0.80078  0.80900  1.0000
  H   H1410     1.0  0.75321  0.78494  0.83649  1.0000
  H   H1411     1.0  0.75979  0.77619  0.79839  1.0000
  H   H1412     1.0  0.71084  0.83633  0.75505  1.0000
  H   H1413     1.0  0.68689  0.82837  0.75598  1.0000
  H   H1414     1.0  0.70736  0.81016  0.75025  1.0000
  H   H1415     1.0  0.74145  0.85119  0.77099  1.0000
  H   H1416     1.0  0.74391  0.82557  0.76107  1.0000
  H   H1417     1.0  0.76270  0.83545  0.78345  1.0000
  C   C841      1.0  0.82605  0.78265  0.77153  1.0000
  H   H1418     1.0  0.85434  0.77910  0.74932  1.0000
  H   H1419     1.0  0.97852  0.66468  0.92858  1.0000
  H   H1420     1.0  0.86909  0.58585  0.61063  1.0000
  H   H1421     1.0  0.88847  0.76999  0.75627  1.0000
  N   N60       1.0  0.65188  0.94422  0.71906  1.0000
  H   H1422     1.0  0.52280  0.78614  0.61742  1.0000
  C   C842      1.0  0.84242  0.72228  0.80826  1.0000
  H   H1423     1.0  0.84361  0.75239  0.72378  1.0000
  H   H1424     1.0  0.84780  0.75154  0.82289  1.0000
  C   C843      1.0  0.90528  0.71242  0.98787  1.0000
  H   H1425     1.0  0.96063  0.59515  0.71315  1.0000
  N   N61       1.0  0.85140  0.75116  0.77295  1.0000
  C   C844      1.0  0.65008  0.96483  0.73273  1.0000
  C   C845      1.0  0.60612  0.96702  0.53740  1.0000
  H   H1426     1.0  0.83065  0.53035  0.56974  1.0000
  C   C846      1.0  0.79008  0.98709  0.84608  1.0000
  H   H1427     1.0  0.84505  0.57936  0.60136  1.0000
  H   H1428     1.0  0.56144  0.83882  0.70199  1.0000
  C   C847      1.0  0.63125  0.93505  0.76729  1.0000
  C   C848      1.0  0.74447  0.93700  0.99125  1.0000
  H   H1429     1.0  0.94402  0.71057  0.94769  1.0000
  C   C849      1.0  0.83161  0.53960  0.61741  1.0000
  H   H1430     1.0  0.88011  0.75335  0.72735  1.0000
  C   C850      1.0  0.84292  0.74234  0.74423  1.0000
  H   H1431     1.0  0.63487  0.95668  0.67968  1.0000
  C   C851      1.0  0.50431  0.87549  0.71481  1.0000
  H   H1432     1.0  0.99152  0.64008  0.77788  1.0000
  C   C852      1.0  0.64845  0.94644  0.68439  1.0000
  H   H1433     1.0  0.99129  0.70466  0.90681  1.0000
  C   C853      1.0  0.83749  0.54200  0.58294  1.0000
  H   H1434     1.0  0.50652  0.87452  0.73975  1.0000
  C   C854      1.0  0.96711  0.57105  0.52182  1.0000
  H   H1435     1.0  0.66078  0.95329  0.67292  1.0000
  H   H1436     1.0  0.82966  0.55630  0.57456  1.0000
  C   C855      1.0  0.49858  0.87714  0.65058  1.0000
  H   H1437     1.0  0.65183  0.96464  0.75836  1.0000
  C   C856      1.0  0.87342  0.74575  0.77624  1.0000
  H   H1438     1.0  0.86918  0.55028  0.62158  1.0000
  H   H1439     1.0  0.58323  0.89959  0.53306  1.0000
  C   C857      1.0  0.97571  0.63863  0.77274  1.0000
  H   H1440     1.0  0.85239  0.56043  0.53679  1.0000
  H   H1441     1.0  0.63312  0.92000  0.67401  1.0000
  C   C858      1.0  0.84141  0.74475  0.80213  1.0000
  H   H1442     1.0  0.84380  0.71630  0.71427  1.0000
  H   H1443     1.0  0.64449  0.93239  0.78226  1.0000
  H   H1444     1.0  0.90135  0.74583  0.75119  1.0000
  C   C859      1.0  0.59631  0.91839  0.49815  1.0000
  C   C860      1.0  0.64622  0.92714  0.66625  1.0000
  H   H1445     1.0  0.68025  0.97248  0.72197  1.0000
  H   H1446     1.0  0.64551  0.90983  0.49445  1.0000
  H   H1447     1.0  0.62016  0.96469  0.55053  1.0000
  H   H1448     1.0  0.85394  0.71042  0.75181  1.0000
  H   H1449     1.0  0.86781  0.72286  0.72370  1.0000
  H   H1450     1.0  0.82685  0.74092  0.74753  1.0000
  C   C861      1.0  0.67215  0.93317  0.72377  1.0000
  H   H1451     1.0  0.72442  0.87248  0.97836  1.0000
  C   C862      1.0  0.91569  0.72913  0.98995  1.0000
  N   N62       1.0  0.85941  0.54089  0.57629  1.0000
  H   H1452     1.0  0.94698  0.64684  0.68353  1.0000
  C   C863      1.0  0.86207  0.54662  0.54267  1.0000
  H   H1453     1.0  0.62547  0.90275  0.53309  1.0000
  C   C864      1.0  0.86851  0.52004  0.58290  1.0000
  H   H1454     1.0  0.95126  0.74384  0.95344  1.0000
  C   C865      1.0  0.91558  0.55003  0.51458  1.0000
  H   H1455     1.0  0.54398  0.76867  0.62463  1.0000
  H   H1456     1.0  0.50261  0.79950  0.66110  1.0000
  C   C866      1.0  0.53620  0.97778  0.69332  1.0000
  C   C867      1.0  0.62346  0.86456  0.51430  1.0000
  H   H1457     1.0  0.95737  0.71626  0.91470  1.0000
  C   C868      1.0  0.86084  0.57694  0.59446  1.0000
  H   H1458     1.0  0.97380  0.57351  0.75055  1.0000
  C   C869      1.0  0.86937  0.55494  0.59671  1.0000
  H   H1459     1.0  0.86686  0.51635  0.60792  1.0000
  H   H1460     1.0  0.86047  0.50877  0.57079  1.0000
  C   C870      1.0  0.95105  0.63572  0.70208  1.0000
  H   H1461     1.0  0.89973  0.51856  0.59709  1.0000
  C   C871      1.0  0.95912  0.71306  0.94005  1.0000
  H   H1462     1.0  0.91953  0.53414  0.51391  1.0000
  H   H1463     1.0  0.81519  0.54062  0.61906  1.0000
  H   H1464     1.0  0.49969  0.82169  0.68302  1.0000
  H   H1465     1.0  0.90070  0.60671  0.51751  1.0000
  H   H1466     1.0  0.58962  0.94345  0.55377  1.0000
  H   H1467     1.0  0.60929  0.97888  0.61628  1.0000
  H   H1468     1.0  0.53638  0.83391  0.69985  1.0000
  H   H1469     1.0  0.94351  0.62247  0.69641  1.0000
  H   H1470     1.0  0.63483  0.97222  0.72895  1.0000
  H   H1471     1.0  0.81669  0.77518  0.75505  1.0000
  H   H1472     1.0  0.59023  0.97115  0.72683  1.0000
  H   H1473     1.0  0.69670  0.92913  0.75651  1.0000
  H   H1474     1.0  0.52109  0.85278  0.59912  1.0000
  H   H1475     1.0  0.76831  0.94435  0.89087  1.0000
  H   H1476     1.0  0.54430  0.78504  0.59218  1.0000
  H   H1477     1.0  0.95692  0.61672  0.75707  1.0000
  H   H1478     1.0  0.52209  0.80584  0.68676  1.0000
  H   H1479     1.0  0.67677  0.94476  0.77162  1.0000
  C   C872      1.0  0.77434  0.95620  0.87827  1.0000
  H   H1480     1.0  0.55654  0.81382  0.69703  1.0000
  H   H1481     1.0  0.54650  0.85852  0.60372  1.0000
  H   H1482     1.0  0.85772  0.71483  0.80778  1.0000
  H   H1483     1.0  0.74197  0.97932  0.78021  1.0000
  H   H1484     1.0  0.82534  0.74995  0.80218  1.0000
  H   H1485     1.0  0.87726  0.55061  0.53820  1.0000
  C   C873      1.0  0.94774  0.67013  0.93684  1.0000
  C   C874      1.0  0.53920  0.78405  0.61665  1.0000
  H   H1486     1.0  0.82534  0.79855  0.76470  1.0000
  C   C875      1.0  0.90506  0.59089  0.51670  1.0000
  C   C876      1.0  0.51079  0.81176  0.66976  1.0000
  H   H1487     1.0  0.85560  0.78051  0.79042  1.0000
  H   H1488     1.0  0.86875  0.51773  0.51921  1.0000
  H   H1489     1.0  0.53682  0.96643  0.71211  1.0000
  H   H1490     1.0  0.96151  0.56321  0.56988  1.0000
  H   H1491     1.0  0.62772  0.93807  0.57753  1.0000
  H   H1492     1.0  0.83735  0.52494  0.62711  1.0000
  H   H1493     1.0  0.53822  0.85023  0.56741  1.0000
  C   C877      1.0  0.85279  0.72186  0.73334  1.0000
  H   H1494     1.0  0.83660  0.71986  0.83200  1.0000
  C   C878      1.0  0.72177  0.96865  0.81381  1.0000
  H   H1495     1.0  0.96609  0.68174  0.90168  1.0000
  N   N63       1.0  0.54027  0.82028  0.63468  1.0000
  C   C879      1.0  0.54326  0.82634  0.60124  1.0000
  C   C880      1.0  0.54874  0.79886  0.63770  1.0000
  C   C881      1.0  0.55208  0.83291  0.65494  1.0000
  C   C882      1.0  0.51842  0.82361  0.64217  1.0000
  C   C883      1.0  0.53677  0.84827  0.59297  1.0000
  H   H1496     1.0  0.95087  0.57476  0.51866  1.0000
  C   C884      1.0  0.55135  0.82926  0.69030  1.0000
  H   H1497     1.0  0.70608  0.97483  0.81293  1.0000
  H   H1498     1.0  0.55913  0.82312  0.59437  1.0000
  H   H1499     1.0  0.53484  0.81755  0.58507  1.0000
  H   H1500     1.0  0.54789  0.79328  0.66182  1.0000
  H   H1501     1.0  0.56493  0.79733  0.63239  1.0000
  H   H1502     1.0  0.56797  0.83120  0.64772  1.0000
  H   H1503     1.0  0.54698  0.84891  0.65212  1.0000
  H   H1504     1.0  0.51407  0.83956  0.64690  1.0000
  H   H1505     1.0  0.50949  0.82001  0.62155  1.0000
  H   H1506     1.0  0.94415  0.69200  0.98839  1.0000
  C   C885      1.0  0.97302  0.61848  0.75749  1.0000
  H   H1507     1.0  0.92626  0.49907  0.69323  1.0000
  C   C886      1.0  0.98961  0.57407  0.62830  1.0000
  C   C887      1.0  0.60276  0.98985  0.69316  1.0000
  H   H1508     1.0  0.83640  0.55154  0.63238  1.0000
  C   C888      1.0  0.97691  0.49250  0.68547  1.0000
  C   C889      1.0  0.99116  0.74905  0.88095  1.0000
  H   H1509     1.0  0.94420  0.65850  0.92014  1.0000
  H   H1510     1.0  0.64710  0.92914  0.55007  1.0000
  H   H1511     1.0  0.62103  0.92399  0.77414  1.0000
  H   H1512     1.0  0.54685  0.97180  0.67514  1.0000
  H   H1513     1.0  0.60693  0.91251  0.55944  1.0000
  H   H1514     1.0  0.73817  0.95259  0.98752  1.0000
  C   C890      1.0  0.98490  0.57706  0.73290  1.0000
  H   H1515     1.0  0.52100  0.97929  0.68383  1.0000
  H   H1516     1.0  0.96945  0.65141  0.75845  1.0000
  H   H1517     1.0  0.56960  0.90330  0.49780  1.0000
  C   C891      1.0  0.89089  0.51571  0.57612  1.0000
  C   C892      1.0  0.85771  0.53101  0.51824  1.0000
  C   C893      1.0  0.97695  0.59550  0.71366  1.0000
  H   H1518     1.0  0.98303  0.50434  0.69923  1.0000
  H   H1519     1.0  0.98795  0.56414  0.71707  1.0000
  H   H1520     1.0  0.63861  0.86780  0.51107  1.0000
  H   H1521     1.0  0.96735  0.73043  0.98088  1.0000
  H   H1522     1.0  0.66113  0.98318  0.69535  1.0000
  H   H1523     1.0  0.73253  0.92700  0.99201  1.0000
  C   C894      1.0  0.97383  0.63121  0.70305  1.0000
  H   H1524     1.0  0.98515  0.55268  0.55642  1.0000
  H   H1525     1.0  0.97855  0.62723  0.67883  1.0000
  H   H1526     1.0  0.96987  0.53372  0.49555  1.0000
  H   H1527     1.0  0.50059  0.94617  0.70486  1.0000
  H   H1528     1.0  0.56843  0.92300  0.52559  1.0000
  H   H1529     1.0  0.58366  0.95239  0.51577  1.0000
  C   C895      1.0  0.96945  0.55627  0.54935  1.0000
  H   H1530     1.0  0.98145  0.59305  0.68891  1.0000
  H   H1531     1.0  0.49651  0.87755  0.62561  1.0000
  H   H1532     1.0  0.89431  0.49991  0.56932  1.0000
  H   H1533     1.0  0.49473  0.95965  0.75790  1.0000
  N   N64       1.0  0.98199  0.61527  0.72559  1.0000
  H   H1534     1.0  0.73612  0.98920  0.86764  1.0000
  H   H1535     1.0  0.98425  0.67437  0.98147  1.0000
  C   C896      1.0  0.78320  0.99037  0.87654  1.0000
  H   H1536     1.0  0.96404  0.49926  0.67171  1.0000
