data_image0
_chemical_formula_structural       CHCSFeNFeSHSCFeHSCHCHSHCHSH2CH7C2SHC2H2C5H4C7HCH2NC6H2CHFeH7CH2CHCH2CHFeSCHCHCH2SH2SH2FeH2SH3C2H4CH4CHSH5CHC2HNCSH8FeH4C2H4SHC2H2CNHSHCHFeSHC2H4SCFeS2HCH8C8H3SH2CH3C6H5C2H3SNHCH3SCH2C2SH5FeCH2NC4HCSCH9C2H3CH6CSNH3FeCH2CFeCSH3CH3C2SC3FeHFeHC2H3SHCFeHCH2CHSHFeC2FeSCSHFeHS2HSHSH3NHNCH2CNCH3FeH2CHCHC5SH3FeC6H5CH2CHC2H5C4H5SC2H3CH3S2NHCH2C2HCHCHCHC2NHFeH2CHSCH4CH6CHCH3CHC2H4CH2NH3SHCH6C2H2C2H3CHCH2C2S2HCH2CSHCHFeSH2C3H2SFe2S2HCH3SH4C7H7CH2C7H3CNCH2CH5CH2FeH5SH3FeCHC2HC2H7FeHC2SHCH2FeHSH2NC4HC2H8SCHC2H3CHCSC2H6C3H2CSHSCHCNFeH4SC2HFeS2FeSHFeS2HFeSHCSC6H2SHC6H4FeHSHCSFeS2FeCSH2C7H4C6H4CH4NCH8CH2FeC2H2CHFeCHCH3CH3CHSH3CH3FeH3SFeCSH2CHCH2CH2C2H2C2H3CH3NCHCNHCH5CHSCH5CH2CH5SH7CH2CHNH2CHC2H4SHSCHCHCH2SH2SHFeSC2FeS2FeS2HSC6H4C6H7CSHC2FeSHFeHSH2SHSC6H6C7H4NC6H22NC7H9C2H6CFeCFeCHCHC2FeH3CSH5SHSH4SH3CH2CHSHCHNC2FeH2SCH3FeSHFeS2FeS2H3SH2C6H4C6H4FeHSHCSFeS2FeHSCH2C5H5C6H5CHC3H2CHC2HC2FeSH8CH2CH2FeHCH2CH4SH3S2H4CH2CH4CN2C5H11NH2CHCHSCH2SCH2C2HC2HCH5CH2CH2CH2SCFeSHS4HSH2SC6FeH3C6H6CHSH3FeSFe2NSCHSHSC6H5CHC6H4C2H5SCHFeHNC8H20C2HCNH3CHS2HFeCH4FeHFeHC3H4FeH4SNC5HC2H4SH10FeCSH2NH2FeHSCSHCFeSHSH3SFeHSCH3SHSCSHNC2H2CHC2H4C6H3C7H5CHFeHCH6CHSCH4SC2H2CSH4CH10NC4FeH2C2H4SH7CSHC2H4NCH4CH2CH2CH3CH3CFeCH4FeC2HCFeCSC4HCHCHCH7C3H2CH5CHSHFeSCHCHSH3SCSCFeSH4C2FeHCHC7H3C6H4SHSH2CH2CNH3CSH4FeHCHC2SCH4NH2CHNCHSC2H7CH2FeH3C2NC2H2C2HFeCH2CH4CHCH3CHCH2SHC3HSH3CHSHCHSH5C2NH2FeCHC3Fe2SCSCHCHFeCSH4S2HCFeCHCSHSH2CHSNCHC6H4C6H6CH3CHNC4NCHCHSH6CH2CHC2HCH3CH2NH2CH2SHCH3CSH3CH2SHSH3CNH4CHC2HC2H2CH6SHFeH4FeH2CH3CH5CH2C2HCSHS2HSHFeSHC3SHC2SHSHFeSH2SHCSHC2FeC6H4C6H2SH2FeCH5CH3CHC2HC2HCSNH12CFeHNCHC2HC4H2C6NHCH2SH4C2FeH3CH3CHCH3CH5CNH7CFeH3CH2CSH5CSH4CHCH8
_chemical_formula_sum              "C672 H1152 S192 Fe96 N48"
_cell_length_a       44.8756
_cell_length_b       45.0886
_cell_length_c       38.9452
_cell_angle_alpha    90.1365
_cell_angle_beta     90.1523
_cell_angle_gamma    90.0381

_space_group_name_H-M_alt    "P 1"
_space_group_IT_number       1

loop_
  _space_group_symop_operation_xyz
  'x, y, z'

loop_
  _atom_site_type_symbol
  _atom_site_label
  _atom_site_symmetry_multiplicity
  _atom_site_fract_x
  _atom_site_fract_y
  _atom_site_fract_z
  _atom_site_occupancy
  C   C1        1.0  0.09084  0.29587  0.45791  1.0000
  H   H1        1.0  0.00726  0.19227  0.03777  1.0000
  C   C2        1.0  0.32703  0.40438  0.11987  1.0000
  S   S1        1.0  0.18667  0.29740  0.47374  1.0000
  Fe  Fe1       1.0  0.19462  0.41184  0.48308  1.0000
  N   N1        1.0  0.99976  0.20658  0.09015  1.0000
  Fe  Fe2       1.0  0.09918  0.16902  0.03755  1.0000
  S   S2        1.0  0.09129  0.15744  0.09395  1.0000
  H   H2        1.0  0.06786  0.99945  0.39002  1.0000
  S   S3        1.0  0.11640  0.21494  0.02539  1.0000
  C   C3        1.0  0.01157  0.19813  0.12510  1.0000
  Fe  Fe3       1.0  0.13246  0.39540  0.45864  1.0000
  H   H3        1.0  0.12346  0.32348  0.34691  1.0000
  S   S4        1.0  0.09321  0.39887  0.42093  1.0000
  C   C4        1.0  0.23961  0.22342  0.48055  1.0000
  H   H4        1.0  0.29559  0.41154  0.05846  1.0000
  C   C5        1.0  0.00669  0.18273  0.06404  1.0000
  H   H5        1.0  0.32686  0.12188  0.24242  1.0000
  S   S5        1.0  0.17806  0.37981  0.44303  1.0000
  H   H6        1.0  0.25005  0.45737  0.39012  1.0000
  C   C6        1.0  0.21098  0.49217  0.48790  1.0000
  H   H7        1.0  0.05250  0.21799  0.04765  1.0000
  S   S6        1.0  0.29046  0.13700  0.44942  1.0000
  H   H8        1.0  0.06430  0.28640  0.39255  1.0000
  H   H9        1.0  0.27681  0.38428  0.13721  1.0000
  C   C7        1.0  0.22658  0.00597  0.36280  1.0000
  H   H10       1.0  0.00219  0.03007  0.37356  1.0000
  H   H11       1.0  0.07263  0.35033  0.36629  1.0000
  H   H12       1.0  0.28140  0.02644  0.47212  1.0000
  H   H13       1.0  0.11964  0.22607  0.39759  1.0000
  H   H14       1.0  0.08343  0.13513  0.16238  1.0000
  H   H15       1.0  0.24299  0.02288  0.37155  1.0000
  H   H16       1.0  0.05773  0.34026  0.40791  1.0000
  C   C8        1.0  0.23002  0.28658  0.00443  1.0000
  C   C9        1.0  0.30013  0.19021  0.38194  1.0000
  S   S7        1.0  0.06348  0.16917  0.99694  1.0000
  H   H17       1.0  0.03542  0.19152  0.12332  1.0000
  C   C10       1.0  0.14597  0.99908  0.43132  1.0000
  C   C11       1.0  0.27244  0.33836  0.12434  1.0000
  H   H18       1.0  0.19390  0.02196  0.39777  1.0000
  H   H19       1.0  0.17168  0.30522  0.36627  1.0000
  C   C12       1.0  0.07419  0.46637  0.33440  1.0000
  C   C13       1.0  0.05479  0.44266  0.34062  1.0000
  C   C14       1.0  0.06093  0.42237  0.36727  1.0000
  C   C15       1.0  0.08661  0.42533  0.38788  1.0000
  C   C16       1.0  0.10601  0.44899  0.38165  1.0000
  H   H20       1.0  0.27475  0.26635  0.43736  1.0000
  H   H21       1.0  0.03505  0.43999  0.32492  1.0000
  H   H22       1.0  0.04571  0.40423  0.37188  1.0000
  H   H23       1.0  0.12582  0.45161  0.39727  1.0000
  C   C17       1.0  0.28802  0.38821  0.06110  1.0000
  C   C18       1.0  0.06743  0.12941  0.11054  1.0000
  C   C19       1.0  0.06783  0.12344  0.14600  1.0000
  C   C20       1.0  0.04805  0.10262  0.16057  1.0000
  C   C21       1.0  0.02720  0.08797  0.13984  1.0000
  C   C22       1.0  0.02691  0.09384  0.10434  1.0000
  C   C23       1.0  0.04714  0.11412  0.08968  1.0000
  H   H24       1.0  0.03914  0.32932  0.36938  1.0000
  C   C24       1.0  0.09979  0.46938  0.35510  1.0000
  H   H25       1.0  0.15643  0.01138  0.35856  1.0000
  H   H26       1.0  0.04671  0.11830  0.06235  1.0000
  N   N2        1.0  0.10966  0.30373  0.39530  1.0000
  C   C25       1.0  0.12771  0.32596  0.37499  1.0000
  C   C26       1.0  0.07876  0.30303  0.37997  1.0000
  C   C27       1.0  0.12444  0.27373  0.39193  1.0000
  C   C28       1.0  0.10943  0.31395  0.43216  1.0000
  C   C29       1.0  0.16190  0.32458  0.37978  1.0000
  C   C30       1.0  0.06146  0.33259  0.38117  1.0000
  H   H27       1.0  0.00170  0.00261  0.04408  1.0000
  H   H28       1.0  0.04843  0.09851  0.18792  1.0000
  C   C31       1.0  0.29866  0.21614  0.40784  1.0000
  H   H29       1.0  0.12103  0.34912  0.38144  1.0000
  Fe  Fe4       1.0  0.99531  0.03775  0.20728  1.0000
  H   H30       1.0  0.07985  0.29587  0.35258  1.0000
  H   H31       1.0  0.13320  0.27065  0.36540  1.0000
  H   H32       1.0  0.14415  0.27224  0.40941  1.0000
  H   H33       1.0  0.13237  0.31418  0.44274  1.0000
  H   H34       1.0  0.10259  0.33754  0.43442  1.0000
  H   H35       1.0  0.06210  0.22297  0.09249  1.0000
  H   H36       1.0  0.09425  0.24598  0.42378  1.0000
  C   C32       1.0  0.03017  0.49226  0.43833  1.0000
  H   H37       1.0  0.26437  0.32641  0.14744  1.0000
  H   H38       1.0  0.06995  0.28684  0.44713  1.0000
  C   C33       1.0  0.21675  0.27302  0.48496  1.0000
  H   H39       1.0  0.30753  0.34536  0.06897  1.0000
  C   C34       1.0  0.29212  0.36485  0.13597  1.0000
  H   H40       1.0  0.28244  0.38025  0.03481  1.0000
  H   H41       1.0  0.05792  0.25414  0.06461  1.0000
  C   C35       1.0  0.21641  0.24357  0.47259  1.0000
  H   H42       1.0  0.21525  0.01520  0.33993  1.0000
  Fe  Fe5       1.0  0.28286  0.09729  0.48332  1.0000
  S   S8        1.0  0.23686  0.43813  0.47448  1.0000
  C   C36       1.0  0.26076  0.28440  0.99748  1.0000
  H   H43       1.0  0.27750  0.18047  0.37913  1.0000
  C   C37       1.0  0.20442  0.00018  0.39205  1.0000
  H   H44       1.0  0.11493  0.48763  0.35057  1.0000
  C   C38       1.0  0.23552  0.03523  0.48443  1.0000
  H   H45       1.0  0.19790  0.23618  0.45692  1.0000
  H   H46       1.0  0.17210  0.34478  0.36848  1.0000
  S   S9        1.0  0.02400  0.99774  0.21765  1.0000
  H   H47       1.0  0.01079  0.08278  0.08807  1.0000
  H   H48       1.0  0.29924  0.36066  0.16295  1.0000
  S   S10       1.0  0.13355  0.14753  0.00368  1.0000
  H   H49       1.0  0.28167  0.23156  0.39758  1.0000
  H   H50       1.0  0.16865  0.32379  0.40707  1.0000
  Fe  Fe6       1.0  0.01523  0.00578  0.27398  1.0000
  H   H51       1.0  0.30438  0.48244  0.33402  1.0000
  H   H52       1.0  0.02536  0.49215  0.36363  1.0000
  S   S11       1.0  0.28411  0.31614  0.00447  1.0000
  H   H53       1.0  0.02936  0.17346  0.06848  1.0000
  H   H54       1.0  0.21762  0.99468  0.41545  1.0000
  H   H55       1.0  0.16069  0.01755  0.43954  1.0000
  C   C39       1.0  0.10509  0.24600  0.39839  1.0000
  C   C40       1.0  0.01541  0.23474  0.07926  1.0000
  H   H56       1.0  0.12956  0.00722  0.41224  1.0000
  H   H57       1.0  0.29690  0.29698  0.45015  1.0000
  H   H58       1.0  0.01219  0.21748  0.14290  1.0000
  H   H59       1.0  0.00733  0.99517  0.14599  1.0000
  C   C41       1.0  0.29609  0.27787  0.43207  1.0000
  H   H60       1.0  0.30171  0.46674  0.40025  1.0000
  H   H61       1.0  0.03138  0.00503  0.11059  1.0000
  H   H62       1.0  0.02291  0.47479  0.45657  1.0000
  H   H63       1.0  0.08352  0.31074  0.47907  1.0000
  C   C42       1.0  0.31293  0.36851  0.07608  1.0000
  H   H64       1.0  0.25203  0.34635  0.11107  1.0000
  S   S12       1.0  0.04576  0.00678  0.32131  1.0000
  H   H65       1.0  0.28864  0.20756  0.43205  1.0000
  H   H66       1.0  0.01384  0.25211  0.09951  1.0000
  H   H67       1.0  0.08810  0.24298  0.37791  1.0000
  H   H68       1.0  0.30717  0.19776  0.35614  1.0000
  H   H69       1.0  0.28349  0.32161  0.10806  1.0000
  C   C43       1.0  0.04886  0.23184  0.07076  1.0000
  H   H70       1.0  0.19040  0.48251  0.47863  1.0000
  C   C44       1.0  0.32316  0.25764  0.43912  1.0000
  C   C45       1.0  0.26011  0.01686  0.47888  1.0000
  H   H71       1.0  0.29576  0.28714  0.40590  1.0000
  N   N3        1.0  0.31883  0.37220  0.11402  1.0000
  C   C46       1.0  0.21059  0.26221  0.99926  1.0000
  S   S13       1.0  0.99950  0.06403  0.15700  1.0000
  H   H72       1.0  0.18709  0.26434  0.00490  1.0000
  H   H73       1.0  0.23875  0.20089  0.47097  1.0000
  H   H74       1.0  0.10441  0.27774  0.46927  1.0000
  H   H75       1.0  0.22110  0.30727  0.01402  1.0000
  H   H76       1.0  0.30273  0.25635  0.35714  1.0000
  H   H77       1.0  0.28073  0.48284  0.43346  1.0000
  H   H78       1.0  0.03910  0.48024  0.41579  1.0000
  H   H79       1.0  0.31489  0.17204  0.39065  1.0000
  Fe  Fe7       1.0  0.17560  0.34652  0.48612  1.0000
  H   H80       1.0  0.25972  0.48388  0.35799  1.0000
  H   H81       1.0  0.32033  0.25005  0.46610  1.0000
  H   H82       1.0  0.26734  0.38741  0.07650  1.0000
  H   H83       1.0  0.30759  0.41909  0.11489  1.0000
  C   C47       1.0  0.25743  0.48063  0.38595  1.0000
  C   C48       1.0  0.28673  0.48578  0.40602  1.0000
  H   H84       1.0  0.32397  0.40392  0.17672  1.0000
  H   H85       1.0  0.00633  0.15076  0.13667  1.0000
  H   H86       1.0  0.99917  0.00479  0.43118  1.0000
  H   H87       1.0  0.99682  0.02699  0.07848  1.0000
  S   S14       1.0  0.23826  0.07400  0.48085  1.0000
  H   H88       1.0  0.00451  0.24441  0.05613  1.0000
  C   C49       1.0  0.23692  0.47508  0.48892  1.0000
  C   C50       1.0  0.99610  0.17228  0.14383  1.0000
  H   H89       1.0  0.32606  0.31139  0.14131  1.0000
  H   H90       1.0  0.99886  0.17527  0.17198  1.0000
  C   C51       1.0  0.32700  0.26034  0.35772  1.0000
  N   N4        1.0  0.32790  0.23141  0.41546  1.0000
  H   H91       1.0  0.25166  0.33705  0.84748  1.0000
  S   S15       1.0  0.11548  0.19474  0.94389  1.0000
  H   H92       1.0  0.15335  0.45893  0.56683  1.0000
  C   C52       1.0  0.16460  0.48194  0.63037  1.0000
  H   H93       1.0  0.20064  0.44299  0.59890  1.0000
  Fe  Fe8       1.0  0.09860  0.15039  0.96193  1.0000
  S   S16       1.0  0.09279  0.10879  0.92884  1.0000
  H   H94       1.0  0.28380  0.47478  0.50102  1.0000
  C   C53       1.0  0.25681  0.38460  0.85220  1.0000
  C   C54       1.0  0.26409  0.26187  0.51331  1.0000
  H   H95       1.0  0.02066  0.33465  0.90215  1.0000
  H   H96       1.0  0.26125  0.21228  0.97041  1.0000
  H   H97       1.0  0.18695  0.47967  0.64259  1.0000
  H   H98       1.0  0.31774  0.36081  0.92247  1.0000
  S   S17       1.0  0.19506  0.37782  0.52520  1.0000
  C   C55       1.0  0.26261  0.29092  0.89785  1.0000
  Fe  Fe9       1.0  0.14824  0.39417  0.53549  1.0000
  S   S18       1.0  0.13507  0.40039  0.59188  1.0000
  S   S19       1.0  0.29534  0.12054  0.53255  1.0000
  H   H99       1.0  0.01268  0.20932  0.97666  1.0000
  C   C56       1.0  0.03132  0.04082  0.63007  1.0000
  H   H100      1.0  0.05428  0.47498  0.59038  1.0000
  H   H101      1.0  0.15701  0.19836  0.87358  1.0000
  H   H102      1.0  0.30572  0.38708  0.89263  1.0000
  H   H103      1.0  0.02217  0.28435  0.91225  1.0000
  H   H104      1.0  0.20191  0.43841  0.55347  1.0000
  H   H105      1.0  0.17326  0.17294  0.92453  1.0000
  H   H106      1.0  0.28250  0.26922  0.52918  1.0000
  H   H107      1.0  0.27510  0.36841  0.95925  1.0000
  C   C57       1.0  0.27708  0.38293  0.93640  1.0000
  C   C58       1.0  0.06239  0.45891  0.64164  1.0000
  C   C59       1.0  0.06731  0.45993  0.60595  1.0000
  C   C60       1.0  0.08885  0.44166  0.59016  1.0000
  C   C61       1.0  0.10611  0.42236  0.61001  1.0000
  C   C62       1.0  0.10126  0.42135  0.64570  1.0000
  C   C63       1.0  0.07942  0.43935  0.66145  1.0000
  C   C64       1.0  0.01837  0.27234  0.88778  1.0000
  H   H108      1.0  0.09228  0.44272  0.56271  1.0000
  H   H109      1.0  0.11451  0.40654  0.66133  1.0000
  H   H110      1.0  0.07605  0.43838  0.68891  1.0000
  S   S20       1.0  0.99643  0.03634  0.72076  1.0000
  H   H111      1.0  0.24376  0.40043  0.86805  1.0000
  H   H112      1.0  0.27908  0.39399  0.84714  1.0000
  C   C65       1.0  0.30726  0.33112  0.86485  1.0000
  H   H113      1.0  0.15651  0.45871  0.62702  1.0000
  H   H114      1.0  0.04002  0.27119  0.87407  1.0000
  H   H115      1.0  0.31668  0.04861  0.64266  1.0000
  C   C66       1.0  0.02677  0.08852  0.84072  1.0000
  C   C67       1.0  0.04653  0.06690  0.85272  1.0000
  C   C68       1.0  0.06638  0.07350  0.87982  1.0000
  C   C69       1.0  0.06671  0.10171  0.89535  1.0000
  C   C70       1.0  0.04699  0.12339  0.88334  1.0000
  C   C71       1.0  0.02716  0.11679  0.85615  1.0000
  H   H116      1.0  0.04649  0.04506  0.84118  1.0000
  H   H117      1.0  0.08150  0.05657  0.88892  1.0000
  H   H118      1.0  0.04702  0.14520  0.89496  1.0000
  H   H119      1.0  0.20993  0.16764  0.90912  1.0000
  H   H120      1.0  0.28735  0.40398  0.94549  1.0000
  C   C72       1.0  0.99827  0.34489  0.90021  1.0000
  C   C73       1.0  0.17270  0.47433  0.56898  1.0000
  H   H121      1.0  0.28057  0.27709  0.88663  1.0000
  H   H122      1.0  0.23654  0.35278  0.88555  1.0000
  H   H123      1.0  0.24485  0.29491  0.87862  1.0000
  S   S21       1.0  0.12850  0.36019  0.49966  1.0000
  N   N5        1.0  0.28380  0.34391  0.88831  1.0000
  H   H124      1.0  0.25124  0.05560  0.57975  1.0000
  C   C74       1.0  0.25643  0.35325  0.86844  1.0000
  H   H125      1.0  0.18884  0.03675  0.49711  1.0000
  H   H126      1.0  0.28767  0.03852  0.54478  1.0000
  H   H127      1.0  0.19138  0.19008  0.85107  1.0000
  S   S22       1.0  0.14926  0.43027  0.49560  1.0000
  C   C75       1.0  0.00259  0.23039  0.98302  1.0000
  H   H128      1.0  0.24513  0.38371  0.82701  1.0000
  H   H129      1.0  0.29880  0.31115  0.85121  1.0000
  C   C76       1.0  0.18112  0.19337  0.87652  1.0000
  C   C77       1.0  0.31898  0.35146  0.83619  1.0000
  S   S23       1.0  0.03591  0.48371  0.65996  1.0000
  H   H130      1.0  0.32694  0.32365  0.88013  1.0000
  H   H131      1.0  0.25457  0.38815  0.92646  1.0000
  H   H132      1.0  0.01916  0.30382  0.98798  1.0000
  H   H133      1.0  0.22161  0.46853  0.57203  1.0000
  H   H134      1.0  0.30384  0.01267  0.65832  1.0000
  Fe  Fe10      1.0  0.14809  0.19369  0.98820  1.0000
  C   C78       1.0  0.27179  0.25739  0.98505  1.0000
  H   H135      1.0  0.29448  0.31367  0.92992  1.0000
  H   H136      1.0  0.25765  0.32797  0.93146  1.0000
  N   N6        1.0  0.17731  0.13648  0.88872  1.0000
  C   C79       1.0  0.17186  0.11759  0.92011  1.0000
  C   C80       1.0  0.14838  0.13772  0.86887  1.0000
  C   C81       1.0  0.18608  0.16707  0.90111  1.0000
  C   C82       1.0  0.20213  0.12244  0.86843  1.0000
  H   H137      1.0  0.21766  0.10475  0.93551  1.0000
  C   C83       1.0  0.13785  0.10822  0.85267  1.0000
  S   S24       1.0  0.29438  0.20839  0.51104  1.0000
  C   C84       1.0  0.20930  0.13617  0.83317  1.0000
  H   H138      1.0  0.15226  0.12605  0.93454  1.0000
  H   H139      1.0  0.16633  0.09435  0.91300  1.0000
  H   H140      1.0  0.14922  0.15378  0.84744  1.0000
  H   H141      1.0  0.13012  0.14613  0.88564  1.0000
  H   H142      1.0  0.19029  0.10201  0.96842  1.0000
  H   H143      1.0  0.19142  0.21350  0.88808  1.0000
  H   H144      1.0  0.22337  0.12340  0.88317  1.0000
  H   H145      1.0  0.19834  0.09820  0.86479  1.0000
  H   H146      1.0  0.25245  0.27751  0.91868  1.0000
  C   C85       1.0  0.00607  0.28367  0.98899  1.0000
  C   C86       1.0  0.27512  0.31992  0.91346  1.0000
  H   H147      1.0  0.13336  0.09090  0.87208  1.0000
  H   H148      1.0  0.11636  0.11210  0.83914  1.0000
  H   H149      1.0  0.15383  0.09977  0.83334  1.0000
  C   C87       1.0  0.19769  0.11572  0.94634  1.0000
  H   H150      1.0  0.24809  0.00492  0.55722  1.0000
  H   H151      1.0  0.00654  0.30640  0.85184  1.0000
  H   H152      1.0  0.22610  0.15415  0.83581  1.0000
  H   H153      1.0  0.18957  0.14470  0.81937  1.0000
  H   H154      1.0  0.21852  0.11870  0.81607  1.0000
  H   H155      1.0  0.03967  0.04203  0.65692  1.0000
  C   C88       1.0  0.29742  0.36883  0.90896  1.0000
  S   S25       1.0  0.19825  0.20341  0.97976  1.0000
  N   N7        1.0  0.30589  0.00923  0.58348  1.0000
  H   H156      1.0  0.30160  0.35575  0.81653  1.0000
  H   H157      1.0  0.20374  0.13773  0.95712  1.0000
  H   H158      1.0  0.01200  0.13370  0.84706  1.0000
  Fe  Fe11      1.0  0.01229  0.48984  0.71187  1.0000
  C   C89       1.0  0.20091  0.45525  0.57426  1.0000
  H   H159      1.0  0.27102  0.04953  0.61970  1.0000
  H   H160      1.0  0.05009  0.03276  0.61413  1.0000
  C   C90       1.0  0.25234  0.23303  0.97982  1.0000
  Fe  Fe12      1.0  0.99641  0.03688  0.77868  1.0000
  C   C91       1.0  0.01675  0.99563  0.57403  1.0000
  S   S26       1.0  0.00138  0.08130  0.80652  1.0000
  H   H161      1.0  0.31692  0.05444  0.56935  1.0000
  H   H162      1.0  0.03335  0.01157  0.56353  1.0000
  H   H163      1.0  0.29531  0.25517  0.97962  1.0000
  C   C92       1.0  0.26368  0.23240  0.50107  1.0000
  H   H164      1.0  0.14612  0.48315  0.68203  1.0000
  H   H165      1.0  0.24162  0.30447  0.51516  1.0000
  H   H166      1.0  0.27929  0.08049  0.59355  1.0000
  C   C93       1.0  0.27331  0.05658  0.59275  1.0000
  C   C94       1.0  0.29697  0.03980  0.57134  1.0000
  S   S27       1.0  0.05745  0.25531  0.97066  1.0000
  C   C95       1.0  0.24089  0.28201  0.50535  1.0000
  C   C96       1.0  0.32197  0.02472  0.64511  1.0000
  C   C97       1.0  0.22161  0.23514  0.98699  1.0000
  Fe  Fe13      1.0  0.08302  0.21334  0.98224  1.0000
  H   H167      1.0  0.26983  0.00215  0.62017  1.0000
  Fe  Fe14      1.0  0.30514  0.15959  0.49799  1.0000
  H   H168      1.0  0.99589  0.35518  0.87467  1.0000
  C   C98       1.0  0.01958  0.25632  0.98185  1.0000
  C   C99       1.0  0.26368  0.48798  0.50012  1.0000
  H   H169      1.0  0.99775  0.36315  0.91941  1.0000
  H   H170      1.0  0.02518  0.06379  0.62280  1.0000
  H   H171      1.0  0.00483  0.05455  0.57174  1.0000
  S   S28       1.0  0.02578  0.99687  0.78276  1.0000
  H   H172      1.0  0.17522  0.48448  0.54329  1.0000
  C   C100      1.0  0.00426  0.01966  0.62874  1.0000
  Fe  Fe15      1.0  0.02251  0.99388  0.72507  1.0000
  H   H173      1.0  0.01138  0.99941  0.64279  1.0000
  C   C101      1.0  0.20790  0.02256  0.49270  1.0000
  H   H174      1.0  0.01175  0.24916  0.89365  1.0000
  H   H175      1.0  0.11968  0.49232  0.64965  1.0000
  C   C102      1.0  0.99497  0.28780  0.86481  1.0000
  H   H176      1.0  0.23895  0.74989  0.43594  1.0000
  S   S29       1.0  0.13652  0.64229  0.00097  1.0000
  H   H177      1.0  0.02879  0.57582  0.05065  1.0000
  Fe  Fe16      1.0  0.32694  0.61430  0.45780  1.0000
  C   C103      1.0  0.99744  0.93710  0.38446  1.0000
  C   C104      1.0  0.03511  0.69808  0.15966  1.0000
  Fe  Fe17      1.0  0.10669  0.65993  0.04259  1.0000
  S   S30       1.0  0.10547  0.63733  0.09511  1.0000
  C   C105      1.0  0.06449  0.52704  0.04938  1.0000
  S   S31       1.0  0.12350  0.70661  0.03498  1.0000
  H   H178      1.0  0.27613  0.97175  0.47760  1.0000
  Fe  Fe18      1.0  0.13236  0.89429  0.44921  1.0000
  H   H179      1.0  0.22665  0.91338  0.39047  1.0000
  S   S32       1.0  0.11375  0.89980  0.39478  1.0000
  S   S33       1.0  0.00202  0.54318  0.26939  1.0000
  H   H180      1.0  0.06560  0.51839  0.10449  1.0000
  S   S34       1.0  0.11507  0.86052  0.48659  1.0000
  H   H181      1.0  0.23710  0.94945  0.40512  1.0000
  S   S35       1.0  0.17920  0.87696  0.45462  1.0000
  H   H182      1.0  0.00672  0.66643  0.10953  1.0000
  H   H183      1.0  0.14823  0.95320  0.41536  1.0000
  H   H184      1.0  0.10227  0.50561  0.99693  1.0000
  N   N8        1.0  0.00773  0.71401  0.10402  1.0000
  H   H185      1.0  0.99716  0.51096  0.34155  1.0000
  N   N9        1.0  0.06298  0.55154  0.02307  1.0000
  C   C106      1.0  0.03214  0.56488  0.02534  1.0000
  H   H186      1.0  0.27337  0.56322  0.44162  1.0000
  H   H187      1.0  0.05384  0.57441  0.35544  1.0000
  C   C107      1.0  0.25705  0.98595  0.48185  1.0000
  N   N10       1.0  0.00307  0.52570  0.39421  1.0000
  C   C108      1.0  0.22490  0.69095  0.40308  1.0000
  H   H188      1.0  0.24283  0.56365  0.41225  1.0000
  H   H189      1.0  0.25110  0.53029  0.43543  1.0000
  H   H190      1.0  0.02173  0.93270  0.38223  1.0000
  Fe  Fe19      1.0  0.08591  0.71023  0.99681  1.0000
  H   H191      1.0  0.21462  0.67365  0.41955  1.0000
  H   H192      1.0  0.05105  0.53038  0.39190  1.0000
  C   C109      1.0  0.00355  0.51289  0.42990  1.0000
  H   H193      1.0  0.29689  0.73741  0.32693  1.0000
  C   C110      1.0  0.19476  0.94732  0.37561  1.0000
  H   H194      1.0  0.26468  0.69526  0.34594  1.0000
  C   C111      1.0  0.06294  0.97609  0.34194  1.0000
  C   C112      1.0  0.06832  0.94939  0.32476  1.0000
  C   C113      1.0  0.08351  0.92618  0.34155  1.0000
  C   C114      1.0  0.09282  0.92903  0.37593  1.0000
  C   C115      1.0  0.08629  0.95529  0.39361  1.0000
  S   S36       1.0  0.28351  0.81244  0.01723  1.0000
  H   H195      1.0  0.06149  0.94687  0.29824  1.0000
  H   H196      1.0  0.08828  0.90590  0.32769  1.0000
  H   H197      1.0  0.09282  0.95761  0.42022  1.0000
  Fe  Fe20      1.0  0.02539  0.49875  0.26830  1.0000
  C   C116      1.0  0.07507  0.61905  0.11523  1.0000
  C   C117      1.0  0.08007  0.60311  0.14574  1.0000
  C   C118      1.0  0.05660  0.58800  0.16231  1.0000
  C   C119      1.0  0.02771  0.58907  0.14881  1.0000
  C   C120      1.0  0.02271  0.60509  0.11834  1.0000
  C   C121      1.0  0.04626  0.61979  0.10149  1.0000
  H   H198      1.0  0.10228  0.60234  0.15659  1.0000
  H   H199      1.0  0.06081  0.57585  0.18576  1.0000
  H   H200      1.0  0.01953  0.80072  0.01031  1.0000
  H   H201      1.0  0.04217  0.63175  0.07793  1.0000
  H   H202      1.0  0.26962  0.69363  0.02633  1.0000
  C   C122      1.0  0.08577  0.57573  0.02905  1.0000
  H   H203      1.0  0.27114  0.72882  0.04859  1.0000
  H   H204      1.0  0.21088  0.71108  0.40572  1.0000
  C   C123      1.0  0.26008  0.78202  0.00493  1.0000
  H   H205      1.0  0.29488  0.56044  0.38526  1.0000
  C   C124      1.0  0.02432  0.58862  0.99825  1.0000
  C   C125      1.0  0.05902  0.53664  0.08691  1.0000
  H   H206      1.0  0.08939  0.58867  0.00513  1.0000
  H   H207      1.0  0.22767  0.86421  0.99323  1.0000
  H   H208      1.0  0.17910  0.96590  0.43958  1.0000
  H   H209      1.0  0.17690  0.93029  0.37214  1.0000
  H   H210      1.0  0.05009  0.69323  0.09139  1.0000
  C   C126      1.0  0.22958  0.97333  0.49087  1.0000
  C   C127      1.0  0.07202  0.97891  0.37645  1.0000
  C   C128      1.0  0.26118  0.54962  0.42235  1.0000
  C   C129      1.0  0.27506  0.70469  0.05107  1.0000
  H   H211      1.0  0.29472  0.67883  0.36826  1.0000
  H   H212      1.0  0.26752  0.53550  0.37016  1.0000
  H   H213      1.0  0.32237  0.74483  0.10555  1.0000
  H   H214      1.0  0.26261  0.77984  0.42274  1.0000
  H   H215      1.0  0.03698  0.97133  0.13372  1.0000
  S   S37       1.0  0.99696  0.57146  0.16910  1.0000
  C   C130      1.0  0.11678  0.56620  0.04268  1.0000
  C   C131      1.0  0.30242  0.72689  0.41433  1.0000
  H   H216      1.0  0.07221  0.55642  0.09418  1.0000
  H   H217      1.0  0.25591  0.70411  0.44260  1.0000
  H   H218      1.0  0.23918  0.49490  0.39565  1.0000
  C   C132      1.0  0.03065  0.54437  0.38980  1.0000
  H   H219      1.0  0.31513  0.74446  0.40072  1.0000
  H   H220      1.0  0.20771  0.92890  0.42605  1.0000
  H   H221      1.0  0.01395  0.96106  0.07771  1.0000
  S   S38       1.0  0.13764  0.93011  0.48898  1.0000
  S   S39       1.0  0.28037  0.63039  0.46882  1.0000
  N   N11       1.0  0.30275  0.51490  0.40040  1.0000
  H   H222      1.0  0.27255  0.75989  0.36885  1.0000
  C   C133      1.0  0.23185  0.77910  0.02031  1.0000
  H   H223      1.0  0.06398  0.74435  0.11546  1.0000
  H   H224      1.0  0.31340  0.68447  0.43938  1.0000
  C   C134      1.0  0.24591  0.76334  0.41372  1.0000
  C   C135      1.0  0.28193  0.54031  0.39265  1.0000
  H   H225      1.0  0.04191  0.60569  0.99589  1.0000
  C   C136      1.0  0.03322  0.56077  0.35528  1.0000
  H   H226      1.0  0.13399  0.58073  0.03105  1.0000
  C   C137      1.0  0.01299  0.71937  0.14180  1.0000
  H   H227      1.0  0.29538  0.73757  0.43882  1.0000
  C   C138      1.0  0.02187  0.75427  0.99734  1.0000
  H   H228      1.0  0.22542  0.77513  0.40533  1.0000
  C   C139      1.0  0.32519  0.51227  0.37175  1.0000
  C   C140      1.0  0.21780  0.93450  0.40104  1.0000
  N   N12       1.0  0.18110  0.97676  0.38534  1.0000
  H   H229      1.0  0.22480  0.79528  0.03917  1.0000
  Fe  Fe21      1.0  0.99622  0.53671  0.21208  1.0000
  H   H230      1.0  0.20642  0.94851  0.35059  1.0000
  H   H231      1.0  0.03278  0.56099  0.41083  1.0000
  C   C141      1.0  0.28460  0.70071  0.36181  1.0000
  H   H232      1.0  0.25885  0.69612  0.07016  1.0000
  S   S40       1.0  0.06705  0.66506  0.00805  1.0000
  C   C142      1.0  0.03667  0.71314  0.08449  1.0000
  H   H233      1.0  0.04779  0.50946  0.04327  1.0000
  H   H234      1.0  0.03752  0.70486  0.18698  1.0000
  H   H235      1.0  0.01473  0.54728  0.02359  1.0000
  H   H236      1.0  0.05773  0.69894  0.14832  1.0000
  C   C143      1.0  0.25709  0.69648  0.41552  1.0000
  H   H237      1.0  0.30448  0.52408  0.45507  1.0000
  H   H238      1.0  0.00355  0.60019  0.00602  1.0000
  H   H239      1.0  0.03505  0.54104  0.09177  1.0000
  H   H240      1.0  0.02705  0.67482  0.15983  1.0000
  H   H241      1.0  0.08610  0.51529  0.04897  1.0000
  H   H242      1.0  0.00350  0.66493  0.04959  1.0000
  C   C144      1.0  0.21265  0.75525  0.01187  1.0000
  H   H243      1.0  0.03545  0.54489  0.33370  1.0000
  C   C145      1.0  0.25826  0.74447  0.38378  1.0000
  H   H244      1.0  0.11854  0.57035  0.07076  1.0000
  H   H245      1.0  0.19120  0.75323  0.02429  1.0000
  H   H246      1.0  0.07719  0.59202  0.04804  1.0000
  C   C146      1.0  0.16400  0.97213  0.41821  1.0000
  H   H247      1.0  0.04558  0.76106  0.07865  1.0000
  C   C147      1.0  0.01963  0.98653  0.12351  1.0000
  C   C148      1.0  0.31972  0.52286  0.43268  1.0000
  H   H248      1.0  0.23970  0.73913  0.36575  1.0000
  H   H249      1.0  0.12346  0.54324  0.03671  1.0000
  H   H250      1.0  0.16126  0.95341  0.31693  1.0000
  H   H251      1.0  0.30772  0.70113  0.09104  1.0000
  C   C149      1.0  0.05661  0.74081  0.08860  1.0000
  H   H252      1.0  0.03239  0.71070  0.05645  1.0000
  H   H253      1.0  0.02097  0.74241  0.14657  1.0000
  N   N13       1.0  0.27557  0.71721  0.39387  1.0000
  H   H254      1.0  0.29488  0.76581  0.08147  1.0000
  H   H255      1.0  0.07706  0.73774  0.07307  1.0000
  H   H256      1.0  0.01430  0.57598  0.35046  1.0000
  S   S41       1.0  0.06100  0.75381  0.99786  1.0000
  H   H257      1.0  0.00045  0.60601  0.10766  1.0000
  C   C150      1.0  0.15916  0.98682  0.35806  1.0000
  H   H258      1.0  0.26783  0.67433  0.41717  1.0000
  H   H259      1.0  0.23944  0.98589  0.35582  1.0000
  H   H260      1.0  0.13652  0.97779  0.36315  1.0000
  H   H261      1.0  0.29579  0.52160  0.32717  1.0000
  H   H262      1.0  0.00917  0.98309  0.38340  1.0000
  H   H263      1.0  0.22409  0.68278  0.37625  1.0000
  C   C151      1.0  0.30708  0.69738  0.06298  1.0000
  C   C152      1.0  0.31873  0.75932  0.08314  1.0000
  H   H264      1.0  0.04876  0.50503  0.45013  1.0000
  H   H265      1.0  0.30750  0.71340  0.99616  1.0000
  C   C153      1.0  0.99921  0.96908  0.09867  1.0000
  C   C154      1.0  0.00687  0.78086  0.00461  1.0000
  H   H266      1.0  0.31001  0.67295  0.06008  1.0000
  H   H267      1.0  0.31424  0.75608  0.02869  1.0000
  H   H268      1.0  0.14920  0.98918  0.30342  1.0000
  C   C155      1.0  0.16525  0.97756  0.32052  1.0000
  H   H269      1.0  0.18794  0.98315  0.31171  1.0000
  C   C156      1.0  0.00284  0.50166  0.36721  1.0000
  H   H270      1.0  0.00450  0.53092  0.44940  1.0000
  H   H271      1.0  0.99806  0.76095  0.09853  1.0000
  C   C157      1.0  0.31285  0.50549  0.33570  1.0000
  C   C158      1.0  0.30659  0.71691  0.33789  1.0000
  S   S42       1.0  0.06697  0.49334  0.30203  1.0000
  S   S43       1.0  0.02268  0.49425  0.21042  1.0000
  H   H272      1.0  0.31187  0.70210  0.31588  1.0000
  C   C159      1.0  0.32439  0.70199  0.42412  1.0000
  H   H273      1.0  0.32806  0.72200  0.35074  1.0000
  H   H274      1.0  0.13317  0.99229  0.45437  1.0000
  C   C160      1.0  0.23860  0.53498  0.50916  1.0000
  S   S44       1.0  0.11318  0.69540  0.95136  1.0000
  H   H275      1.0  0.03297  0.89468  0.78914  1.0000
  C   C161      1.0  0.19263  0.51914  0.59582  1.0000
  H   H276      1.0  0.03648  0.63658  0.82487  1.0000
  Fe  Fe22      1.0  0.09735  0.64941  0.96546  1.0000
  S   S45       1.0  0.08395  0.60779  0.93501  1.0000
  H   H277      1.0  0.01103  0.59721  0.71491  1.0000
  H   H278      1.0  0.29008  0.76290  0.96802  1.0000
  C   C162      1.0  0.09664  0.86192  0.72838  1.0000
  C   C163      1.0  0.21178  0.52202  0.49822  1.0000
  C   C164      1.0  0.26864  0.76094  0.98040  1.0000
  H   H279      1.0  0.08052  0.84491  0.71926  1.0000
  H   H280      1.0  0.02957  0.98125  0.59194  1.0000
  S   S46       1.0  0.16924  0.87867  0.53874  1.0000
  Fe  Fe23      1.0  0.30047  0.66297  0.50593  1.0000
  Fe  Fe24      1.0  0.12281  0.89556  0.52722  1.0000
  S   S47       1.0  0.08328  0.90195  0.56384  1.0000
  S   S48       1.0  0.29886  0.63151  0.55093  1.0000
  H   H281      1.0  0.07574  0.93777  0.82498  1.0000
  C   C165      1.0  0.24949  0.73703  0.97206  1.0000
  H   H282      1.0  0.02307  0.60217  0.67195  1.0000
  H   H283      1.0  0.31778  0.86401  0.92873  1.0000
  H   H284      1.0  0.19748  0.52661  0.56921  1.0000
  S   S49       1.0  0.01906  0.58245  0.79103  1.0000
  H   H285      1.0  0.29839  0.91418  0.93404  1.0000
  H   H286      1.0  0.00625  0.89483  0.73950  1.0000
  H   H287      1.0  0.11259  0.98122  0.64514  1.0000
  H   H288      1.0  0.26086  0.96683  0.55433  1.0000
  C   C166      1.0  0.26047  0.86731  0.95264  1.0000
  C   C167      1.0  0.06865  0.96441  0.65613  1.0000
  C   C168      1.0  0.09541  0.96568  0.63749  1.0000
  C   C169      1.0  0.10032  0.94683  0.60911  1.0000
  C   C170      1.0  0.07846  0.92640  0.59917  1.0000
  C   C171      1.0  0.05163  0.92522  0.61778  1.0000
  C   C172      1.0  0.04669  0.94415  0.64605  1.0000
  H   H289      1.0  0.25878  0.80889  0.93153  1.0000
  H   H290      1.0  0.12105  0.94795  0.59505  1.0000
  H   H291      1.0  0.03463  0.90943  0.61027  1.0000
  H   H292      1.0  0.02602  0.94284  0.66017  1.0000
  H   H293      1.0  0.11722  0.84944  0.73497  1.0000
  H   H294      1.0  0.10583  0.93063  0.70107  1.0000
  H   H295      1.0  0.20252  0.84917  0.87912  1.0000
  C   C173      1.0  0.20624  0.77335  0.50073  1.0000
  H   H296      1.0  0.28518  0.52763  0.51916  1.0000
  H   H297      1.0  0.12916  0.95228  0.72800  1.0000
  C   C174      1.0  0.22304  0.83719  0.88703  1.0000
  C   C175      1.0  0.03649  0.58912  0.83153  1.0000
  C   C176      1.0  0.04467  0.56600  0.85352  1.0000
  C   C177      1.0  0.05905  0.57224  0.88501  1.0000
  C   C178      1.0  0.06530  0.60162  0.89512  1.0000
  C   C179      1.0  0.05681  0.62478  0.87333  1.0000
  C   C180      1.0  0.04260  0.61852  0.84169  1.0000
  H   H298      1.0  0.04024  0.54329  0.84605  1.0000
  H   H299      1.0  0.06565  0.55410  0.90144  1.0000
  H   H300      1.0  0.06154  0.64746  0.88064  1.0000
  C   C181      1.0  0.29255  0.80633  0.89278  1.0000
  N   N14       1.0  0.27118  0.85448  0.91903  1.0000
  C   C182      1.0  0.00893  0.61199  0.69242  1.0000
  H   H301      1.0  0.29434  0.81940  0.94573  1.0000
  H   H302      1.0  0.06891  0.86165  0.77294  1.0000
  C   C183      1.0  0.24888  0.85982  0.89061  1.0000
  H   H303      1.0  0.06319  0.55540  0.96756  1.0000
  H   H304      1.0  0.11496  0.54043  0.55003  1.0000
  H   H305      1.0  0.03622  0.93335  0.78224  1.0000
  H   H306      1.0  0.21727  0.82488  0.91056  1.0000
  H   H307      1.0  0.25649  0.89155  0.95045  1.0000
  C   C184      1.0  0.14333  0.49530  0.65745  1.0000
  H   H308      1.0  0.22763  0.82119  0.86597  1.0000
  H   H309      1.0  0.23883  0.88229  0.89329  1.0000
  Fe  Fe25      1.0  0.28140  0.59812  0.51262  1.0000
  H   H310      1.0  0.29227  0.78199  0.89724  1.0000
  H   H311      1.0  0.21347  0.50825  0.60476  1.0000
  H   H312      1.0  0.02397  0.97572  0.52377  1.0000
  H   H313      1.0  0.04688  0.91535  0.84215  1.0000
  H   H314      1.0  0.03113  0.86439  0.72946  1.0000
  S   S50       1.0  0.23891  0.57235  0.52191  1.0000
  H   H315      1.0  0.01992  0.57860  0.97267  1.0000
  H   H316      1.0  0.28821  0.96963  0.60730  1.0000
  H   H317      1.0  0.23767  0.80934  0.50260  1.0000
  Fe  Fe26      1.0  0.00362  0.53757  0.76942  1.0000
  C   C185      1.0  0.13776  0.51249  0.58709  1.0000
  H   H318      1.0  0.23468  0.97731  0.58630  1.0000
  C   C186      1.0  0.30001  0.86990  0.90998  1.0000
  C   C187      1.0  0.27845  0.82209  0.92396  1.0000
  H   H319      1.0  0.30846  0.86231  0.88458  1.0000
  C   C188      1.0  0.06447  0.91598  0.82210  1.0000
  C   C189      1.0  0.02473  0.88735  0.72264  1.0000
  H   H320      1.0  0.26043  0.85980  0.86530  1.0000
  H   H321      1.0  0.10257  0.87667  0.70686  1.0000
  H   H322      1.0  0.04202  0.93178  0.72146  1.0000
  H   H323      1.0  0.28031  0.81069  0.86860  1.0000
  H   H324      1.0  0.08022  0.89768  0.82761  1.0000
  H   H325      1.0  0.27794  0.86469  0.97283  1.0000
  H   H326      1.0  0.16999  0.56097  0.60980  1.0000
  Fe  Fe27      1.0  0.15020  0.68971  0.99037  1.0000
  H   H327      1.0  0.15444  0.54475  0.54873  1.0000
  C   C190      1.0  0.00548  0.72867  0.99003  1.0000
  C   C191      1.0  0.26454  0.51789  0.51019  1.0000
  S   S51       1.0  0.29030  0.71322  0.50696  1.0000
  H   H328      1.0  0.13197  0.91293  0.73039  1.0000
  C   C192      1.0  0.18915  0.54718  0.61799  1.0000
  H   H329      1.0  0.28028  0.91228  0.89218  1.0000
  H   H330      1.0  0.18756  0.54174  0.64559  1.0000
  Fe  Fe28      1.0  0.16276  0.84591  0.49538  1.0000
  H   H331      1.0  0.20938  0.56115  0.61478  1.0000
  S   S52       1.0  0.06425  0.98769  0.69257  1.0000
  H   H332      1.0  0.23151  0.83045  0.97036  1.0000
  H   H333      1.0  0.13157  0.52946  0.60649  1.0000
  N   N15       1.0  0.07011  0.90735  0.75647  1.0000
  C   C193      1.0  0.04957  0.91289  0.78650  1.0000
  C   C194      1.0  0.05130  0.90903  0.72437  1.0000
  C   C195      1.0  0.09278  0.93209  0.75602  1.0000
  C   C196      1.0  0.08491  0.87755  0.76115  1.0000
  H   H334      1.0  0.21176  0.86163  0.95137  1.0000
  C   C197      1.0  0.29905  0.90407  0.90803  1.0000
  C   C198      1.0  0.11597  0.93142  0.72697  1.0000
  H   H335      1.0  0.25650  0.72072  0.95334  1.0000
  H   H336      1.0  0.04848  0.52142  0.98294  1.0000
  H   H337      1.0  0.11439  0.54072  0.97820  1.0000
  H   H338      1.0  0.06448  0.90547  0.70077  1.0000
  H   H339      1.0  0.32358  0.96885  0.56075  1.0000
  H   H340      1.0  0.08131  0.95402  0.75488  1.0000
  H   H341      1.0  0.10617  0.93235  0.78005  1.0000
  H   H342      1.0  0.10384  0.87940  0.77958  1.0000
  S   S53       1.0  0.19898  0.70217  0.97751  1.0000
  C   C199      1.0  0.13639  0.52821  0.55193  1.0000
  H   H343      1.0  0.99795  0.81544  0.93634  1.0000
  C   C200      1.0  0.26018  0.76679  0.50536  1.0000
  C   C201      1.0  0.09638  0.52386  0.97921  1.0000
  H   H344      1.0  0.14749  0.51903  0.66269  1.0000
  H   H345      1.0  0.18384  0.98218  0.50375  1.0000
  H   H346      1.0  0.01849  0.63409  0.69845  1.0000
  C   C202      1.0  0.22140  0.73384  0.98783  1.0000
  H   H347      1.0  0.13657  0.51217  0.53029  1.0000
  C   C203      1.0  0.25465  0.98506  0.57211  1.0000
  S   S54       1.0  0.32622  0.57916  0.49875  1.0000
  C   C204      1.0  0.20496  0.99170  0.49623  1.0000
  C   C205      1.0  0.23117  0.85480  0.96714  1.0000
  H   H348      1.0  0.09503  0.51404  0.95304  1.0000
  H   H349      1.0  0.31629  0.81279  0.88971  1.0000
  H   H350      1.0  0.28216  0.77657  0.50688  1.0000
  H   H351      1.0  0.00286  0.76937  0.86066  1.0000
  H   H352      1.0  0.00645  0.95151  0.55290  1.0000
  H   H353      1.0  0.01689  0.70816  0.98417  1.0000
  C   C206      1.0  0.23493  0.78551  0.50289  1.0000
  C   C207      1.0  0.06621  0.53828  0.98768  1.0000
  C   C208      1.0  0.25729  0.73563  0.50576  1.0000
  H   H354      1.0  0.32000  0.91209  0.89599  1.0000
  H   H355      1.0  0.30140  0.99036  0.53242  1.0000
  C   C209      1.0  0.22861  0.72347  0.50376  1.0000
  S   S55       1.0  0.22754  0.93484  0.49762  1.0000
  H   H356      1.0  0.22582  0.69964  0.50408  1.0000
  S   S56       1.0  0.17333  0.79567  0.49676  1.0000
  C   C210      1.0  0.00682  0.97500  0.54429  1.0000
  H   H357      1.0  0.01577  0.88698  0.69601  1.0000
  C   C211      1.0  0.20338  0.74218  0.50119  1.0000
  N   N16       1.0  0.16688  0.49760  0.59604  1.0000
  Fe  Fe29      1.0  0.18330  0.91054  0.49710  1.0000
  H   H358      1.0  0.19171  0.53526  0.49715  1.0000
  H   H359      1.0  0.11931  0.49597  0.58752  1.0000
  H   H360      1.0  0.18138  0.73243  0.49961  1.0000
  H   H361      1.0  0.99753  0.63577  0.75304  1.0000
  S   S57       1.0  0.02718  0.49356  0.76734  1.0000
  C   C212      1.0  0.31823  0.99212  0.55328  1.0000
  C   C213      1.0  0.28017  0.99147  0.59759  1.0000
  H   H362      1.0  0.99620  0.67489  0.74978  1.0000
  Fe  Fe30      1.0  0.46008  0.01278  0.27607  1.0000
  S   S58       1.0  0.48146  0.46602  0.28628  1.0000
  S   S59       1.0  0.41875  0.01588  0.31003  1.0000
  Fe  Fe31      1.0  0.47076  0.46542  0.22971  1.0000
  S   S60       1.0  0.45737  0.42191  0.20335  1.0000
  H   H363      1.0  0.46181  0.11554  0.22911  1.0000
  Fe  Fe32      1.0  0.38590  0.36427  0.02313  1.0000
  S   S61       1.0  0.39287  0.40422  0.05849  1.0000
  S   S62       1.0  0.37033  0.31772  0.03400  1.0000
  H   H364      1.0  0.43376  0.02771  0.41215  1.0000
  Fe  Fe33      1.0  0.33749  0.11969  0.44474  1.0000
  S   S63       1.0  0.36637  0.12430  0.39671  1.0000
  H   H365      1.0  0.58055  0.37543  0.34219  1.0000
  C   C214      1.0  0.44938  0.11093  0.25312  1.0000
  S   S64       1.0  0.45842  0.01139  0.21826  1.0000
  C   C215      1.0  0.40638  0.04579  0.33620  1.0000
  C   C216      1.0  0.42012  0.07366  0.33575  1.0000
  C   C217      1.0  0.40787  0.09741  0.35471  1.0000
  C   C218      1.0  0.38242  0.09333  0.37527  1.0000
  C   C219      1.0  0.36941  0.06516  0.37668  1.0000
  C   C220      1.0  0.38111  0.04167  0.35692  1.0000
  H   H366      1.0  0.43983  0.07704  0.32040  1.0000
  H   H367      1.0  0.41820  0.11907  0.35358  1.0000
  S   S65       1.0  0.56371  0.16359  0.01104  1.0000
  H   H368      1.0  0.37029  0.02022  0.35748  1.0000
  C   C221      1.0  0.43886  0.41730  0.16338  1.0000
  C   C222      1.0  0.43860  0.38913  0.14773  1.0000
  C   C223      1.0  0.42486  0.38466  0.11551  1.0000
  C   C224      1.0  0.41095  0.40832  0.09880  1.0000
  C   C225      1.0  0.41082  0.43638  0.11470  1.0000
  C   C226      1.0  0.42476  0.44090  0.14676  1.0000
  H   H369      1.0  0.44945  0.37074  0.16044  1.0000
  H   H370      1.0  0.42516  0.36295  0.10360  1.0000
  H   H371      1.0  0.39990  0.45478  0.10209  1.0000
  H   H372      1.0  0.42459  0.46262  0.15868  1.0000
  Fe  Fe34      1.0  0.50016  0.03923  0.21973  1.0000
  H   H373      1.0  0.39159  0.23059  0.42978  1.0000
  S   S66       1.0  0.49892  0.07666  0.18025  1.0000
  H   H374      1.0  0.40623  0.11688  0.27538  1.0000
  C   C227      1.0  0.37836  0.04052  0.22931  1.0000
  S   S67       1.0  0.49919  0.04363  0.27752  1.0000
  Fe  Fe35      1.0  0.60478  0.15443  0.04210  1.0000
  S   S68       1.0  0.60733  0.12830  0.09226  1.0000
  S   S69       1.0  0.62387  0.20048  0.03492  1.0000
  Fe  Fe36      1.0  0.63345  0.39736  0.46432  1.0000
  C   C228      1.0  0.36856  0.10771  0.21926  1.0000
  S   S70       1.0  0.59125  0.40771  0.43363  1.0000
  H   H375      1.0  0.45441  0.08814  0.26167  1.0000
  H   H376      1.0  0.38303  0.09665  0.15208  1.0000
  C   C229      1.0  0.45524  0.01925  0.12033  1.0000
  C   C230      1.0  0.57526  0.45798  0.33228  1.0000
  C   C231      1.0  0.55168  0.45130  0.35434  1.0000
  C   C232      1.0  0.55705  0.43598  0.38525  1.0000
  C   C233      1.0  0.58601  0.42723  0.39455  1.0000
  C   C234      1.0  0.60959  0.43342  0.37228  1.0000
  C   C235      1.0  0.60424  0.44890  0.34140  1.0000
  H   H377      1.0  0.52928  0.45812  0.34770  1.0000
  H   H378      1.0  0.53859  0.43106  0.40212  1.0000
  H   H379      1.0  0.63186  0.42617  0.37876  1.0000
  H   H380      1.0  0.38723  0.05850  0.16582  1.0000
  C   C236      1.0  0.57671  0.11255  0.11484  1.0000
  C   C237      1.0  0.58234  0.09313  0.14236  1.0000
  C   C238      1.0  0.55880  0.08130  0.16206  1.0000
  C   C239      1.0  0.52929  0.08909  0.15470  1.0000
  C   C240      1.0  0.52361  0.10808  0.12681  1.0000
  C   C241      1.0  0.54713  0.11960  0.10685  1.0000
  H   H381      1.0  0.60510  0.08753  0.14884  1.0000
  H   H382      1.0  0.56358  0.06684  0.18350  1.0000
  H   H383      1.0  0.50091  0.11432  0.12090  1.0000
  H   H384      1.0  0.54240  0.13457  0.08587  1.0000
  C   C242      1.0  0.64714  0.29161  0.02158  1.0000
  H   H385      1.0  0.48602  0.02650  0.05749  1.0000
  H   H386      1.0  0.34385  0.09182  0.26476  1.0000
  H   H387      1.0  0.64507  0.32719  0.43065  1.0000
  H   H388      1.0  0.54931  0.03691  0.04773  1.0000
  N   N17       1.0  0.60889  0.31887  0.39500  1.0000
  C   C243      1.0  0.60836  0.34666  0.37348  1.0000
  H   H389      1.0  0.47038  0.00533  0.44389  1.0000
  H   H390      1.0  0.37264  0.23768  0.47022  1.0000
  H   H391      1.0  0.54616  0.01526  0.14944  1.0000
  H   H392      1.0  0.36999  0.02580  0.25004  1.0000
  H   H393      1.0  0.58107  0.27877  0.44482  1.0000
  H   H394      1.0  0.46284  0.21515  0.01069  1.0000
  H   H395      1.0  0.39225  0.02694  0.21175  1.0000
  H   H396      1.0  0.61245  0.29716  0.46533  1.0000
  C   C244      1.0  0.49745  0.03450  0.38138  1.0000
  H   H397      1.0  0.41513  0.07586  0.14043  1.0000
  H   H398      1.0  0.45837  0.12624  0.27301  1.0000
  Fe  Fe37      1.0  0.52692  0.00181  0.27835  1.0000
  C   C245      1.0  0.49723  0.44921  0.11553  1.0000
  C   C246      1.0  0.47638  0.23406  0.00372  1.0000
  H   H399      1.0  0.51973  0.00157  0.43112  1.0000
  H   H400      1.0  0.35531  0.09382  0.20137  1.0000
  C   C247      1.0  0.39896  0.07969  0.16154  1.0000
  H   H401      1.0  0.36343  0.30895  0.12621  1.0000
  Fe  Fe38      1.0  0.58482  0.20768  0.99953  1.0000
  C   C248      1.0  0.51378  0.41988  0.10812  1.0000
  H   H402      1.0  0.41931  0.05628  0.24997  1.0000
  C   C249      1.0  0.62076  0.48571  0.44752  1.0000
  H   H403      1.0  0.46780  0.00475  0.35544  1.0000
  H   H404      1.0  0.35275  0.22094  0.36907  1.0000
  H   H405      1.0  0.59559  0.34562  0.43862  1.0000
  C   C250      1.0  0.50758  0.23195  0.00512  1.0000
  H   H406      1.0  0.61769  0.30350  0.32599  1.0000
  H   H407      1.0  0.56234  0.36322  0.37998  1.0000
  H   H408      1.0  0.43915  0.00175  0.11271  1.0000
  C   C251      1.0  0.50737  0.02208  0.07119  1.0000
  H   H409      1.0  0.35226  0.35753  0.15078  1.0000
  S   S71       1.0  0.56963  0.47783  0.29344  1.0000
  H   H410      1.0  0.62701  0.46374  0.43706  1.0000
  H   H411      1.0  0.56557  0.32695  0.41832  1.0000
  H   H412      1.0  0.49937  0.40115  0.11635  1.0000
  C   C252      1.0  0.39679  0.06573  0.24571  1.0000
  H   H413      1.0  0.33126  0.28419  0.36307  1.0000
  H   H414      1.0  0.48438  0.04276  0.40349  1.0000
  H   H415      1.0  0.38883  0.20245  0.46164  1.0000
  Fe  Fe39      1.0  0.52344  0.48994  0.27255  1.0000
  H   H416      1.0  0.36466  0.25315  0.39001  1.0000
  H   H417      1.0  0.51800  0.21162  0.01349  1.0000
  H   H418      1.0  0.63524  0.30082  0.04420  1.0000
  S   S72       1.0  0.56489  0.00151  0.31759  1.0000
  Fe  Fe40      1.0  0.33405  0.32448  0.99468  1.0000
  C   C253      1.0  0.58934  0.32439  0.42591  1.0000
  S   S73       1.0  0.56439  0.25335  0.99503  1.0000
  H   H419      1.0  0.33473  0.25535  0.33124  1.0000
  H   H420      1.0  0.62335  0.34516  0.35103  1.0000
  C   C254      1.0  0.48850  0.00277  0.37064  1.0000
  H   H421      1.0  0.57209  0.29409  0.37220  1.0000
  C   C255      1.0  0.43278  0.00313  0.41032  1.0000
  H   H422      1.0  0.53485  0.41793  0.12288  1.0000
  H   H423      1.0  0.33417  0.31203  0.09563  1.0000
  C   C256      1.0  0.58991  0.30029  0.45411  1.0000
  H   H424      1.0  0.44965  0.48860  0.10477  1.0000
  H   H425      1.0  0.52224  0.02428  0.01775  1.0000
  C   C257      1.0  0.34725  0.20920  0.43413  1.0000
  C   C258      1.0  0.61104  0.28416  0.34152  1.0000
  H   H426      1.0  0.35368  0.19044  0.41709  1.0000
  H   H427      1.0  0.34438  0.41165  0.10140  1.0000
  C   C259      1.0  0.57762  0.35592  0.35928  1.0000
  C   C260      1.0  0.64014  0.31300  0.40787  1.0000
  H   H428      1.0  0.42697  0.99657  0.38384  1.0000
  H   H429      1.0  0.38842  0.06910  0.27228  1.0000
  H   H430      1.0  0.43530  0.07544  0.19736  1.0000
  C   C261      1.0  0.59662  0.29228  0.37617  1.0000
  H   H431      1.0  0.41359  0.99656  0.42659  1.0000
  H   H432      1.0  0.35813  0.04810  0.21577  1.0000
  H   H433      1.0  0.64243  0.28971  0.41704  1.0000
  N   N18       1.0  0.39886  0.09460  0.22642  1.0000
  C   C262      1.0  0.41558  0.11643  0.24891  1.0000
  H   H434      1.0  0.59439  0.27231  0.32537  1.0000
  C   C263      1.0  0.41616  0.09080  0.19343  1.0000
  N   N19       1.0  0.50371  0.99622  0.09539  1.0000
  H   H435      1.0  0.63054  0.26935  0.34540  1.0000
  C   C264      1.0  0.34411  0.24058  0.38334  1.0000
  H   H436      1.0  0.51804  0.41669  0.08034  1.0000
  H   H437      1.0  0.33893  0.43721  0.15863  1.0000
  H   H438      1.0  0.52163  0.03574  0.38739  1.0000
  H   H439      1.0  0.36180  0.40516  0.16005  1.0000
  H   H440      1.0  0.54316  0.99791  0.04162  1.0000
  C   C265      1.0  0.34865  0.11281  0.25101  1.0000
  H   H441      1.0  0.42619  0.11233  0.18535  1.0000
  S   S74       1.0  0.35313  0.14518  0.49110  1.0000
  C   C266      1.0  0.37665  0.22119  0.44955  1.0000
  H   H442      1.0  0.37099  0.12939  0.20584  1.0000
  H   H443      1.0  0.56009  0.46325  0.11182  1.0000
  H   H444      1.0  0.47599  0.44783  0.10086  1.0000
  H   H445      1.0  0.53387  0.46039  0.06092  1.0000
  H   H446      1.0  0.56711  0.33817  0.34369  1.0000
  C   C267      1.0  0.52521  0.25616  0.99584  1.0000
  H   H447      1.0  0.49096  0.44879  0.14323  1.0000
  H   H448      1.0  0.62258  0.45374  0.32433  1.0000
  C   C268      1.0  0.53198  0.01963  0.04346  1.0000
  H   H449      1.0  0.33704  0.47794  0.44398  1.0000
  H   H450      1.0  0.59890  0.27205  0.39226  1.0000
  H   H451      1.0  0.36501  0.35964  0.10769  1.0000
  H   H452      1.0  0.34975  0.06169  0.39219  1.0000
  H   H453      1.0  0.49342  0.04978  0.35951  1.0000
  S   S75       1.0  0.63058  0.13566  0.99755  1.0000
  H   H454      1.0  0.45513  0.03754  0.10140  1.0000
  H   H455      1.0  0.49915  0.02465  0.14001  1.0000
  H   H456      1.0  0.44684  0.02870  0.14480  1.0000
  H   H457      1.0  0.65318  0.99280  0.39371  1.0000
  H   H458      1.0  0.34320  0.27221  0.43950  1.0000
  H   H459      1.0  0.49787  0.47400  0.05469  1.0000
  H   H460      1.0  0.41321  0.13945  0.23884  1.0000
  C   C269      1.0  0.34543  0.35351  0.12374  1.0000
  H   H461      1.0  0.61738  0.36567  0.38857  1.0000
  H   H462      1.0  0.64379  0.26727  0.02243  1.0000
  C   C270      1.0  0.46257  0.26055  0.99362  1.0000
  H   H463      1.0  0.51215  0.04278  0.08603  1.0000
  N   N20       1.0  0.51393  0.47743  0.10740  1.0000
  H   H464      1.0  0.35833  0.12925  0.26909  1.0000
  H   H465      1.0  0.33352  0.37347  0.06127  1.0000
  C   C271      1.0  0.33846  0.41265  0.15609  1.0000
  H   H466      1.0  0.59923  0.00117  0.37970  1.0000
  C   C272      1.0  0.54341  0.47651  0.12638  1.0000
  C   C273      1.0  0.55449  0.00676  0.12458  1.0000
  H   H467      1.0  0.57531  0.30754  0.47556  1.0000
  H   H468      1.0  0.55926  0.02575  0.10746  1.0000
  H   H469      1.0  0.54096  0.46491  0.15147  1.0000
  H   H470      1.0  0.33473  0.19900  0.45571  1.0000
  S   S76       1.0  0.53114  0.00016  0.22052  1.0000
  H   H471      1.0  0.61168  0.48168  0.47362  1.0000
  S   S77       1.0  0.51458  0.48608  0.21568  1.0000
  C   C274      1.0  0.48680  0.00670  0.12666  1.0000
  H   H472      1.0  0.57608  0.99570  0.13014  1.0000
  C   C275      1.0  0.51882  0.47863  0.06917  1.0000
  H   H473      1.0  0.64870  0.47790  0.38583  1.0000
  C   C276      1.0  0.34152  0.31964  0.12131  1.0000
  H   H474      1.0  0.66136  0.16335  0.08587  1.0000
  H   H475      1.0  0.50545  0.99500  0.35177  1.0000
  S   S78       1.0  0.32832  0.07806  0.47437  1.0000
  H   H476      1.0  0.53968  0.44413  0.55972  1.0000
  H   H477      1.0  0.65213  0.02365  0.54236  1.0000
  S   S79       1.0  0.36158  0.30971  0.94967  1.0000
  H   H478      1.0  0.45945  0.17634  0.76537  1.0000
  Fe  Fe41      1.0  0.37782  0.35689  0.94516  1.0000
  S   S80       1.0  0.37450  0.38471  0.89652  1.0000
  C   C277      1.0  0.47690  0.48967  0.61836  1.0000
  C   C278      1.0  0.46547  0.45760  0.62272  1.0000
  Fe  Fe42      1.0  0.44833  0.02665  0.72714  1.0000
  S   S81       1.0  0.48185  0.46450  0.71049  1.0000
  S   S82       1.0  0.40599  0.05021  0.70923  1.0000
  Fe  Fe43      1.0  0.48452  0.46787  0.76827  1.0000
  S   S83       1.0  0.48398  0.42885  0.80549  1.0000
  S   S84       1.0  0.46304  0.03174  0.78239  1.0000
  H   H479      1.0  0.46057  0.44929  0.90603  1.0000
  S   S85       1.0  0.37784  0.08034  0.55247  1.0000
  C   C279      1.0  0.39903  0.05951  0.66568  1.0000
  C   C280      1.0  0.37495  0.07823  0.65748  1.0000
  C   C281      1.0  0.36828  0.08535  0.62301  1.0000
  C   C282      1.0  0.38577  0.07384  0.59646  1.0000
  C   C283      1.0  0.41010  0.05554  0.60478  1.0000
  C   C284      1.0  0.41675  0.04843  0.63915  1.0000
  H   H480      1.0  0.36116  0.08698  0.67787  1.0000
  H   H481      1.0  0.42181  0.20402  0.92710  1.0000
  H   H482      1.0  0.42378  0.04653  0.58443  1.0000
  H   H483      1.0  0.43537  0.03405  0.64504  1.0000
  C   C285      1.0  0.40546  0.39750  0.87241  1.0000
  C   C286      1.0  0.40127  0.42028  0.84823  1.0000
  C   C287      1.0  0.42510  0.43038  0.82777  1.0000
  C   C288      1.0  0.45324  0.41730  0.83079  1.0000
  C   C289      1.0  0.45739  0.39449  0.85492  1.0000
  C   C290      1.0  0.43375  0.38485  0.87591  1.0000
  H   H484      1.0  0.37945  0.43012  0.84522  1.0000
  H   H485      1.0  0.42155  0.44787  0.80924  1.0000
  H   H486      1.0  0.47906  0.38421  0.85741  1.0000
  H   H487      1.0  0.43726  0.36719  0.89424  1.0000
  H   H488      1.0  0.59290  0.31952  0.89747  1.0000
  H   H489      1.0  0.52497  0.30169  0.97907  1.0000
  H   H490      1.0  0.45549  0.44770  0.59948  1.0000
  C   C291      1.0  0.52958  0.14163  0.71589  1.0000
  S   S86       1.0  0.60809  0.19162  0.95199  1.0000
  H   H491      1.0  0.64666  0.23185  0.90789  1.0000
  C   C292      1.0  0.63388  0.31432  0.92694  1.0000
  C   C293      1.0  0.60239  0.30374  0.91643  1.0000
  Fe  Fe44      1.0  0.59005  0.14665  0.96575  1.0000
  S   S87       1.0  0.56470  0.11110  0.93539  1.0000
  H   H492      1.0  0.47548  0.17495  0.68828  1.0000
  Fe  Fe45      1.0  0.50842  0.04084  0.76101  1.0000
  H   H493      1.0  0.52347  0.15598  0.95358  1.0000
  S   S88       1.0  0.53552  0.08115  0.77833  1.0000
  H   H494      1.0  0.48360  0.44295  0.63223  1.0000
  H   H495      1.0  0.46919  0.20606  0.73756  1.0000
  S   S89       1.0  0.49289  0.03901  0.70586  1.0000
  H   H496      1.0  0.49708  0.18025  0.75034  1.0000
  S   S90       1.0  0.62386  0.39084  0.59249  1.0000
  C   C294      1.0  0.57383  0.46712  0.64662  1.0000
  C   C295      1.0  0.59208  0.47301  0.61808  1.0000
  C   C296      1.0  0.60686  0.44988  0.60060  1.0000
  C   C297      1.0  0.60396  0.42057  0.61189  1.0000
  C   C298      1.0  0.58546  0.41468  0.64021  1.0000
  C   C299      1.0  0.57024  0.43775  0.65730  1.0000
  H   H497      1.0  0.50708  0.45108  0.53481  1.0000
  H   H498      1.0  0.62112  0.45476  0.57900  1.0000
  H   H499      1.0  0.58312  0.39211  0.64918  1.0000
  H   H500      1.0  0.55628  0.43285  0.67917  1.0000
  H   H501      1.0  0.52981  0.16570  0.71012  1.0000
  H   H502      1.0  0.47074  0.11310  0.63621  1.0000
  C   C300      1.0  0.34627  0.00527  0.53614  1.0000
  C   C301      1.0  0.54389  0.08910  0.82203  1.0000
  C   C302      1.0  0.56142  0.11406  0.83024  1.0000
  C   C303      1.0  0.56854  0.12098  0.86470  1.0000
  C   C304      1.0  0.55800  0.10303  0.89132  1.0000
  C   C305      1.0  0.54028  0.07826  0.88305  1.0000
  C   C306      1.0  0.53325  0.07131  0.84867  1.0000
  H   H503      1.0  0.56989  0.12789  0.80980  1.0000
  H   H504      1.0  0.58231  0.14002  0.87061  1.0000
  H   H505      1.0  0.53196  0.06424  0.90340  1.0000
  H   H506      1.0  0.51976  0.05204  0.84279  1.0000
  N   N21       1.0  0.49232  0.17178  0.91495  1.0000
  C   C307      1.0  0.52005  0.18581  0.90021  1.0000
  C   C308      1.0  0.48428  0.14558  0.89255  1.0000
  C   C309      1.0  0.49943  0.16147  0.95104  1.0000
  C   C310      1.0  0.46809  0.19495  0.91534  1.0000
  C   C311      1.0  0.53386  0.21143  0.92134  1.0000
  C   C312      1.0  0.47996  0.15179  0.85392  1.0000
  H   H507      1.0  0.49070  0.43041  0.92536  1.0000
  H   H508      1.0  0.49517  0.49229  0.63748  1.0000
  H   H509      1.0  0.53779  0.16876  0.89685  1.0000
  H   H510      1.0  0.51568  0.19522  0.87432  1.0000
  H   H511      1.0  0.46359  0.13457  0.90143  1.0000
  H   H512      1.0  0.50193  0.12833  0.89449  1.0000
  H   H513      1.0  0.53183  0.46277  0.83991  1.0000
  H   H514      1.0  0.45886  0.13422  0.96088  1.0000
  H   H515      1.0  0.47443  0.21394  0.93214  1.0000
  H   H516      1.0  0.46491  0.20461  0.88936  1.0000
  H   H517      1.0  0.55496  0.21850  0.90896  1.0000
  H   H518      1.0  0.51930  0.23127  0.92211  1.0000
  H   H519      1.0  0.53964  0.20466  0.94784  1.0000
  H   H520      1.0  0.47183  0.13117  0.84132  1.0000
  H   H521      1.0  0.46319  0.16931  0.84907  1.0000
  H   H522      1.0  0.50138  0.15728  0.84122  1.0000
  H   H523      1.0  0.42769  0.16691  0.91254  1.0000
  H   H524      1.0  0.50435  0.43703  0.57835  1.0000
  H   H525      1.0  0.43841  0.17834  0.95579  1.0000
  H   H526      1.0  0.62196  0.25669  0.95190  1.0000
  H   H527      1.0  0.66137  0.03491  0.58478  1.0000
  H   H528      1.0  0.34951  0.09948  0.61699  1.0000
  N   N22       1.0  0.47277  0.13123  0.71109  1.0000
  C   C313      1.0  0.45117  0.11476  0.68807  1.0000
  C   C314      1.0  0.47070  0.11767  0.74638  1.0000
  C   C315      1.0  0.50371  0.12595  0.69720  1.0000
  C   C316      1.0  0.46500  0.16385  0.71075  1.0000
  C   C317      1.0  0.45153  0.12332  0.64968  1.0000
  C   C318      1.0  0.43923  0.11697  0.76228  1.0000
  C   C319      1.0  0.51687  0.48457  0.57465  1.0000
  H   H529      1.0  0.43120  0.11435  0.63703  1.0000
  H   H530      1.0  0.45511  0.09041  0.68947  1.0000
  H   H531      1.0  0.42777  0.11809  0.69670  1.0000
  H   H532      1.0  0.48565  0.12890  0.76504  1.0000
  H   H533      1.0  0.47866  0.09428  0.74580  1.0000
  H   H534      1.0  0.50883  0.10177  0.69696  1.0000
  H   H535      1.0  0.55097  0.13251  0.70613  1.0000
  H   H536      1.0  0.44057  0.16712  0.70712  1.0000
  H   H537      1.0  0.48710  0.47984  0.84954  1.0000
  C   C320      1.0  0.54566  0.46511  0.86332  1.0000
  C   C321      1.0  0.47340  0.18223  0.74296  1.0000
  H   H538      1.0  0.42669  0.13781  0.75817  1.0000
  H   H539      1.0  0.42605  0.09827  0.75160  1.0000
  H   H540      1.0  0.44107  0.11299  0.79033  1.0000
  H   H541      1.0  0.52969  0.13787  0.74394  1.0000
  H   H542      1.0  0.56918  0.46495  0.85446  1.0000
  H   H543      1.0  0.49392  0.44125  0.88183  1.0000
  C   C322      1.0  0.49835  0.47799  0.92062  1.0000
  Fe  Fe46      1.0  0.64778  0.39114  0.54080  1.0000
  C   C323      1.0  0.48532  0.44845  0.90698  1.0000
  Fe  Fe47      1.0  0.39881  0.30533  0.98844  1.0000
  C   C324      1.0  0.51636  0.45238  0.56123  1.0000
  H   H544      1.0  0.50553  0.13335  0.67009  1.0000
  C   C325      1.0  0.43742  0.18490  0.92843  1.0000
  H   H545      1.0  0.60302  0.28168  0.90377  1.0000
  C   C326      1.0  0.63367  0.30520  0.98872  1.0000
  C   C327      1.0  0.48018  0.28506  0.98513  1.0000
  Fe  Fe48      1.0  0.34186  0.10428  0.52136  1.0000
  H   H546      1.0  0.58684  0.30294  0.93849  1.0000
  H   H547      1.0  0.45144  0.14762  0.64562  1.0000
  H   H548      1.0  0.54311  0.44557  0.88027  1.0000
  C   C328      1.0  0.64556  0.26408  0.94984  1.0000
  S   S91       1.0  0.62953  0.35943  0.50146  1.0000
  H   H549      1.0  0.44723  0.45749  0.64200  1.0000
  H   H550      1.0  0.34171  0.02330  0.66234  1.0000
  H   H551      1.0  0.66013  0.99359  0.67051  1.0000
  H   H552      1.0  0.51702  0.47249  0.93838  1.0000
  H   H553      1.0  0.49544  0.17948  0.96996  1.0000
  S   S92       1.0  0.41719  0.35144  0.98039  1.0000
  H   H554      1.0  0.34930  0.02438  0.60071  1.0000
  S   S93       1.0  0.34744  0.37215  0.98727  1.0000
  H   H555      1.0  0.49221  0.11320  0.95167  1.0000
  H   H556      1.0  0.34279  0.02850  0.52786  1.0000
  H   H557      1.0  0.65805  0.26748  0.89455  1.0000
  H   H558      1.0  0.53172  0.48464  0.59753  1.0000
  S   S94       1.0  0.64963  0.42965  0.50437  1.0000
  H   H559      1.0  0.46972  0.30554  0.97721  1.0000
  H   H560      1.0  0.46174  0.46827  0.55105  1.0000
  H   H561      1.0  0.60989  0.29834  0.98838  1.0000
  C   C329      1.0  0.65923  0.25181  0.91628  1.0000
  H   H562      1.0  0.63249  0.00801  0.57751  1.0000
  H   H563      1.0  0.36621  0.00389  0.55294  1.0000
  C   C330      1.0  0.48330  0.13346  0.96430  1.0000
  H   H564      1.0  0.65681  0.25166  0.97079  1.0000
  S   S95       1.0  0.52280  0.99298  0.76059  1.0000
  H   H565      1.0  0.63172  0.33812  0.93422  1.0000
  C   C331      1.0  0.33025  0.01100  0.61019  1.0000
  H   H566      1.0  0.33757  0.34001  0.82283  1.0000
  N   N23       1.0  0.64867  0.29700  0.95540  1.0000
  C   C332      1.0  0.65491  0.01554  0.56911  1.0000
  C   C333      1.0  0.51145  0.28282  0.98615  1.0000
  Fe  Fe49      1.0  0.64650  0.18264  0.98804  1.0000
  H   H567      1.0  0.64779  0.31464  0.90333  1.0000
  H   H568      1.0  0.48049  0.48776  0.93694  1.0000
  S   S96       1.0  0.42342  0.26152  0.99033  1.0000
  C   C334      1.0  0.46470  0.49236  0.55542  1.0000
  H   H569      1.0  0.32832  0.37258  0.84597  1.0000
  H   H570      1.0  0.48788  0.13105  0.99221  1.0000
  H   H571      1.0  0.63310  0.32969  0.99232  1.0000
  Fe  Fe50      1.0  0.39673  0.80520  0.00448  1.0000
  S   S97       1.0  0.48763  0.97106  0.27950  1.0000
  H   H572      1.0  0.44889  0.96156  0.34236  1.0000
  Fe  Fe51      1.0  0.48922  0.97253  0.22155  1.0000
  S   S98       1.0  0.48723  0.93223  0.18601  1.0000
  S   S99       1.0  0.44592  0.50865  0.23211  1.0000
  Fe  Fe52      1.0  0.38367  0.86701  0.03226  1.0000
  S   S100      1.0  0.39046  0.90633  0.06887  1.0000
  S   S101      1.0  0.36719  0.82167  0.04701  1.0000
  H   H573      1.0  0.63177  0.55292  0.41367  1.0000
  H   H574      1.0  0.35228  0.50715  0.46982  1.0000
  H   H575      1.0  0.52595  0.51003  0.02760  1.0000
  S   S102      1.0  0.62981  0.62984  0.00024  1.0000
  H   H576      1.0  0.64152  0.94542  0.34913  1.0000
  H   H577      1.0  0.32974  0.54537  0.43040  1.0000
  C   C335      1.0  0.40953  0.54599  0.35479  1.0000
  C   C336      1.0  0.39338  0.56540  0.33383  1.0000
  C   C337      1.0  0.37238  0.58504  0.34846  1.0000
  C   C338      1.0  0.36756  0.58580  0.38418  1.0000
  C   C339      1.0  0.38432  0.56697  0.40519  1.0000
  C   C340      1.0  0.40485  0.54698  0.39051  1.0000
  H   H578      1.0  0.39660  0.56481  0.30632  1.0000
  H   H579      1.0  0.35956  0.59948  0.33193  1.0000
  H   H580      1.0  0.38113  0.56744  0.43270  1.0000
  H   H581      1.0  0.41726  0.53211  0.40697  1.0000
  C   C341      1.0  0.45933  0.92458  0.15471  1.0000
  C   C342      1.0  0.46218  0.89930  0.13369  1.0000
  C   C343      1.0  0.44122  0.89314  0.10751  1.0000
  C   C344      1.0  0.41720  0.91232  0.10198  1.0000
  C   C345      1.0  0.41441  0.93763  0.12298  1.0000
  C   C346      1.0  0.43521  0.94366  0.14930  1.0000
  H   H582      1.0  0.48079  0.88443  0.13760  1.0000
  H   H583      1.0  0.44372  0.87364  0.09153  1.0000
  H   H584      1.0  0.39585  0.95254  0.11897  1.0000
  H   H585      1.0  0.43258  0.96307  0.16535  1.0000
  Fe  Fe53      1.0  0.49069  0.52968  0.22021  1.0000
  H   H586      1.0  0.63882  0.76442  0.04154  1.0000
  S   S103      1.0  0.49003  0.56237  0.17496  1.0000
  H   H587      1.0  0.54816  0.70095  0.06367  1.0000
  C   C347      1.0  0.34474  0.50131  0.44345  1.0000
  S   S104      1.0  0.50302  0.53562  0.27621  1.0000
  Fe  Fe54      1.0  0.59708  0.64725  0.03924  1.0000
  S   S105      1.0  0.59455  0.62777  0.09344  1.0000
  S   S106      1.0  0.61333  0.69434  0.03235  1.0000
  Fe  Fe55      1.0  0.63314  0.89406  0.46469  1.0000
  H   H588      1.0  0.39088  0.69773  0.10083  1.0000
  S   S107      1.0  0.59652  0.89834  0.42380  1.0000
  C   C348      1.0  0.53969  0.71982  0.07933  1.0000
  H   H589      1.0  0.53946  0.96071  0.46102  1.0000
  H   H590      1.0  0.50002  0.95540  0.46416  1.0000
  C   C349      1.0  0.57302  0.97262  0.34702  1.0000
  C   C350      1.0  0.56182  0.94389  0.34275  1.0000
  C   C351      1.0  0.56916  0.92153  0.36659  1.0000
  C   C352      1.0  0.58758  0.92760  0.39505  1.0000
  C   C353      1.0  0.59786  0.95659  0.39999  1.0000
  H   H591      1.0  0.46562  0.80176  0.99961  1.0000
  H   H592      1.0  0.54788  0.93877  0.32081  1.0000
  H   H593      1.0  0.56076  0.89926  0.36274  1.0000
  H   H594      1.0  0.61087  0.96187  0.42258  1.0000
  H   H595      1.0  0.49588  0.65095  0.08492  1.0000
  C   C354      1.0  0.56593  0.60726  0.11425  1.0000
  C   C355      1.0  0.57126  0.59605  0.14740  1.0000
  C   C356      1.0  0.54859  0.58153  0.16598  1.0000
  C   C357      1.0  0.52009  0.57851  0.15182  1.0000
  C   C358      1.0  0.51483  0.58937  0.11846  1.0000
  C   C359      1.0  0.53771  0.60327  0.09956  1.0000
  H   H596      1.0  0.59300  0.59900  0.15902  1.0000
  H   H597      1.0  0.55299  0.57339  0.19162  1.0000
  H   H598      1.0  0.49288  0.58710  0.10723  1.0000
  H   H599      1.0  0.53339  0.61151  0.07398  1.0000
  H   H600      1.0  0.53108  0.64877  0.16362  1.0000
  C   C360      1.0  0.49816  0.72192  0.99682  1.0000
  H   H601      1.0  0.34229  0.71145  0.44061  1.0000
  C   C361      1.0  0.65237  0.54858  0.36376  1.0000
  C   C362      1.0  0.36904  0.70820  0.09500  1.0000
  C   C363      1.0  0.51893  0.95595  0.44593  1.0000
  H   H602      1.0  0.56115  0.75903  0.10310  1.0000
  H   H603      1.0  0.45164  0.92326  0.35222  1.0000
  C   C364      1.0  0.51515  0.98002  0.41813  1.0000
  H   H604      1.0  0.46991  0.66823  0.05660  1.0000
  C   C365      1.0  0.49837  0.76129  0.11933  1.0000
  C   C366      1.0  0.48028  0.95027  0.38455  1.0000
  H   H605      1.0  0.49920  0.94389  0.36753  1.0000
  C   C367      1.0  0.59102  0.97884  0.37580  1.0000
  C   C368      1.0  0.36144  0.70246  0.05700  1.0000
  Fe  Fe56      1.0  0.33214  0.82583  0.00586  1.0000
  S   S108      1.0  0.43402  0.51853  0.33797  1.0000
  H   H606      1.0  0.52534  0.52773  0.06770  1.0000
  H   H607      1.0  0.45484  0.96916  0.44025  1.0000
  H   H608      1.0  0.50711  0.69970  0.99552  1.0000
  H   H609      1.0  0.48202  0.95350  0.09808  1.0000
  H   H610      1.0  0.48336  0.93862  0.03879  1.0000
  H   H611      1.0  0.58039  0.74359  0.06755  1.0000
  H   H612      1.0  0.37998  0.71296  0.04256  1.0000
  H   H613      1.0  0.47939  0.93318  0.40504  1.0000
  C   C369      1.0  0.55830  0.50643  0.13534  1.0000
  H   H614      1.0  0.65777  0.53148  0.34423  1.0000
  H   H615      1.0  0.34159  0.49435  0.37698  1.0000
  C   C370      1.0  0.32908  0.70564  0.00690  1.0000
  H   H616      1.0  0.33844  0.53304  0.36974  1.0000
  H   H617      1.0  0.58216  0.72478  0.10775  1.0000
  Fe  Fe57      1.0  0.46007  0.51142  0.28785  1.0000
  H   H618      1.0  0.50681  0.52429  0.11825  1.0000
  C   C371      1.0  0.45579  0.75522  0.00416  1.0000
  H   H619      1.0  0.45317  0.70755  0.00697  1.0000
  H   H620      1.0  0.53360  0.97690  0.39959  1.0000
  C   C372      1.0  0.32974  0.74697  0.04824  1.0000
  H   H621      1.0  0.36455  0.50346  0.42663  1.0000
  H   H622      1.0  0.35265  0.69829  0.11282  1.0000
  H   H623      1.0  0.49629  0.65852  0.14483  1.0000
  H   H624      1.0  0.33151  0.50704  0.31704  1.0000
  S   S109      1.0  0.34734  0.64899  0.49202  1.0000
  H   H625      1.0  0.47370  0.75929  0.12059  1.0000
  H   H626      1.0  0.63094  0.79972  0.02483  1.0000
  H   H627      1.0  0.50886  0.67300  0.04933  1.0000
  S   S110      1.0  0.55905  0.65131  0.00170  1.0000
  S   S111      1.0  0.34595  0.87292  0.99441  1.0000
  H   H628      1.0  0.63458  0.56265  0.35240  1.0000
  H   H629      1.0  0.64077  0.98437  0.30821  1.0000
  H   H630      1.0  0.52234  0.93369  0.43430  1.0000
  H   H631      1.0  0.51380  0.68240  0.17662  1.0000
  C   C373      1.0  0.49176  0.67121  0.06961  1.0000
  H   H632      1.0  0.49015  0.50017  0.14792  1.0000
  H   H633      1.0  0.50449  0.76643  0.09250  1.0000
  C   C374      1.0  0.64786  0.50669  0.45035  1.0000
  H   H634      1.0  0.60368  0.77073  0.02090  1.0000
  H   H635      1.0  0.46324  0.97945  0.07144  1.0000
  H   H636      1.0  0.50551  0.78087  0.13466  1.0000
  H   H637      1.0  0.52724  0.73371  0.06069  1.0000
  C   C375      1.0  0.46766  0.72642  0.00315  1.0000
  N   N24       1.0  0.33167  0.71367  0.04450  1.0000
  N   N25       1.0  0.51977  0.70894  0.10783  1.0000
  C   C376      1.0  0.53545  0.68370  0.12566  1.0000
  C   C377      1.0  0.49049  0.69910  0.09254  1.0000
  C   C378      1.0  0.51355  0.73307  0.13363  1.0000
  C   C379      1.0  0.51770  0.66781  0.15413  1.0000
  C   C380      1.0  0.56730  0.73775  0.09069  1.0000
  H   H638      1.0  0.54255  0.66659  0.10678  1.0000
  H   H639      1.0  0.55653  0.69142  0.13782  1.0000
  H   H640      1.0  0.47367  0.69492  0.11294  1.0000
  H   H641      1.0  0.48067  0.71714  0.07659  1.0000
  H   H642      1.0  0.49833  0.72484  0.15399  1.0000
  H   H643      1.0  0.53396  0.73947  0.14822  1.0000
  H   H644      1.0  0.43149  0.94659  0.38078  1.0000
  H   H645      1.0  0.37186  0.73226  0.10016  1.0000
  H   H646      1.0  0.65663  0.89046  0.33787  1.0000
  H   H647      1.0  0.62045  0.52164  0.38948  1.0000
  H   H648      1.0  0.56050  0.52148  0.11314  1.0000
  N   N26       1.0  0.48555  0.98073  0.39955  1.0000
  H   H649      1.0  0.55764  0.50612  0.05589  1.0000
  H   H650      1.0  0.52064  0.94677  0.05075  1.0000
  C   C381      1.0  0.62778  0.77588  0.01970  1.0000
  H   H651      1.0  0.33529  0.69188  0.40144  1.0000
  C   C382      1.0  0.45132  0.94577  0.36389  1.0000
  H   H652      1.0  0.33074  0.78031  0.08881  1.0000
  S   S112      1.0  0.41766  0.76006  0.01319  1.0000
  C   C383      1.0  0.49504  0.50284  0.12007  1.0000
  H   H653      1.0  0.63990  0.52659  0.46453  1.0000
  H   H654      1.0  0.45384  0.52714  0.11303  1.0000
  S   S113      1.0  0.33883  0.60880  0.40101  1.0000
  C   C384      1.0  0.64048  0.53466  0.39722  1.0000
  H   H655      1.0  0.60235  0.49515  0.43202  1.0000
  H   H656      1.0  0.35173  0.75736  0.04266  1.0000
  C   C385      1.0  0.53292  0.50723  0.05478  1.0000
  C   C386      1.0  0.48573  0.97157  0.07916  1.0000
  H   H657      1.0  0.36341  0.67814  0.05230  1.0000
  C   C387      1.0  0.53296  0.98394  0.10827  1.0000
  C   C388      1.0  0.47456  0.77950  0.99880  1.0000
  H   H658      1.0  0.65329  0.89452  0.38367  1.0000
  C   C389      1.0  0.49851  0.95698  0.04661  1.0000
  H   H659      1.0  0.54562  0.97243  0.08793  1.0000
  H   H660      1.0  0.54597  0.51790  0.15617  1.0000
  H   H661      1.0  0.32913  0.68109  0.00336  1.0000
  H   H662      1.0  0.52889  0.96629  0.12780  1.0000
  H   H663      1.0  0.46808  0.51239  0.07381  1.0000
  C   C390      1.0  0.46152  0.98892  0.42498  1.0000
  H   H664      1.0  0.65721  0.93857  0.40624  1.0000
  H   H665      1.0  0.58110  0.50229  0.14542  1.0000
  C   C391      1.0  0.46504  0.50753  0.10146  1.0000
  H   H666      1.0  0.49900  0.97264  0.02473  1.0000
  H   H667      1.0  0.48464  0.98849  0.14581  1.0000
  C   C392      1.0  0.50509  0.77501  0.99282  1.0000
  H   H668      1.0  0.41312  0.64814  0.72800  1.0000
  H   H669      1.0  0.53894  0.53490  0.60157  1.0000
  S   S114      1.0  0.36088  0.80741  0.96401  1.0000
  C   C393      1.0  0.59316  0.81214  0.95631  1.0000
  Fe  Fe58      1.0  0.37757  0.85410  0.95520  1.0000
  S   S115      1.0  0.37624  0.87306  0.90062  1.0000
  H   H670      1.0  0.37235  0.61958  0.67394  1.0000
  S   S116      1.0  0.55610  0.49728  0.66783  1.0000
  S   S117      1.0  0.62710  0.86212  0.50891  1.0000
  S   S118      1.0  0.45736  0.97750  0.72615  1.0000
  S   S119      1.0  0.41131  0.51069  0.68156  1.0000
  H   H671      1.0  0.54792  0.51250  0.86599  1.0000
  S   S120      1.0  0.47492  0.95254  0.82609  1.0000
  H   H672      1.0  0.39980  0.54069  0.75021  1.0000
  H   H673      1.0  0.41223  0.61543  0.67162  1.0000
  S   S121      1.0  0.38525  0.60914  0.56805  1.0000
  C   C394      1.0  0.40486  0.53750  0.64911  1.0000
  C   C395      1.0  0.37696  0.53830  0.63262  1.0000
  C   C396      1.0  0.37064  0.55981  0.60740  1.0000
  C   C397      1.0  0.39224  0.58075  0.59843  1.0000
  C   C398      1.0  0.42028  0.57968  0.61461  1.0000
  C   C399      1.0  0.42656  0.55825  0.63987  1.0000
  Fe  Fe59      1.0  0.34394  0.61478  0.53411  1.0000
  H   H674      1.0  0.34898  0.56038  0.59514  1.0000
  H   H675      1.0  0.43711  0.59581  0.60779  1.0000
  H   H676      1.0  0.44816  0.55790  0.65223  1.0000
  C   C400      1.0  0.40344  0.89628  0.88103  1.0000
  C   C401      1.0  0.39687  0.90983  0.84933  1.0000
  C   C402      1.0  0.41808  0.92781  0.83251  1.0000
  C   C403      1.0  0.44631  0.93211  0.84706  1.0000
  C   C404      1.0  0.45287  0.91848  0.87867  1.0000
  C   C405      1.0  0.43155  0.90087  0.89570  1.0000
  H   H677      1.0  0.37524  0.90637  0.83769  1.0000
  H   H678      1.0  0.41274  0.93798  0.80814  1.0000
  H   H679      1.0  0.47467  0.92152  0.89009  1.0000
  H   H680      1.0  0.43700  0.89054  0.91995  1.0000
  H   H681      1.0  0.51137  0.53910  0.63515  1.0000
  H   H682      1.0  0.39566  0.65155  0.67102  1.0000
  C   C406      1.0  0.39590  0.63126  0.72195  1.0000
  H   H683      1.0  0.52501  0.55805  0.95217  1.0000
  S   S122      1.0  0.60800  0.68229  0.94918  1.0000
  H   H684      1.0  0.37419  0.61432  0.78390  1.0000
  H   H685      1.0  0.65025  0.72648  0.93057  1.0000
  H   H686      1.0  0.60344  0.76963  0.93488  1.0000
  Fe  Fe60      1.0  0.59245  0.63627  0.96195  1.0000
  S   S123      1.0  0.58643  0.59855  0.92304  1.0000
  Fe  Fe61      1.0  0.64887  0.89778  0.54111  1.0000
  Fe  Fe62      1.0  0.49414  0.53477  0.76773  1.0000
  N   N27       1.0  0.40167  0.60241  0.74040  1.0000
  S   S124      1.0  0.49325  0.57601  0.80182  1.0000
  C   C407      1.0  0.64136  0.76444  0.98573  1.0000
  H   H687      1.0  0.57140  0.81065  0.94270  1.0000
  S   S125      1.0  0.49222  0.53704  0.71002  1.0000
  H   H688      1.0  0.51201  0.54819  0.89077  1.0000
  S   S126      1.0  0.63869  0.91263  0.59629  1.0000
  C   C408      1.0  0.55241  0.95315  0.64105  1.0000
  C   C409      1.0  0.55345  0.94392  0.60650  1.0000
  C   C410      1.0  0.57963  0.93165  0.59233  1.0000
  C   C411      1.0  0.60503  0.92798  0.61275  1.0000
  C   C412      1.0  0.60389  0.93691  0.64743  1.0000
  C   C413      1.0  0.57792  0.94979  0.66140  1.0000
  H   H689      1.0  0.53386  0.94635  0.59051  1.0000
  H   H690      1.0  0.58005  0.92482  0.56568  1.0000
  H   H691      1.0  0.62329  0.93396  0.66358  1.0000
  H   H692      1.0  0.57763  0.95702  0.68786  1.0000
  H   H693      1.0  0.36699  0.55292  0.77345  1.0000
  C   C414      1.0  0.45774  0.61197  0.72649  1.0000
  H   H694      1.0  0.35575  0.74282  0.98605  1.0000
  C   C415      1.0  0.52066  0.58405  0.83346  1.0000
  C   C416      1.0  0.54695  0.56757  0.83590  1.0000
  C   C417      1.0  0.56720  0.57300  0.86293  1.0000
  C   C418      1.0  0.56167  0.59517  0.88758  1.0000
  C   C419      1.0  0.53578  0.61228  0.88456  1.0000
  C   C420      1.0  0.51539  0.60671  0.85761  1.0000
  H   H695      1.0  0.55152  0.55038  0.81723  1.0000
  H   H696      1.0  0.58724  0.55977  0.86494  1.0000
  H   H697      1.0  0.53120  0.62936  0.90337  1.0000
  H   H698      1.0  0.49520  0.61971  0.85585  1.0000
  C   C421      1.0  0.61544  0.79108  0.93865  1.0000
  C   C422      1.0  0.50782  0.53082  0.91035  1.0000
  H   H699      1.0  0.45992  0.62906  0.74668  1.0000
  H   H700      1.0  0.44149  0.62030  0.79812  1.0000
  H   H701      1.0  0.36341  0.53473  0.73293  1.0000
  H   H702      1.0  0.41803  0.49698  0.54093  1.0000
  H   H703      1.0  0.63565  0.74858  0.89550  1.0000
  S   S127      1.0  0.45305  0.50632  0.77111  1.0000
  C   C423      1.0  0.53005  0.53628  0.94002  1.0000
  H   H704      1.0  0.51792  0.56828  0.60546  1.0000
  Fe  Fe63      1.0  0.50329  0.99024  0.70730  1.0000
  H   H705      1.0  0.36001  0.52233  0.63956  1.0000
  N   N28       1.0  0.50445  0.89038  0.74578  1.0000
  C   C424      1.0  0.52451  0.90754  0.76993  1.0000
  C   C425      1.0  0.47387  0.88970  0.76185  1.0000
  C   C426      1.0  0.50355  0.90683  0.71199  1.0000
  C   C427      1.0  0.51759  0.85988  0.74121  1.0000
  C   C428      1.0  0.55620  0.91440  0.75673  1.0000
  C   C429      1.0  0.47142  0.87280  0.79616  1.0000
  C   C430      1.0  0.47652  0.90130  0.68825  1.0000
  C   C431      1.0  0.49894  0.83698  0.72098  1.0000
  H   H706      1.0  0.51425  0.92924  0.77661  1.0000
  H   H707      1.0  0.52749  0.89571  0.79473  1.0000
  H   H708      1.0  0.45693  0.87973  0.74462  1.0000
  H   H709      1.0  0.46571  0.91275  0.76632  1.0000
  H   H710      1.0  0.50377  0.93123  0.71657  1.0000
  H   H711      1.0  0.52390  0.90222  0.69653  1.0000
  H   H712      1.0  0.53919  0.86127  0.72736  1.0000
  H   H713      1.0  0.52387  0.84985  0.76633  1.0000
  H   H714      1.0  0.55583  0.92825  0.73327  1.0000
  H   H715      1.0  0.56824  0.92746  0.77664  1.0000
  H   H716      1.0  0.56939  0.89402  0.75214  1.0000
  H   H717      1.0  0.44774  0.87278  0.80447  1.0000
  H   H718      1.0  0.47832  0.84931  0.79370  1.0000
  H   H719      1.0  0.48412  0.88378  0.81707  1.0000
  H   H720      1.0  0.47256  0.87761  0.68275  1.0000
  H   H721      1.0  0.48065  0.91233  0.66321  1.0000
  H   H722      1.0  0.45600  0.91153  0.69887  1.0000
  H   H723      1.0  0.50401  0.83812  0.69309  1.0000
  H   H724      1.0  0.47467  0.83903  0.72485  1.0000
  H   H725      1.0  0.50452  0.81435  0.73024  1.0000
  C   C432      1.0  0.65525  0.74439  0.91218  1.0000
  C   C433      1.0  0.51657  0.54378  0.60791  1.0000
  H   H726      1.0  0.48538  0.53598  0.92090  1.0000
  C   C434      1.0  0.45579  0.51083  0.87004  1.0000
  N   N29       1.0  0.64492  0.78609  0.95652  1.0000
  H   H727      1.0  0.64782  0.98040  0.62962  1.0000
  H   H728      1.0  0.45551  0.62295  0.70120  1.0000
  H   H729      1.0  0.37452  0.64126  0.73080  1.0000
  C   C435      1.0  0.35318  0.71853  0.98294  1.0000
  H   H730      1.0  0.41875  0.65146  0.78377  1.0000
  S   S128      1.0  0.65224  0.93059  0.49763  1.0000
  S   S129      1.0  0.51840  0.96776  0.65741  1.0000
  H   H731      1.0  0.55329  0.53804  0.93052  1.0000
  Fe  Fe64      1.0  0.47603  0.98353  0.77954  1.0000
  C   C436      1.0  0.41858  0.62939  0.79613  1.0000
  H   H732      1.0  0.52857  0.51908  0.96019  1.0000
  H   H733      1.0  0.49743  0.51697  0.84353  1.0000
  H   H734      1.0  0.40080  0.58604  0.79280  1.0000
  H   H735      1.0  0.47924  0.59981  0.72606  1.0000
  Fe  Fe65      1.0  0.45375  0.50582  0.71326  1.0000
  H   H736      1.0  0.38128  0.57483  0.70100  1.0000
  Fe  Fe66      1.0  0.52079  0.49585  0.70999  1.0000
  H   H737      1.0  0.59503  0.49564  0.60962  1.0000
  C   C437      1.0  0.53992  0.49427  0.88280  1.0000
  C   C438      1.0  0.65829  0.81534  0.96751  1.0000
  C   C439      1.0  0.39403  0.62904  0.68242  1.0000
  H   H738      1.0  0.43163  0.57489  0.71011  1.0000
  H   H739      1.0  0.61906  0.80024  0.91242  1.0000
  H   H740      1.0  0.47135  0.54387  0.59106  1.0000
  H   H741      1.0  0.35549  0.59045  0.73044  1.0000
  Fe  Fe67      1.0  0.57775  0.69695  0.99174  1.0000
  H   H742      1.0  0.41097  0.63288  0.82297  1.0000
  H   H743      1.0  0.49754  0.54025  0.55726  1.0000
  H   H744      1.0  0.43952  0.57495  0.75434  1.0000
  H   H745      1.0  0.45422  0.53523  0.87357  1.0000
  S   S130      1.0  0.55561  0.74175  0.98620  1.0000
  N   N30       1.0  0.50835  0.50031  0.89416  1.0000
  C   C440      1.0  0.43319  0.50514  0.56149  1.0000
  C   C441      1.0  0.43217  0.58968  0.73301  1.0000
  C   C442      1.0  0.39748  0.60712  0.77848  1.0000
  C   C443      1.0  0.37736  0.55066  0.74775  1.0000
  C   C444      1.0  0.37820  0.58055  0.72859  1.0000
  H   H746      1.0  0.51955  0.79392  0.98905  1.0000
  C   C445      1.0  0.49204  0.53207  0.58351  1.0000
  C   C446      1.0  0.48825  0.50138  0.86304  1.0000
  H   H747      1.0  0.62745  0.74520  0.97763  1.0000
  H   H748      1.0  0.60047  0.83560  0.95462  1.0000
  H   H749      1.0  0.58879  0.80614  0.98328  1.0000
  H   H750      1.0  0.64306  0.82833  0.98403  1.0000
  S   S131      1.0  0.52603  0.49639  0.76782  1.0000
  H   H751      1.0  0.34653  0.71450  0.95583  1.0000
  H   H752      1.0  0.43278  0.52970  0.55998  1.0000
  H   H753      1.0  0.44177  0.50507  0.84744  1.0000
  H   H754      1.0  0.37507  0.70752  0.98655  1.0000
  H   H755      1.0  0.64444  0.74245  0.56627  1.0000
  H   H756      1.0  0.65446  0.69085  0.57945  1.0000
  H   H757      1.0  0.45937  0.50486  0.62819  1.0000
  H   H758      1.0  0.33943  0.98848  0.61550  1.0000
  H   H759      1.0  0.35141  0.99224  0.51265  1.0000
  H   H760      1.0  0.44612  0.49939  0.89254  1.0000
  Fe  Fe68      1.0  0.64310  0.67748  0.99040  1.0000
  C   C447      1.0  0.51698  0.74626  0.99194  1.0000
  S   S132      1.0  0.41607  0.85031  0.99231  1.0000
  H   H761      1.0  0.47272  0.50092  0.53024  1.0000
  H   H762      1.0  0.52887  0.49761  0.55469  1.0000
  N   N31       1.0  0.48733  0.49887  0.58317  1.0000
  H   H763      1.0  0.42358  0.49785  0.58629  1.0000
  H   H764      1.0  0.55539  0.49372  0.90512  1.0000
  Fe  Fe69      1.0  0.94963  0.01897  0.26302  1.0000
  H   H765      1.0  0.80152  0.16285  0.39086  1.0000
  S   S133      1.0  0.90624  0.02532  0.29280  1.0000
  C   C448      1.0  0.75866  0.16023  0.08666  1.0000
  S   S134      1.0  0.96344  0.42785  0.19534  1.0000
  H   H766      1.0  0.91779  0.01958  0.08689  1.0000
  C   C449      1.0  0.79242  0.20911  0.40771  1.0000
  Fe  Fe70      1.0  0.87732  0.36304  0.03009  1.0000
  S   S135      1.0  0.88478  0.40595  0.06053  1.0000
  H   H767      1.0  0.66359  0.30713  0.35812  1.0000
  S   S136      1.0  0.86326  0.31715  0.04627  1.0000
  H   H768      1.0  0.85234  0.46509  0.18221  1.0000
  H   H769      1.0  0.74177  0.11856  0.02972  1.0000
  H   H770      1.0  0.75196  0.18378  0.08773  1.0000
  S   S137      1.0  0.67924  0.38282  0.44811  1.0000
  Fe  Fe71      1.0  0.84624  0.11771  0.45519  1.0000
  H   H771      1.0  0.96565  0.30615  0.00411  1.0000
  S   S138      1.0  0.87705  0.12163  0.40868  1.0000
  C   C450      1.0  0.71993  0.01796  0.48773  1.0000
  H   H772      1.0  0.83569  0.47717  0.23661  1.0000
  H   H773      1.0  0.92953  0.41707  0.25813  1.0000
  H   H774      1.0  0.66266  0.11010  0.12737  1.0000
  S   S139      1.0  0.79806  0.13188  0.45698  1.0000
  H   H775      1.0  0.70009  0.03128  0.49106  1.0000
  S   S140      1.0  0.98365  0.47292  0.27657  1.0000
  C   C451      1.0  0.86205  0.44284  0.18673  1.0000
  S   S141      1.0  0.95226  0.01173  0.20583  1.0000
  H   H776      1.0  0.95825  0.01003  0.33788  1.0000
  N   N32       1.0  0.87410  0.45062  0.25109  1.0000
  C   C452      1.0  0.95530  0.99803  0.11454  1.0000
  C   C453      1.0  0.70689  0.15158  0.04264  1.0000
  H   H777      1.0  0.95784  0.48342  0.37661  1.0000
  H   H778      1.0  0.88597  0.22036  0.41061  1.0000
  C   C454      1.0  0.92193  0.00470  0.10884  1.0000
  H   H779      1.0  0.69167  0.23977  0.02844  1.0000
  C   C455      1.0  0.96140  0.02904  0.04232  1.0000
  C   C456      1.0  0.91838  0.42512  0.28173  1.0000
  H   H780      1.0  0.95329  0.19324  0.09643  1.0000
  H   H781      1.0  0.72583  0.28110  0.04467  1.0000
  H   H782      1.0  0.97465  0.04244  0.40501  1.0000
  H   H783      1.0  0.93188  0.23905  0.11443  1.0000
  C   C457      1.0  0.89898  0.05205  0.32538  1.0000
  C   C458      1.0  0.91755  0.07654  0.33084  1.0000
  C   C459      1.0  0.91068  0.09741  0.35669  1.0000
  C   C460      1.0  0.88556  0.09376  0.37784  1.0000
  C   C461      1.0  0.86734  0.06893  0.37287  1.0000
  C   C462      1.0  0.87384  0.04841  0.34652  1.0000
  H   H784      1.0  0.93689  0.07970  0.31473  1.0000
  H   H785      1.0  0.92486  0.11660  0.36021  1.0000
  H   H786      1.0  0.84782  0.06593  0.38874  1.0000
  C   C463      1.0  0.71874  0.27428  0.48525  1.0000
  C   C464      1.0  0.94315  0.42239  0.15653  1.0000
  C   C465      1.0  0.93681  0.39326  0.14568  1.0000
  C   C466      1.0  0.91966  0.38781  0.11590  1.0000
  C   C467      1.0  0.90832  0.41151  0.09680  1.0000
  C   C468      1.0  0.91482  0.44067  0.10752  1.0000
  C   C469      1.0  0.93227  0.44612  0.13710  1.0000
  H   H787      1.0  0.94512  0.37475  0.16050  1.0000
  H   H788      1.0  0.91479  0.36528  0.10807  1.0000
  H   H789      1.0  0.90610  0.45918  0.09304  1.0000
  H   H790      1.0  0.93693  0.46864  0.14511  1.0000
  H   H791      1.0  0.74311  0.11592  0.09353  1.0000
  C   C470      1.0  0.73144  0.26676  0.02334  1.0000
  H   H792      1.0  0.89331  0.46281  0.30039  1.0000
  Fe  Fe72      1.0  0.97839  0.47184  0.21909  1.0000
  H   H793      1.0  0.86382  0.40406  0.25860  1.0000
  C   C471      1.0  0.75796  0.27210  0.00498  1.0000
  H   H794      1.0  0.80956  0.29405  0.43251  1.0000
  H   H795      1.0  0.66328  0.00028  0.34116  1.0000
  H   H796      1.0  0.70037  0.20510  0.07589  1.0000
  H   H797      1.0  0.78574  0.18683  0.35808  1.0000
  H   H798      1.0  0.71934  0.17276  0.04055  1.0000
  H   H799      1.0  0.92787  0.45741  0.00481  1.0000
  C   C472      1.0  0.73365  0.13854  0.09738  1.0000
  H   H800      1.0  0.78012  0.26797  0.42830  1.0000
  S   S142      1.0  0.73660  0.43924  0.47965  1.0000
  C   C473      1.0  0.80299  0.27319  0.41922  1.0000
  H   H801      1.0  0.99458  0.13945  0.04377  1.0000
  H   H802      1.0  0.70098  0.09771  0.13174  1.0000
  H   H803      1.0  0.76704  0.15528  0.06049  1.0000
  H   H804      1.0  0.93428  0.02052  0.37210  1.0000
  S   S143      1.0  0.68822  0.29845  0.47494  1.0000
  C   C474      1.0  0.68887  0.46483  0.41264  1.0000
  C   C475      1.0  0.66940  0.48870  0.39526  1.0000
  H   H805      1.0  0.77653  0.22606  0.39811  1.0000
  H   H806      1.0  0.96559  0.01886  0.12426  1.0000
  C   C476      1.0  0.97855  0.03592  0.37795  1.0000
  S   S144      1.0  0.78038  0.30359  0.01622  1.0000
  H   H807      1.0  0.73085  0.14077  0.12569  1.0000
  H   H808      1.0  0.80278  0.27757  0.39124  1.0000
  H   H809      1.0  0.66921  0.34292  0.37844  1.0000
  H   H810      1.0  0.71329  0.19735  0.11937  1.0000
  C   C477      1.0  0.87597  0.20797  0.43223  1.0000
  H   H811      1.0  0.97179  0.17110  0.13975  1.0000
  H   H812      1.0  0.83395  0.19116  0.44970  1.0000
  H   H813      1.0  0.95924  0.21954  0.06402  1.0000
  H   H814      1.0  0.96333  0.16316  0.04999  1.0000
  H   H815      1.0  0.96324  0.23307  0.14199  1.0000
  H   H816      1.0  0.70594  0.11200  0.00962  1.0000
  H   H817      1.0  0.69185  0.99774  0.40687  1.0000
  H   H818      1.0  0.84411  0.42646  0.19133  1.0000
  H   H819      1.0  0.89003  0.18813  0.43722  1.0000
  H   H820      1.0  0.78538  0.20414  0.43451  1.0000
  N   N33       1.0  0.82406  0.22053  0.40748  1.0000
  C   C478      1.0  0.82509  0.24840  0.42913  1.0000
  C   C479      1.0  0.84374  0.19788  0.42468  1.0000
  C   C480      1.0  0.68381  0.16294  0.09818  1.0000
  C   C481      1.0  0.83404  0.22794  0.37145  1.0000
  Fe  Fe73      1.0  0.69525  0.41229  0.49126  1.0000
  H   H821      1.0  0.97428  0.05605  0.36229  1.0000
  H   H822      1.0  0.87677  0.22189  0.45580  1.0000
  C   C482      1.0  0.84879  0.20278  0.35040  1.0000
  C   C483      1.0  0.88555  0.44307  0.21575  1.0000
  H   H823      1.0  0.82733  0.40928  0.30527  1.0000
  H   H824      1.0  0.90383  0.45837  0.20802  1.0000
  H   H825      1.0  0.96490  0.25984  0.10711  1.0000
  H   H826      1.0  0.76329  0.17308  0.39219  1.0000
  S   S145      1.0  0.84081  0.07884  0.49089  1.0000
  H   H827      1.0  0.81493  0.23643  0.35605  1.0000
  H   H828      1.0  0.85057  0.24639  0.37165  1.0000
  H   H829      1.0  0.85922  0.02965  0.34242  1.0000
  H   H830      1.0  0.88411  0.46569  0.03049  1.0000
  H   H831      1.0  0.68708  0.31072  0.39493  1.0000
  H   H832      1.0  0.87298  0.43604  0.16242  1.0000
  H   H833      1.0  0.68003  0.15575  0.12509  1.0000
  C   C484      1.0  0.85706  0.47946  0.25096  1.0000
  S   S146      1.0  0.98994  0.04844  0.26389  1.0000
  H   H834      1.0  0.71173  0.47308  0.41786  1.0000
  C   C485      1.0  0.96678  0.21308  0.09027  1.0000
  C   C486      1.0  0.69451  0.19528  0.10097  1.0000
  H   H835      1.0  0.85231  0.21055  0.32367  1.0000
  H   H836      1.0  0.86150  0.42580  0.31878  1.0000
  H   H837      1.0  0.70228  0.09481  0.06577  1.0000
  H   H838      1.0  0.82117  0.24322  0.45664  1.0000
  N   N34       1.0  0.70391  0.14157  0.07939  1.0000
  C   C487      1.0  0.78595  0.18136  0.38583  1.0000
  H   H839      1.0  0.68457  0.15663  0.03164  1.0000
  H   H840      1.0  0.83521  0.18238  0.34884  1.0000
  H   H841      1.0  0.92820  0.41819  0.00675  1.0000
  H   H842      1.0  0.67905  0.45619  0.43667  1.0000
  C   C488      1.0  0.84285  0.42798  0.30025  1.0000
  H   H843      1.0  0.78008  0.48301  0.46295  1.0000
  H   H844      1.0  0.97335  0.00430  0.46553  1.0000
  C   C489      1.0  0.71196  0.24331  0.01417  1.0000
  H   H845      1.0  0.87106  0.19681  0.36069  1.0000
  H   H846      1.0  0.83282  0.42594  0.24663  1.0000
  C   C490      1.0  0.95661  0.23773  0.11511  1.0000
  H   H847      1.0  0.89597  0.42067  0.21552  1.0000
  H   H848      1.0  0.79534  0.02464  0.48423  1.0000
  H   H849      1.0  0.90482  0.40706  0.29289  1.0000
  C   C491      1.0  0.85342  0.42623  0.26257  1.0000
  H   H850      1.0  0.84505  0.17703  0.40968  1.0000
  H   H851      1.0  0.98155  0.46060  0.35100  1.0000
  H   H852      1.0  0.77789  0.15757  0.10441  1.0000
  C   C492      1.0  0.90033  0.45369  0.27507  1.0000
  Fe  Fe74      1.0  0.89458  0.30161  0.00485  1.0000
  C   C493      1.0  0.68846  0.11176  0.07908  1.0000
  H   H853      1.0  0.84765  0.25865  0.42837  1.0000
  H   H854      1.0  0.93628  0.43014  0.30061  1.0000
  H   H855      1.0  0.91308  0.01590  0.13212  1.0000
  H   H856      1.0  0.69115  0.44559  0.39497  1.0000
  Fe  Fe75      1.0  0.67706  0.34718  0.48877  1.0000
  C   C494      1.0  0.77359  0.01429  0.48384  1.0000
  C   C495      1.0  0.68127  0.09831  0.11456  1.0000
  H   H857      1.0  0.83050  0.44872  0.30573  1.0000
  C   C496      1.0  0.95895  0.25903  0.99978  1.0000
  Fe  Fe76      1.0  0.82870  0.31828  0.00392  1.0000
  C   C497      1.0  0.72201  0.12931  0.01806  1.0000
  S   S147      1.0  0.92145  0.25966  0.01256  1.0000
  C   C498      1.0  0.95675  0.01148  0.36639  1.0000
  C   C499      1.0  0.97579  0.28505  0.99797  1.0000
  C   C500      1.0  0.73854  0.47722  0.48976  1.0000
  C   C501      1.0  0.66611  0.31879  0.38289  1.0000
  H   H858      1.0  0.95306  0.04773  0.05825  1.0000
  C   C502      1.0  0.98494  0.15630  0.06141  1.0000
  H   H859      1.0  0.98112  0.14515  0.08621  1.0000
  C   C503      1.0  0.71738  0.24425  0.47505  1.0000
  H   H860      1.0  0.91651  0.47012  0.26488  1.0000
  C   C504      1.0  0.98112  0.47571  0.37352  1.0000
  H   H861      1.0  0.72940  0.14112  0.99454  1.0000
  H   H862      1.0  0.69779  0.23626  0.46170  1.0000
  H   H863      1.0  0.85062  0.48590  0.27751  1.0000
  H   H864      1.0  0.67606  0.20895  0.11151  1.0000
  H   H865      1.0  0.67357  0.07508  0.11091  1.0000
  H   H866      1.0  0.67103  0.29707  0.02491  1.0000
  H   H867      1.0  0.66716  0.11294  0.06430  1.0000
  C   C505      1.0  0.87464  0.48452  0.01586  1.0000
  C   C506      1.0  0.74086  0.22426  0.48246  1.0000
  C   C507      1.0  0.74804  0.03158  0.48836  1.0000
  H   H868      1.0  0.73910  0.20124  0.47484  1.0000
  H   H869      1.0  0.93644  0.99746  0.42638  1.0000
  C   C508      1.0  0.98446  0.01061  0.06242  1.0000
  H   H870      1.0  0.95934  0.21155  0.99330  1.0000
  H   H871      1.0  0.98789  0.46223  0.39600  1.0000
  H   H872      1.0  0.94241  0.01594  0.03246  1.0000
  H   H873      1.0  0.97218  0.03831  0.01904  1.0000
  H   H874      1.0  0.68288  0.34188  0.99286  1.0000
  C   C509      1.0  0.80871  0.46513  0.59024  1.0000
  H   H875      1.0  0.90639  0.09382  0.70794  1.0000
  S   S148      1.0  0.85956  0.30061  0.96333  1.0000
  H   H876      1.0  0.84222  0.08030  0.73440  1.0000
  Fe  Fe77      1.0  0.87415  0.34787  0.95355  1.0000
  S   S149      1.0  0.87782  0.36736  0.89940  1.0000
  C   C510      1.0  0.76490  0.25320  0.97756  1.0000
  H   H877      1.0  0.85420  0.47643  0.54646  1.0000
  C   C511      1.0  0.74431  0.28407  0.50262  1.0000
  H   H878      1.0  0.86868  0.46854  0.60398  1.0000
  S   S150      1.0  0.91554  0.01044  0.68991  1.0000
  H   H879      1.0  0.90546  0.04956  0.82459  1.0000
  H   H880      1.0  0.97794  0.41307  0.89146  1.0000
  H   H881      1.0  0.95617  0.35383  0.84353  1.0000
  S   S151      1.0  0.69524  0.37610  0.53116  1.0000
  C   C512      1.0  0.92206  0.08696  0.79374  1.0000
  S   S152      1.0  0.80289  0.12505  0.54177  1.0000
  C   C513      1.0  0.97238  0.23172  0.99219  1.0000
  Fe  Fe78      1.0  0.85070  0.11107  0.53386  1.0000
  S   S153      1.0  0.88832  0.10622  0.57348  1.0000
  H   H882      1.0  0.89590  0.04169  0.75727  1.0000
  H   H883      1.0  0.74724  0.00749  0.59937  1.0000
  H   H884      1.0  0.91837  0.25710  0.93495  1.0000
  H   H885      1.0  0.93601  0.13655  0.73130  1.0000
  C   C514      1.0  0.84628  0.47946  0.65121  1.0000
  C   C515      1.0  0.86463  0.45483  0.92318  1.0000
  Fe  Fe79      1.0  0.80982  0.16076  0.50212  1.0000
  H   H886      1.0  0.86726  0.47598  0.66596  1.0000
  C   C516      1.0  0.69281  0.00045  0.63003  1.0000
  H   H887      1.0  0.96189  0.11058  0.75086  1.0000
  C   C517      1.0  0.90872  0.03684  0.65706  1.0000
  C   C518      1.0  0.88283  0.03414  0.63683  1.0000
  C   C519      1.0  0.87622  0.05500  0.61095  1.0000
  C   C520      1.0  0.89540  0.07893  0.60523  1.0000
  C   C521      1.0  0.92131  0.08157  0.62545  1.0000
  C   C522      1.0  0.92809  0.06055  0.65101  1.0000
  C   C523      1.0  0.95384  0.33194  0.83101  1.0000
  H   H888      1.0  0.85621  0.05272  0.59561  1.0000
  H   H889      1.0  0.93621  0.10008  0.62126  1.0000
  H   H890      1.0  0.94807  0.06300  0.66629  1.0000
  C   C524      1.0  0.90650  0.38893  0.88009  1.0000
  C   C525      1.0  0.90135  0.40171  0.84767  1.0000
  C   C526      1.0  0.92353  0.41871  0.83118  1.0000
  C   C527      1.0  0.95140  0.42268  0.84670  1.0000
  C   C528      1.0  0.95651  0.40996  0.87916  1.0000
  C   C529      1.0  0.93415  0.39350  0.89594  1.0000
  H   H891      1.0  0.88005  0.39841  0.83513  1.0000
  H   H892      1.0  0.91929  0.42822  0.80616  1.0000
  H   H893      1.0  0.71214  0.00018  0.64808  1.0000
  H   H894      1.0  0.93835  0.38437  0.92111  1.0000
  S   S154      1.0  0.95369  0.01060  0.78254  1.0000
  H   H895      1.0  0.93142  0.06811  0.72720  1.0000
  S   S155      1.0  0.79740  0.21020  0.50925  1.0000
  H   H896      1.0  0.86769  0.01586  0.64127  1.0000
  H   H897      1.0  0.70490  0.04734  0.55733  1.0000
  C   C530      1.0  0.74536  0.22983  0.96831  1.0000
  H   H898      1.0  0.95265  0.33532  0.91394  1.0000
  H   H899      1.0  0.71400  0.05380  0.60248  1.0000
  C   C531      1.0  0.78721  0.46062  0.55966  1.0000
  N   N35       1.0  0.88242  0.46196  0.95521  1.0000
  H   H900      1.0  0.93579  0.45603  0.91874  1.0000
  H   H901      1.0  0.94149  0.07275  0.78735  1.0000
  H   H902      1.0  0.69373  0.28956  0.97367  1.0000
  C   C532      1.0  0.90450  0.48582  0.94568  1.0000
  S   S156      1.0  0.84033  0.36575  0.99088  1.0000
  H   H903      1.0  0.84170  0.13492  0.78429  1.0000
  H   H904      1.0  0.92653  0.07635  0.84783  1.0000
  H   H905      1.0  0.96960  0.26420  0.92249  1.0000
  H   H906      1.0  0.83001  0.42627  0.90207  1.0000
  Fe  Fe80      1.0  0.98181  0.47418  0.78061  1.0000
  H   H907      1.0  0.77177  0.44201  0.56545  1.0000
  C   C533      1.0  0.85434  0.48693  0.61369  1.0000
  H   H908      1.0  0.78512  0.25689  0.96310  1.0000
  C   C534      1.0  0.68140  0.30448  0.95607  1.0000
  C   C535      1.0  0.68924  0.33666  0.96603  1.0000
  S   S157      1.0  0.91154  0.34728  0.99185  1.0000
  C   C536      1.0  0.94434  0.30790  0.85679  1.0000
  H   H909      1.0  0.78742  0.27209  0.52330  1.0000
  H   H910      1.0  0.87904  0.44435  0.90333  1.0000
  H   H911      1.0  0.74588  0.30699  0.51070  1.0000
  H   H912      1.0  0.71384  0.33948  0.96453  1.0000
  N   N36       1.0  0.99259  0.01192  0.59339  1.0000
  H   H913      1.0  0.92411  0.31700  0.86960  1.0000
  H   H914      1.0  0.91882  0.49232  0.96761  1.0000
  C   C537      1.0  0.90950  0.07377  0.82723  1.0000
  H   H915      1.0  0.88115  0.42076  0.98402  1.0000
  N   N37       1.0  0.90131  0.08916  0.76320  1.0000
  C   C538      1.0  0.94507  0.11372  0.73025  1.0000
  H   H916      1.0  0.85573  0.47547  0.91124  1.0000
  S   S158      1.0  0.85856  0.14915  0.49780  1.0000
  C   C539      1.0  0.98466  0.04067  0.57584  1.0000
  C   C540      1.0  0.92026  0.08994  0.73120  1.0000
  H   H917      1.0  0.82249  0.44457  0.59131  1.0000
  H   H918      1.0  0.92462  0.29616  0.93706  1.0000
  H   H919      1.0  0.67909  0.35294  0.94823  1.0000
  H   H920      1.0  0.83316  0.45870  0.65332  1.0000
  H   H921      1.0  0.88905  0.08493  0.83616  1.0000
  H   H922      1.0  0.69168  0.30036  0.93049  1.0000
  H   H923      1.0  0.81912  0.44434  0.94089  1.0000
  C   C541      1.0  0.96468  0.99372  0.59829  1.0000
  H   H924      1.0  0.86923  0.05773  0.78451  1.0000
  H   H925      1.0  0.68295  0.24557  0.92033  1.0000
  Fe  Fe81      1.0  0.95629  0.00706  0.72476  1.0000
  H   H926      1.0  0.93169  0.10905  0.80031  1.0000
  H   H927      1.0  0.68528  0.02378  0.63023  1.0000
  H   H928      1.0  0.86988  0.12974  0.81683  1.0000
  C   C542      1.0  0.92400  0.27691  0.91932  1.0000
  C   C543      1.0  0.97331  0.32251  0.90877  1.0000
  N   N38       1.0  0.96721  0.29814  0.88299  1.0000
  C   C544      1.0  0.76637  0.23403  0.49996  1.0000
  C   C545      1.0  0.83812  0.43345  0.92778  1.0000
  H   H929      1.0  0.74201  0.05425  0.57054  1.0000
  H   H930      1.0  0.84466  0.41314  0.94173  1.0000
  C   C546      1.0  0.85851  0.06200  0.73145  1.0000
  C   C547      1.0  0.86103  0.47404  0.98159  1.0000
  H   H931      1.0  0.95720  0.11169  0.70551  1.0000
  Fe  Fe82      1.0  0.79351  0.09542  0.49617  1.0000
  C   C548      1.0  0.92558  0.47815  0.91570  1.0000
  H   H932      1.0  0.84876  0.09897  0.79942  1.0000
  H   H933      1.0  0.86880  0.06297  0.70568  1.0000
  C   C549      1.0  0.72746  0.00962  0.58216  1.0000
  H   H934      1.0  0.84577  0.04087  0.73230  1.0000
  H   H935      1.0  0.93571  0.33474  0.81178  1.0000
  H   H936      1.0  0.91391  0.47913  0.89054  1.0000
  H   H937      1.0  0.69783  0.47848  0.51882  1.0000
  C   C550      1.0  0.72104  0.04299  0.57830  1.0000
  H   H938      1.0  0.90563  0.27959  0.90048  1.0000
  C   C551      1.0  0.76790  0.26414  0.50975  1.0000
  H   H939      1.0  0.95167  0.25249  0.88401  1.0000
  H   H940      1.0  0.98909  0.27196  0.84382  1.0000
  H   H941      1.0  0.79480  0.46484  0.61389  1.0000
  C   C552      1.0  0.96969  0.03843  0.54034  1.0000
  H   H942      1.0  0.96955  0.05405  0.59242  1.0000
  C   C553      1.0  0.85993  0.12010  0.79314  1.0000
  H   H943      1.0  0.87236  0.12208  0.73946  1.0000
  H   H944      1.0  0.93659  0.28850  0.84135  1.0000
  S   S159      1.0  0.98103  0.44214  0.82648  1.0000
  H   H945      1.0  0.73501  0.00239  0.55631  1.0000
  C   C554      1.0  0.95432  0.27179  0.90173  1.0000
  C   C555      1.0  0.88345  0.11743  0.76452  1.0000
  C   C556      1.0  0.92628  0.43722  0.98882  1.0000
  H   H946      1.0  0.90259  0.41925  0.94611  1.0000
  S   S160      1.0  0.96862  0.46742  0.72492  1.0000
  H   H947      1.0  0.97953  0.31316  0.93415  1.0000
  H   H948      1.0  0.96366  0.06117  0.53179  1.0000
  H   H949      1.0  0.75093  0.21568  0.94679  1.0000
  C   C557      1.0  0.88186  0.06189  0.76062  1.0000
  H   H950      1.0  0.89846  0.13684  0.76811  1.0000
  S   S161      1.0  0.74996  0.06999  0.49608  1.0000
  H   H951      1.0  0.94599  0.43516  0.97183  1.0000
  C   C558      1.0  0.89698  0.43384  0.96810  1.0000
  H   H952      1.0  0.79934  0.45419  0.53596  1.0000
  S   S162      1.0  0.69424  0.19564  0.97251  1.0000
  H   H953      1.0  0.98530  0.02955  0.52089  1.0000
  H   H954      1.0  0.98633  0.02975  0.64465  1.0000
  H   H955      1.0  0.94856  0.02573  0.54076  1.0000
  H   H956      1.0  0.84431  0.45694  0.98889  1.0000
  H   H957      1.0  0.97415  0.32618  0.81639  1.0000
  C   C559      1.0  0.71649  0.49119  0.50924  1.0000
  C   C560      1.0  0.71858  0.22488  0.98624  1.0000
  N   N39       1.0  0.82843  0.49233  0.58959  1.0000
  H   H958      1.0  0.77324  0.48022  0.55443  1.0000
  H   H959      1.0  0.94716  0.00724  0.61115  1.0000
  Fe  Fe83      1.0  0.89377  0.79946  0.99833  1.0000
  C   C561      1.0  0.79788  0.77635  0.42231  1.0000
  H   H960      1.0  0.79798  0.78106  0.39440  1.0000
  C   C562      1.0  0.76531  0.52414  0.48554  1.0000
  C   C563      1.0  0.73357  0.76086  0.02813  1.0000
  C   C564      1.0  0.97267  0.57218  0.41183  1.0000
  Fe  Fe84      1.0  0.95980  0.51682  0.27550  1.0000
  Fe  Fe85      1.0  0.87701  0.85684  0.03448  1.0000
  S   S163      1.0  0.88049  0.89311  0.07557  1.0000
  C   C565      1.0  0.74281  0.96984  0.47906  1.0000
  S   S164      1.0  0.86372  0.80920  0.04312  1.0000
  C   C566      1.0  0.90487  0.96982  0.37011  1.0000
  H   H961      1.0  0.73839  0.96462  0.40582  1.0000
  C   C567      1.0  0.95920  0.75624  0.99732  1.0000
  H   H962      1.0  0.94804  0.95985  0.42954  1.0000
  Fe  Fe86      1.0  0.83834  0.61913  0.45580  1.0000
  C   C568      1.0  0.69072  0.53184  0.42452  1.0000
  S   S165      1.0  0.86036  0.62149  0.40290  1.0000
  H   H963      1.0  0.97680  0.96613  0.01440  1.0000
  H   H964      1.0  0.89278  0.51294  0.25302  1.0000
  H   H965      1.0  0.99174  0.94885  0.11260  1.0000
  H   H966      1.0  0.85657  0.49379  0.03211  1.0000
  S   S166      1.0  0.79140  0.63580  0.46458  1.0000
  S   S167      1.0  0.92008  0.75661  0.99566  1.0000
  H   H967      1.0  0.98748  0.93448  0.04067  1.0000
  C   C569      1.0  0.93785  0.96088  0.36574  1.0000
  Fe  Fe87      1.0  0.69638  0.90880  0.48708  1.0000
  C   C570      1.0  0.74303  0.95709  0.37927  1.0000
  H   H968      1.0  0.70889  0.90692  0.33872  1.0000
  C   C571      1.0  0.67789  0.95101  0.40030  1.0000
  S   S168      1.0  0.95160  0.51370  0.21840  1.0000
  H   H969      1.0  0.89874  0.97381  0.39726  1.0000
  S   S169      1.0  0.92577  0.51788  0.31940  1.0000
  H   H970      1.0  0.76194  0.97075  0.36991  1.0000
  H   H971      1.0  0.69445  0.94290  0.41940  1.0000
  C   C572      1.0  0.95582  0.73887  0.10054  1.0000
  H   H972      1.0  0.95285  0.73869  0.12877  1.0000
  S   S170      1.0  0.97458  0.97678  0.27431  1.0000
  N   N40       1.0  0.96065  0.98118  0.38217  1.0000
  C   C573      1.0  0.75743  0.76814  0.00623  1.0000
  H   H973      1.0  0.70373  0.53560  0.40063  1.0000
  C   C574      1.0  0.90873  0.54736  0.34268  1.0000
  C   C575      1.0  0.91102  0.57701  0.33257  1.0000
  C   C576      1.0  0.89632  0.59941  0.35147  1.0000
  C   C577      1.0  0.87958  0.59255  0.38096  1.0000
  C   C578      1.0  0.87790  0.56294  0.39149  1.0000
  C   C579      1.0  0.89219  0.54051  0.37230  1.0000
  H   H974      1.0  0.92365  0.58267  0.30989  1.0000
  H   H975      1.0  0.89778  0.62221  0.34304  1.0000
  H   H976      1.0  0.86509  0.55727  0.41403  1.0000
  H   H977      1.0  0.89029  0.51767  0.38043  1.0000
  C   C580      1.0  0.95127  0.91838  0.15656  1.0000
  C   C581      1.0  0.95673  0.89490  0.13352  1.0000
  C   C582      1.0  0.93517  0.88636  0.10893  1.0000
  C   C583      1.0  0.90781  0.90117  0.10731  1.0000
  C   C584      1.0  0.90221  0.92429  0.13073  1.0000
  C   C585      1.0  0.92376  0.93288  0.15520  1.0000
  H   H978      1.0  0.98982  0.73995  0.06175  1.0000
  H   H979      1.0  0.93979  0.86855  0.09106  1.0000
  H   H980      1.0  0.88106  0.93577  0.12980  1.0000
  H   H981      1.0  0.91909  0.95075  0.17297  1.0000
  H   H982      1.0  0.97789  0.88346  0.13445  1.0000
  H   H983      1.0  0.80130  0.79775  0.43599  1.0000
  C   C586      1.0  0.79309  0.68259  0.39011  1.0000
  H   H984      1.0  0.97648  0.69434  0.04709  1.0000
  H   H985      1.0  0.69572  0.97686  0.48321  1.0000
  H   H986      1.0  0.71173  0.98612  0.35554  1.0000
  C   C587      1.0  0.71595  0.96186  0.35541  1.0000
  H   H987      1.0  0.69546  0.73240  0.03733  1.0000
  N   N41       1.0  0.82557  0.72654  0.41168  1.0000
  C   C588      1.0  0.82272  0.75452  0.43296  1.0000
  C   C589      1.0  0.84762  0.70681  0.42993  1.0000
  C   C590      1.0  0.79557  0.71142  0.41119  1.0000
  C   C591      1.0  0.83528  0.73492  0.37588  1.0000
  N   N42       1.0  0.66214  0.51549  0.41685  1.0000
  C   C592      1.0  0.87901  0.72002  0.43526  1.0000
  H   H988      1.0  0.80929  0.66545  0.39815  1.0000
  C   C593      1.0  0.85116  0.71067  0.35434  1.0000
  H   H989      1.0  0.81896  0.74912  0.46048  1.0000
  S   S171      1.0  0.83890  0.86426  0.99759  1.0000
  H   H990      1.0  0.85058  0.68519  0.41696  1.0000
  H   H991      1.0  0.83902  0.70089  0.45581  1.0000
  H   H992      1.0  0.78841  0.70628  0.43790  1.0000
  H   H993      1.0  0.77814  0.72614  0.40026  1.0000
  H   H994      1.0  0.81586  0.74299  0.36067  1.0000
  H   H995      1.0  0.85115  0.75393  0.37704  1.0000
  C   C594      1.0  0.98189  0.99109  0.44357  1.0000
  H   H996      1.0  0.87901  0.73697  0.45598  1.0000
  H   H997      1.0  0.89435  0.70209  0.44368  1.0000
  C   C595      1.0  0.95523  0.98214  0.42041  1.0000
  H   H998      1.0  0.94200  0.95869  0.33763  1.0000
  C   C596      1.0  0.99099  0.96922  0.37299  1.0000
  C   C597      1.0  0.67167  0.98369  0.40911  1.0000
  H   H999      1.0  0.79074  0.97011  0.47549  1.0000
  C   C598      1.0  0.98896  0.73909  0.09020  1.0000
  H   H1000     1.0  0.84381  0.71251  0.32716  1.0000
  H   H1001     1.0  0.84683  0.68750  0.36203  1.0000
  H   H1002     1.0  0.87561  0.71452  0.35395  1.0000
  C   C599      1.0  0.69584  0.91192  0.36236  1.0000
  H   H1003     1.0  0.71034  0.90529  0.38432  1.0000
  H   H1004     1.0  0.68037  0.98520  0.30328  1.0000
  N   N43       1.0  0.97274  0.98582  0.08450  1.0000
  H   H1005     1.0  0.90886  0.98397  0.10561  1.0000
  H   H1006     1.0  0.70988  0.57146  0.44752  1.0000
  C   C600      1.0  0.98426  0.67547  0.06269  1.0000
  H   H1007     1.0  0.69913  0.73650  0.46866  1.0000
  H   H1008     1.0  0.68160  0.49526  0.37165  1.0000
  S   S172      1.0  0.73985  0.93122  0.47330  1.0000
  H   H1009     1.0  0.68641  0.79933  0.01032  1.0000
  C   C601      1.0  0.97558  0.78185  0.00473  1.0000
  H   H1010     1.0  0.77558  0.76821  0.43033  1.0000
  H   H1011     1.0  0.95105  0.58314  0.40597  1.0000
  H   H1012     1.0  0.94363  0.71998  0.08877  1.0000
  C   C602      1.0  0.87372  0.50657  0.23643  1.0000
  S   S173      1.0  0.97974  0.92939  0.18576  1.0000
  H   H1013     1.0  0.94672  0.94561  0.08184  1.0000
  H   H1014     1.0  0.96524  0.65969  0.06315  1.0000
  H   H1015     1.0  0.79508  0.68697  0.36220  1.0000
  C   C603      1.0  0.97507  0.54381  0.38979  1.0000
  H   H1016     1.0  0.94505  0.75937  0.09063  1.0000
  H   H1017     1.0  0.73050  0.77345  0.05153  1.0000
  S   S174      1.0  0.77995  0.79986  0.01626  1.0000
  H   H1018     1.0  0.67492  0.57832  0.42723  1.0000
  S   S175      1.0  0.67780  0.87474  0.45081  1.0000
  H   H1019     1.0  0.99038  0.58847  0.40574  1.0000
  H   H1020     1.0  0.77059  0.67290  0.39411  1.0000
  H   H1021     1.0  0.96416  0.80240  0.01043  1.0000
  C   C604      1.0  0.71351  0.73765  0.02002  1.0000
  N   N44       1.0  0.68822  0.94456  0.36421  1.0000
  H   H1022     1.0  0.97260  0.56731  0.43969  1.0000
  H   H1023     1.0  0.84383  0.76749  0.43253  1.0000
  H   H1024     1.0  0.95606  0.98233  0.13655  1.0000
  H   H1025     1.0  0.85837  0.52590  0.23619  1.0000
  C   C605      1.0  0.66909  0.89019  0.36250  1.0000
  H   H1026     1.0  0.93952  0.93806  0.37635  1.0000
  C   C606      1.0  0.96898  0.94942  0.03316  1.0000
  C   C607      1.0  0.77094  0.98346  0.47897  1.0000
  H   H1027     1.0  0.89134  0.50237  0.01269  1.0000
  C   C608      1.0  0.68734  0.56199  0.44292  1.0000
  C   C609      1.0  0.95401  0.96386  0.06461  1.0000
  H   H1028     1.0  0.95226  0.93529  0.01975  1.0000
  H   H1029     1.0  0.93296  0.97371  0.05510  1.0000
  C   C610      1.0  0.71847  0.74494  0.48217  1.0000
  H   H1030     1.0  0.88825  0.72969  0.41145  1.0000
  H   H1031     1.0  0.75080  0.93377  0.37952  1.0000
  H   H1032     1.0  0.72319  0.95648  0.32875  1.0000
  H   H1033     1.0  0.97209  0.68276  0.11617  1.0000
  H   H1034     1.0  0.70551  0.51824  0.44116  1.0000
  H   H1035     1.0  0.98238  0.50116  0.43603  1.0000
  S   S176      1.0  0.68433  0.79530  0.49146  1.0000
  H   H1036     1.0  0.95505  0.53023  0.39578  1.0000
  Fe  Fe88      1.0  0.98068  0.97226  0.21717  1.0000
  H   H1037     1.0  0.89050  0.95153  0.36042  1.0000
  H   H1038     1.0  0.97200  0.55059  0.36253  1.0000
  H   H1039     1.0  0.78412  0.53672  0.47620  1.0000
  H   H1040     1.0  0.67750  0.86721  0.36595  1.0000
  Fe  Fe89      1.0  0.82773  0.81561  0.00326  1.0000
  H   H1041     1.0  0.98617  0.92084  0.36736  1.0000
  H   H1042     1.0  0.74329  0.70394  0.47712  1.0000
  C   C611      1.0  0.71738  0.98719  0.48329  1.0000
  H   H1043     1.0  0.66613  0.93584  0.31545  1.0000
  H   H1044     1.0  0.99104  0.93298  0.41146  1.0000
  H   H1045     1.0  0.67661  0.55972  0.46837  1.0000
  C   C612      1.0  0.66225  0.98203  0.32230  1.0000
  H   H1046     1.0  0.66421  0.98512  0.43620  1.0000
  H   H1047     1.0  0.67191  0.56314  0.36814  1.0000
  H   H1048     1.0  0.66433  0.49609  0.46782  1.0000
  H   H1049     1.0  0.89920  0.98946  0.35442  1.0000
  H   H1050     1.0  0.69494  0.83582  0.99577  1.0000
  C   C613      1.0  0.74355  0.72639  0.48693  1.0000
  H   H1051     1.0  0.99242  0.97115  0.45509  1.0000
  H   H1052     1.0  0.88137  0.50325  0.20968  1.0000
  C   C614      1.0  0.66380  0.95068  0.33821  1.0000
  C   C615      1.0  0.99233  0.68453  0.09981  1.0000
  H   H1053     1.0  0.99170  0.71769  0.15625  1.0000
  C   C616      1.0  0.76295  0.49376  0.47801  1.0000
  S   S177      1.0  0.91025  0.84649  0.99259  1.0000
  H   H1054     1.0  0.99436  0.96999  0.34471  1.0000
  S   S178      1.0  0.83412  0.58081  0.49241  1.0000
  S   S179      1.0  0.95930  0.51865  0.78474  1.0000
  H   H1055     1.0  0.74369  0.71616  0.94418  1.0000
  S   S180      1.0  0.85725  0.80348  0.95880  1.0000
  H   H1056     1.0  0.98185  0.74329  0.88600  1.0000
  Fe  Fe90      1.0  0.87153  0.85149  0.95629  1.0000
  S   S181      1.0  0.87243  0.87682  0.90532  1.0000
  H   H1057     1.0  0.73067  0.65920  0.60338  1.0000
  C   C617      1.0  0.70758  0.66826  0.60440  1.0000
  C   C618      1.0  0.66659  0.73324  0.55935  1.0000
  C   C619      1.0  0.73134  0.73173  0.60970  1.0000
  S   S182      1.0  0.90471  0.52823  0.70601  1.0000
  H   H1058     1.0  0.71181  0.74636  0.61369  1.0000
  C   C620      1.0  0.68819  0.81330  0.98706  1.0000
  C   C621      1.0  0.67700  0.98915  0.56933  1.0000
  S   S183      1.0  0.69486  0.87849  0.53270  1.0000
  H   H1059     1.0  0.66238  0.64893  0.60855  1.0000
  S   S184      1.0  0.80545  0.62919  0.54800  1.0000
  H   H1060     1.0  0.90244  0.60072  0.74576  1.0000
  Fe  Fe91      1.0  0.85087  0.61243  0.53311  1.0000
  S   S185      1.0  0.89142  0.60005  0.56580  1.0000
  H   H1061     1.0  0.74318  0.80707  0.52270  1.0000
  H   H1062     1.0  0.68731  0.62802  0.58107  1.0000
  S   S186      1.0  0.99230  0.53563  0.71306  1.0000
  H   H1063     1.0  0.83449  0.49798  0.66409  1.0000
  C   C622      1.0  0.81177  0.51924  0.60234  1.0000
  S   S187      1.0  0.74561  0.57619  0.51489  1.0000
  H   H1064     1.0  0.66290  0.75394  0.99226  1.0000
  C   C623      1.0  0.84131  0.49650  0.55416  1.0000
  C   C624      1.0  0.76112  0.75146  0.97615  1.0000
  Fe  Fe92      1.0  0.78906  0.60009  0.50476  1.0000
  C   C625      1.0  0.90099  0.54697  0.66626  1.0000
  C   C626      1.0  0.87352  0.56006  0.65763  1.0000
  C   C627      1.0  0.87011  0.57621  0.62686  1.0000
  C   C628      1.0  0.89408  0.57917  0.60426  1.0000
  C   C629      1.0  0.92152  0.56610  0.61294  1.0000
  C   C630      1.0  0.92495  0.54994  0.64363  1.0000
  H   H1065     1.0  0.85494  0.55813  0.67514  1.0000
  H   H1066     1.0  0.84909  0.58676  0.62086  1.0000
  H   H1067     1.0  0.94028  0.56841  0.59574  1.0000
  H   H1068     1.0  0.94619  0.53990  0.64985  1.0000
  C   C631      1.0  0.90305  0.89436  0.88453  1.0000
  C   C632      1.0  0.89793  0.91014  0.85394  1.0000
  C   C633      1.0  0.92171  0.92297  0.83548  1.0000
  C   C634      1.0  0.95105  0.91960  0.84705  1.0000
  C   C635      1.0  0.95618  0.90391  0.87774  1.0000
  C   C636      1.0  0.93230  0.89181  0.89669  1.0000
  H   H1069     1.0  0.87540  0.91229  0.84430  1.0000
  H   H1070     1.0  0.91736  0.93476  0.81185  1.0000
  S   S188      1.0  0.79934  0.71335  0.51564  1.0000
  H   H1071     1.0  0.93650  0.88019  0.92046  1.0000
  H   H1072     1.0  0.94502  0.57869  0.71840  1.0000
  Fe  Fe93      1.0  0.98302  0.97026  0.78358  1.0000
  C   C637      1.0  0.86194  0.52360  0.54976  1.0000
  H   H1073     1.0  0.66530  0.72695  0.53186  1.0000
  H   H1074     1.0  0.74913  0.66931  0.53028  1.0000
  H   H1075     1.0  0.96933  0.65671  0.77535  1.0000
  H   H1076     1.0  0.90615  0.63498  0.70263  1.0000
  H   H1077     1.0  0.68765  0.76643  0.94311  1.0000
  C   C638      1.0  0.92129  0.81501  0.88252  1.0000
  H   H1078     1.0  0.69684  0.94345  0.60680  1.0000
  H   H1079     1.0  0.72420  0.64653  0.50637  1.0000
  H   H1080     1.0  0.88330  0.52105  0.56383  1.0000
  C   C639      1.0  0.89667  0.81374  0.85476  1.0000
  H   H1081     1.0  0.72657  0.72801  0.55503  1.0000
  C   C640      1.0  0.74080  0.72848  0.96780  1.0000
  C   C641      1.0  0.72824  0.71255  0.57702  1.0000
  H   H1082     1.0  0.91072  0.82359  0.90647  1.0000
  C   C642      1.0  0.68575  0.64176  0.60464  1.0000
  C   C643      1.0  0.78799  0.53294  0.57853  1.0000
  H   H1083     1.0  0.73451  0.92167  0.57232  1.0000
  C   C644      1.0  0.71789  0.77414  0.49521  1.0000
  S   S189      1.0  0.98236  0.96423  0.72597  1.0000
  N   N45       1.0  0.93777  0.78641  0.88949  1.0000
  H   H1084     1.0  0.78716  0.77441  0.53171  1.0000
  H   H1085     1.0  0.78658  0.55717  0.58357  1.0000
  H   H1086     1.0  0.96159  0.70985  0.98414  1.0000
  H   H1087     1.0  0.97116  0.83905  0.91663  1.0000
  H   H1088     1.0  0.98539  0.98069  0.53203  1.0000
  H   H1089     1.0  0.93343  0.66875  0.65830  1.0000
  H   H1090     1.0  0.69154  0.62700  0.62648  1.0000
  H   H1091     1.0  0.74994  0.70093  0.57383  1.0000
  H   H1092     1.0  0.68076  0.66272  0.53873  1.0000
  H   H1093     1.0  0.70175  0.53234  0.53191  1.0000
  H   H1094     1.0  0.73523  0.71816  0.63296  1.0000
  H   H1095     1.0  0.73178  0.95846  0.61968  1.0000
  C   C645      1.0  0.92344  0.64667  0.65338  1.0000
  Fe  Fe94      1.0  0.81023  0.66401  0.50684  1.0000
  H   H1096     1.0  0.84816  0.49299  0.97072  1.0000
  N   N46       1.0  0.95337  0.62429  0.70436  1.0000
  C   C646      1.0  0.71656  0.72163  0.98936  1.0000
  H   H1097     1.0  0.75015  0.95604  0.55950  1.0000
  C   C647      1.0  0.98170  0.75666  0.86229  1.0000
  C   C648      1.0  0.97422  0.72970  0.98999  1.0000
  H   H1098     1.0  0.96322  0.79760  0.84431  1.0000
  C   C649      1.0  0.92655  0.73184  0.90629  1.0000
  C   C650      1.0  0.67345  0.70646  0.58285  1.0000
  C   C651      1.0  0.71465  0.95918  0.59890  1.0000
  C   C652      1.0  0.91494  0.76333  0.89920  1.0000
  H   H1099     1.0  0.75102  0.74649  0.60673  1.0000
  H   H1100     1.0  0.90248  0.77060  0.92242  1.0000
  C   C653      1.0  0.74317  0.78474  0.51244  1.0000
  C   C654      1.0  0.76833  0.73662  0.50540  1.0000
  C   C655      1.0  0.98144  0.81674  0.91506  1.0000
  C   C656      1.0  0.92402  0.62657  0.68541  1.0000
  C   C657      1.0  0.95451  0.77747  0.85752  1.0000
  C   C658      1.0  0.66755  0.98229  0.64664  1.0000
  N   N47       1.0  0.70237  0.99022  0.59483  1.0000
  H   H1101     1.0  0.93479  0.72107  0.88252  1.0000
  C   C659      1.0  0.76813  0.76609  0.51752  1.0000
  H   H1102     1.0  0.91637  0.60433  0.67692  1.0000
  H   H1103     1.0  0.89991  0.65018  0.64537  1.0000
  S   S190      1.0  0.69038  0.69376  0.97597  1.0000
  H   H1104     1.0  0.87605  0.80339  0.86492  1.0000
  H   H1105     1.0  0.69978  0.69321  0.52107  1.0000
  H   H1106     1.0  0.67338  0.73596  0.89540  1.0000
  H   H1107     1.0  0.94809  0.95129  0.61675  1.0000
  C   C660      1.0  0.94972  0.60037  0.73106  1.0000
  C   C661      1.0  0.66616  0.77265  0.93070  1.0000
  Fe  Fe95      1.0  0.94974  0.51369  0.72807  1.0000
  H   H1108     1.0  0.86782  0.52589  0.52221  1.0000
  H   H1109     1.0  0.98238  0.74062  0.84060  1.0000
  H   H1110     1.0  0.93452  0.63582  0.63118  1.0000
  C   C662      1.0  0.95792  0.79213  0.91986  1.0000
  H   H1111     1.0  0.89800  0.76043  0.87862  1.0000
  H   H1112     1.0  0.93911  0.76667  0.83883  1.0000
  H   H1113     1.0  0.80002  0.51415  0.62674  1.0000
  C   C663      1.0  0.72889  0.94515  0.56669  1.0000
  H   H1114     1.0  0.94439  0.79845  0.94271  1.0000
  C   C664      1.0  0.70136  0.67628  0.54163  1.0000
  H   H1115     1.0  0.93696  0.83264  0.87406  1.0000
  H   H1116     1.0  0.90392  0.80230  0.83104  1.0000
  H   H1117     1.0  0.97875  0.90124  0.88703  1.0000
  C   C665      1.0  0.74325  0.53815  0.50495  1.0000
  H   H1118     1.0  0.82380  0.49851  0.53418  1.0000
  H   H1119     1.0  0.89049  0.83674  0.84742  1.0000
  H   H1120     1.0  0.97005  0.77201  0.92801  1.0000
  H   H1121     1.0  0.92743  0.58929  0.77878  1.0000
  H   H1122     1.0  0.85094  0.54453  0.55762  1.0000
  C   C666      1.0  0.72816  0.65644  0.53213  1.0000
  N   N48       1.0  0.70267  0.69087  0.57649  1.0000
  H   H1123     1.0  0.95441  0.98701  0.57364  1.0000
  H   H1124     1.0  0.97064  0.97027  0.64732  1.0000
  H   H1125     1.0  0.94374  0.73128  0.92662  1.0000
  H   H1126     1.0  0.68577  0.98682  0.54290  1.0000
  H   H1127     1.0  0.90774  0.71808  0.91579  1.0000
  H   H1128     1.0  0.67198  0.78900  0.91036  1.0000
  H   H1129     1.0  0.97054  0.59283  0.66728  1.0000
  C   C667      1.0  0.92460  0.60533  0.75738  1.0000
  Fe  Fe96      1.0  0.67365  0.84530  0.49713  1.0000
  H   H1130     1.0  0.71340  0.94497  0.54451  1.0000
  H   H1131     1.0  0.97044  0.66900  0.69965  1.0000
  H   H1132     1.0  0.67189  0.71427  0.60993  1.0000
  C   C668      1.0  0.71880  0.52164  0.51670  1.0000
  H   H1133     1.0  0.93998  0.66538  0.72844  1.0000
  H   H1134     1.0  0.97039  0.59645  0.74581  1.0000
  C   C669      1.0  0.96077  0.65424  0.71962  1.0000
  S   S191      1.0  0.98210  0.93252  0.82284  1.0000
  H   H1135     1.0  0.98770  0.95172  0.61094  1.0000
  H   H1136     1.0  0.70569  0.67874  0.63018  1.0000
  H   H1137     1.0  0.86913  0.50670  0.61526  1.0000
  H   H1138     1.0  0.82733  0.53726  0.60980  1.0000
  H   H1139     1.0  0.92492  0.62793  0.76852  1.0000
  C   C670      1.0  0.97676  0.61462  0.67890  1.0000
  S   S192      1.0  0.85746  0.64986  0.49569  1.0000
  H   H1140     1.0  0.70655  0.80500  0.97063  1.0000
  H   H1141     1.0  0.77923  0.75672  0.95893  1.0000
  H   H1142     1.0  0.89256  0.50659  0.93847  1.0000
  H   H1143     1.0  0.67509  0.95981  0.65422  1.0000
  C   C671      1.0  0.96844  0.96514  0.61953  1.0000
  H   H1144     1.0  0.66189  0.82983  0.94473  1.0000
  C   C672      1.0  0.98206  0.65469  0.75104  1.0000
  H   H1145     1.0  0.73132  0.63769  0.55009  1.0000
  H   H1146     1.0  0.76566  0.52316  0.58328  1.0000
  H   H1147     1.0  0.68279  0.75163  0.56253  1.0000
  H   H1148     1.0  0.79332  0.53141  0.55099  1.0000
  H   H1149     1.0  0.97838  0.63047  0.65719  1.0000
  H   H1150     1.0  0.99378  0.81462  0.89062  1.0000
  H   H1151     1.0  0.66333  0.96882  0.57336  1.0000
  H   H1152     1.0  0.94394  0.49467  0.91462  1.0000
