data_image0
_chemical_formula_structural       FeSHS3FeS2FeS2FeCFeCS2HFeS2C6H4C3HCH2C2HC2H2C4H2CH3C3HCH2CNCHNH3CHC2HC2H2NCH7CFeSHC2SHCHSCH2CH3SC6H6CHFeHCHCH7CH7C2HNH7C2HC2H2SH2C2NC4HC3H8CH6NCH3SHCSH2CH3CH8CH5SFeCSCNS2FeHFeS2CH2CH2C6H5FeHCH3CH4CH3SH2CH2SHNH2CH8C2SH2CH6CH2CHCH7C2HC2H2C2H3CH2SCH2CHSH2CH4C2H2C2H3CH2CHFeSCH2SFeS2FeS2FeHFeCS3HS2C6H4C3HCH4CHCH2C4H3CH2C3HCH2C2HCHFeHCH3CH3CH2CHSH7CHCH6CHCH2CHFeH3CHSH2C2H2CSH3SHC2H3CH5NHC2H2CH2CNHFeH3CH4CNCSHCNCHCH3CHC3HSH4CH2CH2SC2H4SH3FeHSH2S2CSFeS2H3C2HC6H5CH3C2SHCHNH3CNH3CH4CHSC2H3Fe2H7C3H7CHC2H2C2H4CSHCH3CHCSHSH3C3H3CHCFeH2FeHSFeS3HFeSHFeH2FeSHSCS2HFeS2FeSCFeSFeHS2C8H4C4H2C4H3C6H4CH2CFeCHCNC2HCH2CH3C2H8C2HCH2CFeH2CH2C2HCNHNCH2CSH3CH2CH2CSCHC2HC2HCH6CH6SH3CFeC2H4CH5CH4SH2CH4NH3C2SHFeHC4SNCH2SHCHCH5CH4FeSHNH3FeSHFeS2FeS2FeSFeS3H3CHCH4C3H2C2SC6H7CH2SC6H4CH3CH2N2CH2C2HCHC2H10CH2CH2CH2CH4CHC2HC3H2C2HCHNH3CH2SCH2CH2CHSCHC2H2CSH5CH2C3HCHC2HC3H4C2HC2H4CHNH11CH3CH3C4H4FeCHFeS3CFeSHFeSHFeSCSHCS2FeS2FeSCFeSFeCS2H2C6H4C5HCHC2SH2C6H4C2NCHSHSH7NCHCHC2H2FeH5CH5FeC4HCH4CFeH8SCHCHSH2CH5CHC2HCSC2HCH4SH3FeHC2HCFeHNSH2FeCSC2H2CH2SHFeSHNHCHFeSCFeS2FeS2FeSFeS3H3CH2CHCH2C3H4C6H7CH3C6H5C2H2C2HSH5CHCH3CH3C2H6SH2CH2CH2CH2CH2CSCH2CH4CH2CH2C2H2C3HSNC2H3C5H5C3HCHNH10NH3CH4CH2C2H4SCSHCHFeSHS4FeS2FeS2FeHFeHS2C5H3CHC2H3CHC3H3C4H3C6H4C2HCHCHNH2CSH5C2H3FeH3CH2CHCH3CH4NCH5CH2FeH3C2H3C2HCH3SHFeNC7FeH7CH9CH2NH2C2H2SC2HNCHCSH2FeCHCH4C2H3CH2C2HC2NC2H4S2HCFeSCFeHSH2CHS2HSHCH8C6H5CHC2H4C2H3C2NHC4H2CSHCH5C2H2CH5SHFeH5FeHCH5CH2CNCHCHSFeHCHSH5C2H2CHCHFeSCH2SH3FeSHS4FeS2FeS2Fe3HS2C4H3C2HC2H3C2NC2H3C4H3C6H12CH2CH2SHCH2CHNC7H6CH5CHNH4CH4CHCH2C4NC2HNH3SC4H4CHC2H2SNH2C3H2FeHC3H7SHC2HCH8FeH2C2SH4FeHC4HC2NHC2H5CH3SH3FeSHFeHSFeSHCS2HCFeCHCHC4HC6H4C2SH2CH3CHNCHCH3CH7SCHSHCH3CH2CFeCH4CH3FeH3C4H5CHCH5SCH4NC2H2CH2CH4
_chemical_formula_sum              "Fe96 S192 H1152 C672 N48"
_cell_length_a       63.1921
_cell_length_b       49.7106
_cell_length_c       31.7529
_cell_angle_alpha    89.9949
_cell_angle_beta     89.6983
_cell_angle_gamma    89.8172

_space_group_name_H-M_alt    "P 1"
_space_group_IT_number       1

loop_
  _space_group_symop_operation_xyz
  'x, y, z'

loop_
  _atom_site_type_symbol
  _atom_site_label
  _atom_site_symmetry_multiplicity
  _atom_site_fract_x
  _atom_site_fract_y
  _atom_site_fract_z
  _atom_site_occupancy
  Fe  Fe1       1.0  0.30997  0.36184  0.09403  1.0000
  S   S1        1.0  0.27421  0.35581  0.09639  1.0000
  H   H1        1.0  0.01690  0.02864  0.39794  1.0000
  S   S2        1.0  0.15973  0.35391  0.02312  1.0000
  S   S3        1.0  0.11758  0.41158  0.03515  1.0000
  S   S4        1.0  0.14365  0.28294  0.05253  1.0000
  Fe  Fe2       1.0  0.16700  0.09950  0.09629  1.0000
  S   S5        1.0  0.15586  0.09944  0.02984  1.0000
  S   S6        1.0  0.20250  0.10544  0.10580  1.0000
  Fe  Fe3       1.0  0.12152  0.09357  0.13209  1.0000
  S   S7        1.0  0.10826  0.09281  0.06616  1.0000
  S   S8        1.0  0.09339  0.08925  0.17837  1.0000
  Fe  Fe4       1.0  0.13510  0.06521  0.04980  1.0000
  C   C1        1.0  0.18740  0.41996  0.02137  1.0000
  Fe  Fe5       1.0  0.13026  0.12700  0.05261  1.0000
  C   C2        1.0  0.17812  0.45758  0.06795  1.0000
  S   S9        1.0  0.14748  0.06340  0.11595  1.0000
  S   S10       1.0  0.14235  0.12964  0.11869  1.0000
  H   H2        1.0  0.20821  0.17105  0.09699  1.0000
  Fe  Fe6       1.0  0.01929  0.11560  0.38474  1.0000
  S   S11       1.0  0.05299  0.12001  0.35806  1.0000
  S   S12       1.0  0.01467  0.11338  0.45538  1.0000
  C   C3        1.0  0.08276  0.09756  0.22901  1.0000
  C   C4        1.0  0.06130  0.09200  0.23746  1.0000
  C   C5        1.0  0.05187  0.09887  0.27648  1.0000
  C   C6        1.0  0.06383  0.11135  0.30781  1.0000
  C   C7        1.0  0.08534  0.11674  0.29952  1.0000
  C   C8        1.0  0.09476  0.10991  0.26046  1.0000
  H   H3        1.0  0.05183  0.08244  0.21346  1.0000
  H   H4        1.0  0.03534  0.09451  0.28225  1.0000
  H   H5        1.0  0.09481  0.12626  0.32354  1.0000
  H   H6        1.0  0.11130  0.11415  0.25473  1.0000
  C   C9        1.0  0.22113  0.10347  0.06366  1.0000
  C   C10       1.0  0.24206  0.11207  0.07013  1.0000
  C   C11       1.0  0.25710  0.11147  0.03709  1.0000
  H   H7        1.0  0.29663  0.25482  0.04519  1.0000
  C   C12       1.0  0.21553  0.09386  0.02382  1.0000
  H   H8        1.0  0.24662  0.11949  0.10080  1.0000
  H   H9        1.0  0.27305  0.11843  0.04252  1.0000
  C   C13       1.0  0.08004  0.21641  0.09141  1.0000
  C   C14       1.0  0.12444  0.44541  0.02581  1.0000
  H   H10       1.0  0.03744  0.04617  0.44539  1.0000
  C   C15       1.0  0.12881  0.24232  0.00117  1.0000
  C   C16       1.0  0.14172  0.47992  0.98408  1.0000
  H   H11       1.0  0.12246  0.00477  0.07996  1.0000
  H   H12       1.0  0.10952  0.45949  0.08297  1.0000
  C   C17       1.0  0.13689  0.24942  0.04049  1.0000
  C   C18       1.0  0.12672  0.19532  0.02321  1.0000
  C   C19       1.0  0.13487  0.20239  0.06253  1.0000
  C   C20       1.0  0.13985  0.22939  0.07116  1.0000
  H   H13       1.0  0.13753  0.18708  0.08608  1.0000
  H   H14       1.0  0.14619  0.23479  0.10159  1.0000
  C   C21       1.0  0.29686  0.05388  0.09147  1.0000
  H   H15       1.0  0.06529  0.19343  0.22045  1.0000
  H   H16       1.0  0.03056  0.99843  0.38116  1.0000
  H   H17       1.0  0.25845  0.30756  0.00939  1.0000
  C   C22       1.0  0.25618  0.35726  0.05376  1.0000
  C   C23       1.0  0.23515  0.34922  0.06077  1.0000
  C   C24       1.0  0.22010  0.35028  0.02826  1.0000
  H   H18       1.0  0.23040  0.41385  0.01975  1.0000
  C   C25       1.0  0.26205  0.36631  0.01362  1.0000
  H   H19       1.0  0.23046  0.34203  0.09160  1.0000
  H   H20       1.0  0.20410  0.34371  0.03426  1.0000
  C   C26       1.0  0.02668  0.01950  0.37266  1.0000
  N   N1        1.0  0.06208  0.03950  0.39833  1.0000
  C   C27       1.0  0.05113  0.05680  0.43102  1.0000
  H   H21       1.0  0.20111  0.39602  0.09023  1.0000
  N   N2        1.0  0.19318  0.43432  0.06159  1.0000
  H   H22       1.0  0.30879  0.04223  0.10939  1.0000
  H   H23       1.0  0.06284  0.21496  0.14978  1.0000
  H   H24       1.0  0.07649  0.13547  0.05255  1.0000
  C   C28       1.0  0.02418  0.34095  0.46363  1.0000
  H   H25       1.0  0.21665  0.46159  0.03584  1.0000
  C   C29       1.0  0.12368  0.98992  0.05516  1.0000
  C   C30       1.0  0.28151  0.26497  0.03701  1.0000
  H   H26       1.0  0.06406  0.46498  0.98564  1.0000
  C   C31       1.0  0.25139  0.10209  0.99717  1.0000
  C   C32       1.0  0.30052  0.29950  0.99663  1.0000
  H   H27       1.0  0.08388  0.20421  0.06312  1.0000
  H   H28       1.0  0.16961  0.38345  0.11806  1.0000
  N   N3        1.0  0.19566  0.18013  0.99020  1.0000
  C   C33       1.0  0.29469  0.04361  0.04589  1.0000
  H   H29       1.0  0.25270  0.05343  0.04420  1.0000
  H   H30       1.0  0.05227  0.16362  0.23645  1.0000
  H   H31       1.0  0.01658  0.01875  0.34415  1.0000
  H   H32       1.0  0.27366  0.99075  0.99039  1.0000
  H   H33       1.0  0.16828  0.15778  0.01166  1.0000
  H   H34       1.0  0.20097  0.00504  0.03693  1.0000
  H   H35       1.0  0.01999  0.39277  0.45644  1.0000
  C   C34       1.0  0.08169  0.05425  0.38362  1.0000
  Fe  Fe7       1.0  0.14200  0.31671  0.00439  1.0000
  S   S13       1.0  0.32024  0.11224  0.02207  1.0000
  H   H36       1.0  0.25758  0.99258  0.05596  1.0000
  C   C35       1.0  0.06782  0.01316  0.41889  1.0000
  C   C36       1.0  0.04674  0.03599  0.36246  1.0000
  S   S14       1.0  0.33106  0.33088  0.12475  1.0000
  H   H37       1.0  0.16148  0.45072  0.06674  1.0000
  C   C37       1.0  0.24678  0.03290  0.04949  1.0000
  H   H38       1.0  0.17588  0.01094  0.06170  1.0000
  S   S15       1.0  0.32704  0.39658  0.12447  1.0000
  C   C38       1.0  0.23290  0.42428  0.05004  1.0000
  H   H39       1.0  0.22216  0.18994  0.03058  1.0000
  H   H40       1.0  0.09483  0.22471  0.10476  1.0000
  C   C39       1.0  0.23054  0.09324  0.99084  1.0000
  H   H41       1.0  0.18840  0.13742  0.98953  1.0000
  H   H42       1.0  0.26557  0.01330  0.09722  1.0000
  H   H43       1.0  0.31069  0.04454  0.03095  1.0000
  S   S16       1.0  0.32880  0.36327  0.03415  1.0000
  C   C40       1.0  0.19172  0.41449  0.09746  1.0000
  C   C41       1.0  0.26203  0.29164  0.98588  1.0000
  C   C42       1.0  0.27639  0.28333  0.07498  1.0000
  C   C43       1.0  0.16913  0.40510  0.10931  1.0000
  C   C44       1.0  0.18323  0.20596  0.99380  1.0000
  C   C45       1.0  0.18057  0.47359  0.10923  1.0000
  H   H44       1.0  0.17875  0.46080  0.13757  1.0000
  H   H45       1.0  0.17026  0.41498  0.02097  1.0000
  H   H46       1.0  0.15739  0.40694  0.08379  1.0000
  H   H47       1.0  0.04450  0.07525  0.41617  1.0000
  H   H48       1.0  0.23440  0.40924  0.07566  1.0000
  H   H49       1.0  0.04166  0.05604  0.35026  1.0000
  C   C46       1.0  0.19695  0.17604  0.07136  1.0000
  H   H50       1.0  0.07046  0.23381  0.08047  1.0000
  Fe  Fe8       1.0  0.13240  0.37751  0.99780  1.0000
  H   H51       1.0  0.10589  0.05783  0.33500  1.0000
  C   C47       1.0  0.19610  0.23160  0.00312  1.0000
  H   H52       1.0  0.21985  0.45446  0.09006  1.0000
  C   C48       1.0  0.18407  0.99923  0.03658  1.0000
  H   H53       1.0  0.24840  0.43464  0.04761  1.0000
  H   H54       1.0  0.30259  0.07498  0.09065  1.0000
  H   H55       1.0  0.19028  0.19619  0.07844  1.0000
  H   H56       1.0  0.03898  0.18706  0.20185  1.0000
  H   H57       1.0  0.19560  0.40018  0.01902  1.0000
  H   H58       1.0  0.08131  0.43663  0.98910  1.0000
  H   H59       1.0  0.01027  0.22185  0.46803  1.0000
  C   C49       1.0  0.18027  0.15717  0.98589  1.0000
  H   H60       1.0  0.07982  0.01637  0.44386  1.0000
  H   H61       1.0  0.18419  0.16082  0.07300  1.0000
  H   H62       1.0  0.07038  0.99077  0.35821  1.0000
  H   H63       1.0  0.31712  0.00025  0.05208  1.0000
  H   H64       1.0  0.27735  0.27125  0.10436  1.0000
  H   H65       1.0  0.05411  0.02595  0.33490  1.0000
  H   H66       1.0  0.19893  0.42315  0.12636  1.0000
  C   C50       1.0  0.21541  0.44515  0.05954  1.0000
  C   C51       1.0  0.09058  0.04726  0.33957  1.0000
  H   H67       1.0  0.24907  0.27659  0.98900  1.0000
  N   N4        1.0  0.28556  0.01573  0.04113  1.0000
  H   H68       1.0  0.28798  0.29989  0.07820  1.0000
  H   H69       1.0  0.23818  0.02590  0.02116  1.0000
  H   H70       1.0  0.19969  0.08665  0.01838  1.0000
  H   H71       1.0  0.06126  0.16501  0.06018  1.0000
  H   H72       1.0  0.28536  0.05906  0.02890  1.0000
  H   H73       1.0  0.07875  0.07634  0.38264  1.0000
  H   H74       1.0  0.30058  0.99929  0.09714  1.0000
  C   C52       1.0  0.12837  0.99801  0.01398  1.0000
  C   C53       1.0  0.22578  0.35974  0.98829  1.0000
  H   H75       1.0  0.09364  0.02556  0.33519  1.0000
  C   C54       1.0  0.26424  0.01284  0.06225  1.0000
  C   C55       1.0  0.12362  0.21536  0.99269  1.0000
  H   H76       1.0  0.16327  0.41585  0.13774  1.0000
  H   H77       1.0  0.17666  0.00558  0.00656  1.0000
  S   S17       1.0  0.12029  0.16176  0.01095  1.0000
  H   H78       1.0  0.27816  0.37263  0.00774  1.0000
  H   H79       1.0  0.05652  0.13526  0.09227  1.0000
  C   C56       1.0  0.11851  0.46516  0.05527  1.0000
  C   C57       1.0  0.30060  0.99638  0.06239  1.0000
  N   N5        1.0  0.07833  0.17632  0.14284  1.0000
  C   C58       1.0  0.08569  0.15723  0.10883  1.0000
  C   C59       1.0  0.09754  0.18582  0.16665  1.0000
  C   C60       1.0  0.06722  0.20043  0.12447  1.0000
  C   C61       1.0  0.06302  0.16161  0.17107  1.0000
  H   H80       1.0  0.05415  0.00450  0.43658  1.0000
  C   C62       1.0  0.10719  0.16542  0.19770  1.0000
  C   C63       1.0  0.00547  0.39581  0.47570  1.0000
  C   C64       1.0  0.05445  0.17756  0.20936  1.0000
  H   H81       1.0  0.09893  0.16602  0.09033  1.0000
  H   H82       1.0  0.09239  0.13860  0.12292  1.0000
  H   H83       1.0  0.09419  0.20459  0.18461  1.0000
  H   H84       1.0  0.11046  0.19157  0.14445  1.0000
  H   H85       1.0  0.05186  0.19466  0.11010  1.0000
  H   H86       1.0  0.23527  0.03515  0.07586  1.0000
  H   H87       1.0  0.04883  0.15523  0.15311  1.0000
  H   H88       1.0  0.06976  0.14223  0.18236  1.0000
  C   C65       1.0  0.06874  0.14803  0.07714  1.0000
  H   H89       1.0  0.07998  0.05471  0.31429  1.0000
  H   H90       1.0  0.26010  0.29164  0.07382  1.0000
  H   H91       1.0  0.11004  0.14556  0.18295  1.0000
  H   H92       1.0  0.12269  0.17301  0.20889  1.0000
  H   H93       1.0  0.09696  0.16283  0.22588  1.0000
  H   H94       1.0  0.28147  0.05412  0.10840  1.0000
  N   N6        1.0  0.28318  0.27866  0.99462  1.0000
  C   C66       1.0  0.13605  0.45287  0.99013  1.0000
  H   H95       1.0  0.17965  0.47249  0.04201  1.0000
  H   H96       1.0  0.30524  0.22499  0.99446  1.0000
  H   H97       1.0  0.02984  0.32068  0.47333  1.0000
  S   S18       1.0  0.13364  0.03188  0.00127  1.0000
  H   H98       1.0  0.07814  0.07918  0.45807  1.0000
  C   C67       1.0  0.06482  0.06624  0.46834  1.0000
  S   S19       1.0  0.11332  0.34041  0.98574  1.0000
  H   H99       1.0  0.18489  0.24879  0.00650  1.0000
  H   H100      1.0  0.27254  0.47997  0.10461  1.0000
  C   C68       1.0  0.28441  0.00820  0.99506  1.0000
  H   H101      1.0  0.17096  0.20427  0.01864  1.0000
  H   H102      1.0  0.02181  0.34039  0.42910  1.0000
  H   H103      1.0  0.07559  0.38685  0.98846  1.0000
  C   C69       1.0  0.20892  0.17531  0.02884  1.0000
  H   H104      1.0  0.09485  0.05150  0.40645  1.0000
  H   H105      1.0  0.20490  0.23025  0.03311  1.0000
  H   H106      1.0  0.26935  0.24876  0.03638  1.0000
  H   H107      1.0  0.03702  0.35520  0.47169  1.0000
  H   H108      1.0  0.31369  0.29208  0.01676  1.0000
  H   H109      1.0  0.29461  0.31813  0.01242  1.0000
  H   H110      1.0  0.00781  0.43899  0.46689  1.0000
  H   H111      1.0  0.21666  0.15522  0.02724  1.0000
  C   C70       1.0  0.07718  0.99108  0.39018  1.0000
  H   H112      1.0  0.32534  0.22834  0.09203  1.0000
  H   H113      1.0  0.09466  0.99292  0.38791  1.0000
  H   H114      1.0  0.33196  0.45499  0.09007  1.0000
  H   H115      1.0  0.30021  0.00145  0.98338  1.0000
  H   H116      1.0  0.23184  0.15960  0.91204  1.0000
  S   S20       1.0  0.20697  0.36251  0.94697  1.0000
  Fe  Fe9       1.0  0.12734  0.34167  0.92025  1.0000
  C   C71       1.0  0.06198  0.31399  0.58341  1.0000
  S   S21       1.0  0.10100  0.33181  0.87270  1.0000
  C   C72       1.0  0.07628  0.23842  0.65615  1.0000
  N   N7        1.0  0.06017  0.28621  0.65242  1.0000
  S   S22       1.0  0.14528  0.38026  0.93201  1.0000
  S   S23       1.0  0.15523  0.31518  0.93866  1.0000
  Fe  Fe10      1.0  0.30480  0.11036  0.95935  1.0000
  H   H117      1.0  0.23472  0.15180  0.96634  1.0000
  Fe  Fe11      1.0  0.02387  0.36794  0.67558  1.0000
  S   S24       1.0  0.05757  0.37252  0.70189  1.0000
  S   S25       1.0  0.01880  0.36786  0.60505  1.0000
  C   C73       1.0  0.03800  0.27747  0.64074  1.0000
  H   H118      1.0  0.22596  0.08581  0.96019  1.0000
  H   H119      1.0  0.04645  0.30654  0.57247  1.0000
  C   C74       1.0  0.08389  0.29872  0.71593  1.0000
  H   H120      1.0  0.02069  0.27277  0.70061  1.0000
  H   H121      1.0  0.01633  0.01116  0.55211  1.0000
  C   C75       1.0  0.08883  0.34523  0.82657  1.0000
  C   C76       1.0  0.09961  0.36184  0.79810  1.0000
  C   C77       1.0  0.08960  0.37049  0.76070  1.0000
  C   C78       1.0  0.06867  0.36292  0.75133  1.0000
  C   C79       1.0  0.05773  0.34684  0.78029  1.0000
  C   C80       1.0  0.06784  0.33787  0.81736  1.0000
  H   H122      1.0  0.11584  0.36737  0.80425  1.0000
  H   H123      1.0  0.09830  0.38276  0.73846  1.0000
  H   H124      1.0  0.04166  0.34079  0.77371  1.0000
  H   H125      1.0  0.05935  0.32492  0.83898  1.0000
  H   H126      1.0  0.17766  0.15343  0.91650  1.0000
  Fe  Fe12      1.0  0.17176  0.35374  0.95688  1.0000
  H   H127      1.0  0.22206  0.19807  0.95695  1.0000
  C   C81       1.0  0.07099  0.38514  0.95481  1.0000
  H   H128      1.0  0.05028  0.30563  0.71028  1.0000
  H   H129      1.0  0.10941  0.44453  0.91561  1.0000
  H   H130      1.0  0.13324  0.98476  0.95003  1.0000
  C   C82       1.0  0.28730  0.25695  0.96231  1.0000
  H   H131      1.0  0.02768  0.29527  0.63526  1.0000
  H   H132      1.0  0.27492  0.02119  0.93242  1.0000
  H   H133      1.0  0.09260  0.27485  0.63900  1.0000
  H   H134      1.0  0.07416  0.26307  0.60151  1.0000
  C   C83       1.0  0.02548  0.26043  0.67297  1.0000
  H   H135      1.0  0.08041  0.32056  0.63859  1.0000
  H   H136      1.0  0.08324  0.29963  0.75089  1.0000
  H   H137      1.0  0.06472  0.43314  0.84266  1.0000
  S   S26       1.0  0.32954  0.08252  0.93227  1.0000
  H   H138      1.0  0.03798  0.26634  0.61026  1.0000
  H   H139      1.0  0.08959  0.46694  0.96202  1.0000
  C   C84       1.0  0.22284  0.15634  0.94174  1.0000
  H   H140      1.0  0.05318  0.32858  0.64493  1.0000
  H   H141      1.0  0.06150  0.22746  0.64905  1.0000
  S   S27       1.0  0.32107  0.14730  0.93404  1.0000
  H   H142      1.0  0.01721  0.26763  0.49664  1.0000
  N   N8        1.0  0.08014  0.42361  0.90157  1.0000
  H   H143      1.0  0.08946  0.22635  0.64247  1.0000
  H   H144      1.0  0.31118  0.22847  0.93994  1.0000
  C   C85       1.0  0.16748  0.15627  0.94465  1.0000
  H   H145      1.0  0.12950  0.43693  0.85434  1.0000
  H   H146      1.0  0.10761  0.42588  0.82375  1.0000
  H   H147      1.0  0.08842  0.31914  0.70524  1.0000
  H   H148      1.0  0.07889  0.23917  0.69061  1.0000
  H   H149      1.0  0.09429  0.38407  0.90503  1.0000
  H   H150      1.0  0.05129  0.37875  0.88123  1.0000
  H   H151      1.0  0.14069  0.43784  0.96727  1.0000
  H   H152      1.0  0.02084  0.46683  0.57535  1.0000
  C   C86       1.0  0.06195  0.29019  0.69944  1.0000
  C   C87       1.0  0.07636  0.26651  0.63584  1.0000
  S   S28       1.0  0.00276  0.33223  0.68562  1.0000
  H   H153      1.0  0.07102  0.36327  0.94742  1.0000
  H   H154      1.0  0.05100  0.43341  0.93570  1.0000
  C   C88       1.0  0.11438  0.42561  0.85595  1.0000
  H   H155      1.0  0.09471  0.45910  0.87388  1.0000
  H   H156      1.0  0.05790  0.27161  0.71703  1.0000
  H   H157      1.0  0.26180  0.29152  0.91589  1.0000
  H   H158      1.0  0.06328  0.33523  0.57283  1.0000
  H   H159      1.0  0.01064  0.25335  0.65797  1.0000
  H   H160      1.0  0.15730  0.17430  0.94079  1.0000
  C   C89       1.0  0.21009  0.18200  0.95239  1.0000
  H   H161      1.0  0.26970  0.32330  0.93988  1.0000
  H   H162      1.0  0.06187  0.46033  0.90755  1.0000
  C   C90       1.0  0.04805  0.39900  0.86806  1.0000
  H   H163      1.0  0.03589  0.40971  0.88689  1.0000
  C   C91       1.0  0.00531  0.25518  0.51145  1.0000
  H   H164      1.0  0.07489  0.30267  0.56750  1.0000
  H   H165      1.0  0.10080  0.40519  0.94755  1.0000
  H   H166      1.0  0.11832  0.40466  0.86483  1.0000
  H   H167      1.0  0.26266  0.04054  0.97309  1.0000
  H   H168      1.0  0.11725  0.21002  0.96225  1.0000
  H   H169      1.0  0.07876  0.40211  0.84225  1.0000
  H   H170      1.0  0.03417  0.24246  0.68397  1.0000
  C   C92       1.0  0.06859  0.41518  0.86224  1.0000
  C   C93       1.0  0.00945  0.47658  0.55508  1.0000
  H   H171      1.0  0.17434  0.21011  0.96436  1.0000
  C   C94       1.0  0.09942  0.43944  0.88800  1.0000
  C   C95       1.0  0.06421  0.31313  0.63185  1.0000
  H   H172      1.0  0.24286  0.31292  0.94026  1.0000
  H   H173      1.0  0.09649  0.28406  0.70777  1.0000
  C   C96       1.0  0.08750  0.39951  0.92649  1.0000
  C   C97       1.0  0.07615  0.45314  0.96807  1.0000
  H   H174      1.0  0.04102  0.39547  0.83650  1.0000
  H   H175      1.0  0.05450  0.39211  0.95174  1.0000
  H   H176      1.0  0.30155  0.30463  0.92596  1.0000
  C   C98       1.0  0.06633  0.44250  0.92692  1.0000
  H   H177      1.0  0.32676  0.29809  0.95091  1.0000
  H   H178      1.0  0.12642  0.25762  0.97739  1.0000
  S   S29       1.0  0.26951  0.10120  0.95420  1.0000
  C   C99       1.0  0.00407  0.99834  0.53968  1.0000
  H   H179      1.0  0.25148  0.37498  0.95035  1.0000
  H   H180      1.0  0.28835  0.26504  0.92994  1.0000
  C   C100      1.0  0.25939  0.30539  0.94277  1.0000
  H   H181      1.0  0.20112  0.18808  0.92382  1.0000
  S   S30       1.0  0.99990  0.29874  0.56622  1.0000
  H   H182      1.0  0.15661  0.13873  0.94598  1.0000
  H   H183      1.0  0.21268  0.13853  0.93667  1.0000
  C   C101      1.0  0.31103  0.30797  0.95453  1.0000
  H   H184      1.0  0.01092  0.39896  0.50873  1.0000
  H   H185      1.0  0.27376  0.24265  0.96134  1.0000
  H   H186      1.0  0.31442  0.32988  0.95563  1.0000
  H   H187      1.0  0.00797  0.34956  0.52176  1.0000
  C   C102      1.0  0.00139  0.22904  0.49501  1.0000
  C   C103      1.0  0.00360  0.34743  0.48803  1.0000
  H   H188      1.0  0.32143  0.25269  0.97605  1.0000
  H   H189      1.0  0.29017  0.04557  0.95976  1.0000
  C   C104      1.0  0.30750  0.24005  0.96901  1.0000
  C   C105      1.0  0.27751  0.03032  0.96389  1.0000
  H   H190      1.0  0.07074  0.04919  0.48746  1.0000
  H   H191      1.0  0.05478  0.07870  0.48964  1.0000
  H   H192      1.0  0.18585  0.42308  0.95328  1.0000
  C   C106      1.0  0.24688  0.36762  0.98113  1.0000
  H   H193      1.0  0.18365  0.45495  0.97873  1.0000
  H   H194      1.0  0.20701  0.23673  0.97691  1.0000
  C   C107      1.0  0.19186  0.43528  0.97999  1.0000
  H   H195      1.0  0.20901  0.43812  0.97418  1.0000
  Fe  Fe13      1.0  0.31214  0.86527  0.08820  1.0000
  S   S31       1.0  0.27647  0.86031  0.09863  1.0000
  C   C108      1.0  0.11762  0.69367  0.17163  1.0000
  H   H196      1.0  0.18953  0.71021  0.05680  1.0000
  H   H197      1.0  0.29721  0.80590  0.10775  1.0000
  S   S32       1.0  0.14518  0.78049  0.05086  1.0000
  Fe  Fe14      1.0  0.17163  0.60854  0.08877  1.0000
  S   S33       1.0  0.15590  0.60566  0.02634  1.0000
  S   S34       1.0  0.20605  0.62204  0.09209  1.0000
  Fe  Fe15      1.0  0.13006  0.59378  0.13670  1.0000
  S   S35       1.0  0.11199  0.58941  0.07602  1.0000
  S   S36       1.0  0.11591  0.58567  0.20252  1.0000
  Fe  Fe16      1.0  0.14103  0.56779  0.05152  1.0000
  H   H198      1.0  0.29843  0.96026  0.02150  1.0000
  Fe  Fe17      1.0  0.12888  0.62746  0.05692  1.0000
  C   C109      1.0  0.12073  0.96244  0.06425  1.0000
  S   S37       1.0  0.15831  0.56950  0.11313  1.0000
  S   S38       1.0  0.14541  0.63302  0.11858  1.0000
  S   S39       1.0  0.31490  0.61983  0.02536  1.0000
  H   H199      1.0  0.17278  0.67745  0.01800  1.0000
  S   S40       1.0  0.03368  0.62651  0.30451  1.0000
  S   S41       1.0  0.01720  0.61872  0.43309  1.0000
  C   C110      1.0  0.09240  0.59630  0.22957  1.0000
  C   C111      1.0  0.08881  0.58752  0.27121  1.0000
  C   C112      1.0  0.07081  0.59604  0.29438  1.0000
  C   C113      1.0  0.05621  0.61382  0.27639  1.0000
  C   C114      1.0  0.05963  0.62230  0.23452  1.0000
  C   C115      1.0  0.07743  0.61338  0.21113  1.0000
  H   H200      1.0  0.10018  0.57421  0.28586  1.0000
  H   H201      1.0  0.06850  0.58927  0.32645  1.0000
  H   H202      1.0  0.04838  0.63583  0.22005  1.0000
  H   H203      1.0  0.07969  0.61975  0.17892  1.0000
  C   C116      1.0  0.22393  0.62240  0.04874  1.0000
  C   C117      1.0  0.24360  0.63507  0.05354  1.0000
  C   C118      1.0  0.25855  0.63533  0.02049  1.0000
  H   H204      1.0  0.20413  0.60042  0.00591  1.0000
  C   C119      1.0  0.21922  0.61025  0.01011  1.0000
  H   H205      1.0  0.24737  0.64467  0.08315  1.0000
  H   H206      1.0  0.27351  0.64543  0.02470  1.0000
  H   H207      1.0  0.09982  0.76420  0.16512  1.0000
  H   H208      1.0  0.07890  0.73042  0.12311  1.0000
  C   C120      1.0  0.13621  0.49961  0.01397  1.0000
  H   H209      1.0  0.29915  0.76971  0.11175  1.0000
  C   C121      1.0  0.25510  0.78991  0.01214  1.0000
  H   H210      1.0  0.12020  0.50721  0.07276  1.0000
  H   H211      1.0  0.11722  0.95624  0.09618  1.0000
  C   C122      1.0  0.13642  0.74758  0.04069  1.0000
  C   C123      1.0  0.12234  0.69438  0.02881  1.0000
  C   C124      1.0  0.13802  0.69992  0.05838  1.0000
  C   C125      1.0  0.14477  0.72646  0.06477  1.0000
  H   H212      1.0  0.14484  0.68383  0.07665  1.0000
  H   H213      1.0  0.15656  0.73069  0.08843  1.0000
  H   H214      1.0  0.12332  0.68674  0.14029  1.0000
  C   C126      1.0  0.20069  0.69707  0.03915  1.0000
  H   H215      1.0  0.16363  0.96492  0.04307  1.0000
  H   H216      1.0  0.18495  0.96583  0.07879  1.0000
  C   C127      1.0  0.25742  0.86125  0.05749  1.0000
  C   C128      1.0  0.23619  0.85500  0.06674  1.0000
  C   C129      1.0  0.22076  0.85448  0.03477  1.0000
  H   H217      1.0  0.07807  0.67006  0.18782  1.0000
  C   C130      1.0  0.26295  0.86725  0.01578  1.0000
  H   H218      1.0  0.23167  0.85031  0.09882  1.0000
  H   H219      1.0  0.20459  0.84942  0.04249  1.0000
  C   C131      1.0  0.28827  0.78708  0.11342  1.0000
  C   C132      1.0  0.06854  0.73305  0.21241  1.0000
  H   H220      1.0  0.02065  0.56128  0.15367  1.0000
  C   C133      1.0  0.09533  0.72527  0.13265  1.0000
  H   H221      1.0  0.06338  0.74178  0.18213  1.0000
  Fe  Fe18      1.0  0.01307  0.61520  0.36229  1.0000
  H   H222      1.0  0.07063  0.65143  0.11810  1.0000
  C   C134      1.0  0.10729  0.75184  0.14004  1.0000
  H   H223      1.0  0.03153  0.87071  0.46252  1.0000
  H   H224      1.0  0.20363  0.91780  0.08668  1.0000
  H   H225      1.0  0.12916  0.70931  0.18139  1.0000
  C   C135      1.0  0.26873  0.49134  0.07546  1.0000
  H   H226      1.0  0.16849  0.91938  0.01900  1.0000
  H   H227      1.0  0.10235  0.71618  0.10380  1.0000
  H   H228      1.0  0.10284  0.73309  0.21993  1.0000
  C   C136      1.0  0.12279  0.94294  0.03243  1.0000
  H   H229      1.0  0.26501  0.52656  0.11359  1.0000
  H   H230      1.0  0.06342  0.69294  0.15707  1.0000
  C   C137      1.0  0.18553  0.92167  0.02738  1.0000
  H   H231      1.0  0.29267  0.72871  0.07932  1.0000
  S   S42       1.0  0.12054  0.90859  0.04559  1.0000
  H   H232      1.0  0.10679  0.76403  0.11069  1.0000
  H   H233      1.0  0.08243  0.67916  0.09144  1.0000
  H   H234      1.0  0.28081  0.95964  0.06693  1.0000
  H   H235      1.0  0.03545  0.56571  0.22057  1.0000
  H   H236      1.0  0.28980  0.81849  0.03063  1.0000
  H   H237      1.0  0.31045  0.74952  0.04894  1.0000
  H   H238      1.0  0.18824  0.74335  0.00662  1.0000
  C   C138      1.0  0.27833  0.53203  0.00923  1.0000
  H   H239      1.0  0.32282  0.50273  0.10395  1.0000
  C   C139      1.0  0.27689  0.75069  0.02808  1.0000
  H   H240      1.0  0.30725  0.79189  0.04149  1.0000
  H   H241      1.0  0.03086  0.56746  0.27680  1.0000
  H   H242      1.0  0.28945  0.57192  0.05306  1.0000
  H   H243      1.0  0.99945  0.89333  0.40903  1.0000
  H   H244      1.0  0.27961  0.56804  0.12695  1.0000
  H   H245      1.0  0.05613  0.71894  0.22368  1.0000
  C   C140      1.0  0.00878  0.57758  0.15814  1.0000
  H   H246      1.0  0.18548  0.89110  0.07649  1.0000
  C   C141      1.0  0.29650  0.96609  0.05504  1.0000
  H   H247      1.0  0.25196  0.48731  0.06787  1.0000
  H   H248      1.0  0.28997  0.52398  0.08950  1.0000
  C   C142      1.0  0.12457  0.49216  0.04963  1.0000
  H   H249      1.0  0.27910  0.87235  0.00800  1.0000
  Fe  Fe19      1.0  0.14133  0.81512  0.00480  1.0000
  H   H250      1.0  0.02295  0.82320  0.46181  1.0000
  H   H251      1.0  0.23888  0.51908  0.02266  1.0000
  H   H252      1.0  0.22551  0.91673  0.98827  1.0000
  C   C143      1.0  0.08326  0.66683  0.12049  1.0000
  H   H253      1.0  0.23479  0.91774  0.04199  1.0000
  S   S43       1.0  0.15909  0.85171  0.02555  1.0000
  H   H254      1.0  0.00612  0.78377  0.45589  1.0000
  H   H255      1.0  0.22885  0.78717  0.05852  1.0000
  C   C144      1.0  0.23314  0.77974  0.02664  1.0000
  C   C145      1.0  0.18086  0.96892  0.04509  1.0000
  H   H256      1.0  0.09853  0.65583  0.12122  1.0000
  H   H257      1.0  0.27700  0.74655  0.99362  1.0000
  C   C146      1.0  0.09029  0.71877  0.20997  1.0000
  S   S44       1.0  0.32384  0.86356  0.02212  1.0000
  H   H258      1.0  0.25212  0.57593  0.11568  1.0000
  H   H259      1.0  0.27234  0.60005  0.10664  1.0000
  H   H260      1.0  0.11628  0.67511  0.23534  1.0000
  S   S45       1.0  0.11260  0.66147  0.02231  1.0000
  H   H261      1.0  0.22220  0.97176  0.00746  1.0000
  C   C147      1.0  0.12043  0.66986  0.20243  1.0000
  C   C148      1.0  0.22697  0.54283  0.07481  1.0000
  H   H262      1.0  0.26303  0.73909  0.03970  1.0000
  H   H263      1.0  0.06952  0.75027  0.23462  1.0000
  H   H264      1.0  0.07331  0.97105  0.40369  1.0000
  C   C149      1.0  0.26924  0.78495  0.08336  1.0000
  H   H265      1.0  0.11140  0.65188  0.19253  1.0000
  H   H266      1.0  0.12423  0.74841  0.14725  1.0000
  H   H267      1.0  0.30855  0.95434  0.07265  1.0000
  H   H268      1.0  0.25868  0.76895  0.09603  1.0000
  H   H269      1.0  0.09000  0.70370  0.23586  1.0000
  N   N9        1.0  0.27395  0.78025  0.03721  1.0000
  H   H270      1.0  0.20800  0.68289  0.06198  1.0000
  C   C150      1.0  0.27228  0.56870  0.05916  1.0000
  C   C151      1.0  0.26864  0.57824  0.10486  1.0000
  H   H271      1.0  0.23233  0.53517  0.10558  1.0000
  H   H272      1.0  0.17531  0.92266  0.09371  1.0000
  C   C152      1.0  0.07946  0.68391  0.16042  1.0000
  H   H273      1.0  0.13735  0.66374  0.20257  1.0000
  H   H274      1.0  0.26043  0.80424  0.08769  1.0000
  C   C153      1.0  0.29275  0.79684  0.02355  1.0000
  N   N10       1.0  0.09564  0.70543  0.16865  1.0000
  H   H275      1.0  0.22095  0.78794  0.00496  1.0000
  Fe  Fe20      1.0  0.13186  0.87585  0.00104  1.0000
  H   H276      1.0  0.21220  0.53159  0.06806  1.0000
  H   H277      1.0  0.19576  0.48463  0.11035  1.0000
  H   H278      1.0  0.03965  0.53694  0.25315  1.0000
  C   C154      1.0  0.18779  0.91317  0.07387  1.0000
  H   H279      1.0  0.24674  0.93794  0.00279  1.0000
  H   H280      1.0  0.00177  0.53724  0.27500  1.0000
  H   H281      1.0  0.27297  0.51215  0.99734  1.0000
  H   H282      1.0  0.28230  0.78832  0.14634  1.0000
  C   C155      1.0  0.11395  0.71550  0.00466  1.0000
  N   N11       1.0  0.26614  0.54021  0.04833  1.0000
  C   C156      1.0  0.29632  0.73665  0.04740  1.0000
  S   S46       1.0  0.14448  0.53303  0.00534  1.0000
  H   H283      1.0  0.25423  0.81222  0.01239  1.0000
  C   C157      1.0  0.18896  0.68075  0.00525  1.0000
  N   N12       1.0  0.19303  0.94973  0.01700  1.0000
  C   C158      1.0  0.24285  0.53842  0.03838  1.0000
  H   H284      1.0  0.23193  0.75754  0.02555  1.0000
  C   C159      1.0  0.21638  0.95371  0.02472  1.0000
  H   H285      1.0  0.19579  0.66007  0.00503  1.0000
  H   H286      1.0  0.00395  0.58521  0.12673  1.0000
  H   H287      1.0  0.01636  0.59500  0.17343  1.0000
  C   C160      1.0  0.23123  0.92996  0.01357  1.0000
  H   H288      1.0  0.21913  0.95780  0.05877  1.0000
  C   C161      1.0  0.12113  0.74204  0.01024  1.0000
  C   C162      1.0  0.27275  0.52150  0.08324  1.0000
  C   C163      1.0  0.22632  0.86032  0.99302  1.0000
  H   H289      1.0  0.21395  0.70924  0.02704  1.0000
  S   S47       1.0  0.33099  0.90230  0.10420  1.0000
  H   H290      1.0  0.26392  0.58306  0.03843  1.0000
  H   H291      1.0  0.22276  0.56447  0.07784  1.0000
  H   H292      1.0  0.19374  0.90611  0.00844  1.0000
  H   H293      1.0  0.11459  0.75826  0.99158  1.0000
  C   C164      1.0  0.02927  0.55474  0.24827  1.0000
  H   H294      1.0  0.23851  0.55372  0.01433  1.0000
  H   H295      1.0  0.00637  0.52773  0.22182  1.0000
  C   C165      1.0  0.12717  0.95111  0.99120  1.0000
  H   H296      1.0  0.30116  0.71949  0.02703  1.0000
  H   H297      1.0  0.16781  0.48905  0.11075  1.0000
  S   S48       1.0  0.11255  0.83901  0.98644  1.0000
  C   C166      1.0  0.00616  0.54540  0.24338  1.0000
  C   C167      1.0  0.24753  0.86663  0.98379  1.0000
  H   H298      1.0  0.01093  0.60041  0.23906  1.0000
  H   H299      1.0  0.29548  0.52951  0.01638  1.0000
  H   H300      1.0  0.00020  0.89443  0.46483  1.0000
  H   H301      1.0  0.00148  0.84758  0.41275  1.0000
  S   S49       1.0  0.33171  0.55143  0.05938  1.0000
  H   H302      1.0  0.27927  0.48321  0.05040  1.0000
  H   H303      1.0  0.15135  0.64665  0.91863  1.0000
  H   H304      1.0  0.03187  0.60991  0.52987  1.0000
  Fe  Fe21      1.0  0.12752  0.84172  0.92167  1.0000
  H   H305      1.0  0.02980  0.51049  0.54129  1.0000
  S   S50       1.0  0.10688  0.82822  0.86554  1.0000
  H   H306      1.0  0.25205  0.87132  0.95170  1.0000
  H   H307      1.0  0.02710  0.74769  0.53753  1.0000
  S   S51       1.0  0.14553  0.88013  0.93573  1.0000
  S   S52       1.0  0.15545  0.81528  0.93988  1.0000
  C   C168      1.0  0.00770  0.63940  0.54975  1.0000
  S   S53       1.0  0.27280  0.62234  0.94022  1.0000
  Fe  Fe22      1.0  0.01997  0.86581  0.68048  1.0000
  S   S54       1.0  0.04927  0.87884  0.71850  1.0000
  S   S55       1.0  0.01705  0.86267  0.60953  1.0000
  H   H308      1.0  0.03215  0.87368  0.88052  1.0000
  H   H309      1.0  0.04359  0.85726  0.83696  1.0000
  H   H310      1.0  0.00573  0.91622  0.80166  1.0000
  C   C169      1.0  0.01452  0.50150  0.53553  1.0000
  C   C170      1.0  0.27700  0.55150  0.97143  1.0000
  H   H311      1.0  0.23047  0.60095  0.94730  1.0000
  C   C171      1.0  0.09100  0.84301  0.82501  1.0000
  C   C172      1.0  0.08953  0.87085  0.81871  1.0000
  C   C173      1.0  0.07686  0.88134  0.78587  1.0000
  C   C174      1.0  0.06517  0.86431  0.75921  1.0000
  C   C175      1.0  0.06660  0.83650  0.76559  1.0000
  C   C176      1.0  0.07943  0.82599  0.79813  1.0000
  H   H312      1.0  0.09835  0.88428  0.83880  1.0000
  H   H313      1.0  0.07609  0.90288  0.78115  1.0000
  H   H314      1.0  0.05807  0.82304  0.74504  1.0000
  H   H315      1.0  0.08053  0.80444  0.80234  1.0000
  H   H316      1.0  0.01029  0.88778  0.76901  1.0000
  C   C177      1.0  0.00604  0.71858  0.50913  1.0000
  H   H317      1.0  0.00296  0.64083  0.51611  1.0000
  H   H318      1.0  0.02232  0.84621  0.77935  1.0000
  H   H319      1.0  0.00266  0.66596  0.62650  1.0000
  C   C178      1.0  0.03145  0.85465  0.86203  1.0000
  C   C179      1.0  0.29889  0.79480  0.97661  1.0000
  S   S56       1.0  0.32794  0.58339  0.94223  1.0000
  H   H320      1.0  0.01875  0.70662  0.49584  1.0000
  C   C180      1.0  0.03043  0.62799  0.55027  1.0000
  H   H321      1.0  0.04142  0.64326  0.53702  1.0000
  N   N13       1.0  0.18794  0.69239  0.96139  1.0000
  H   H322      1.0  0.00862  0.66062  0.56003  1.0000
  H   H323      1.0  0.21372  0.94000  0.93414  1.0000
  H   H324      1.0  0.26059  0.55468  0.96039  1.0000
  C   C181      1.0  0.01076  0.74202  0.53299  1.0000
  N   N14       1.0  0.00982  0.85074  0.84280  1.0000
  H   H325      1.0  0.00937  0.79364  0.82404  1.0000
  H   H326      1.0  0.18829  0.65192  0.93521  1.0000
  H   H327      1.0  0.12851  0.93628  0.96640  1.0000
  C   C182      1.0  0.00029  0.87804  0.83365  1.0000
  H   H328      1.0  0.19394  0.75180  0.95200  1.0000
  H   H329      1.0  0.19267  0.97689  0.96336  1.0000
  H   H330      1.0  0.02331  0.87396  0.51734  1.0000
  H   H331      1.0  0.20804  0.70684  0.91090  1.0000
  C   C183      1.0  0.22634  0.67757  0.94556  1.0000
  H   H332      1.0  0.18954  0.94406  0.90672  1.0000
  S   S57       1.0  0.20740  0.86069  0.95162  1.0000
  C   C184      1.0  0.01905  0.80648  0.80305  1.0000
  C   C185      1.0  0.00018  0.51483  0.50856  1.0000
  H   H333      1.0  0.21634  0.71728  0.96101  1.0000
  H   H334      1.0  0.05660  0.83660  0.89909  1.0000
  H   H335      1.0  0.28434  0.57116  0.97865  1.0000
  Fe  Fe23      1.0  0.30789  0.62012  0.95671  1.0000
  Fe  Fe24      1.0  0.17186  0.85329  0.96020  1.0000
  H   H336      1.0  0.15064  0.48563  0.95631  1.0000
  H   H337      1.0  0.16876  0.75861  0.97443  1.0000
  H   H338      1.0  0.19185  0.91650  0.94172  1.0000
  H   H339      1.0  0.01660  0.82270  0.51637  1.0000
  H   H340      1.0  0.28611  0.54289  0.94460  1.0000
  H   H341      1.0  0.03914  0.81210  0.87822  1.0000
  H   H342      1.0  0.02339  0.64425  0.64594  1.0000
  C   C186      1.0  0.15571  0.66313  0.94054  1.0000
  C   C187      1.0  0.17906  0.67096  0.93270  1.0000
  C   C188      1.0  0.01137  0.83588  0.80146  1.0000
  H   H343      1.0  0.18027  0.67729  0.89907  1.0000
  H   H344      1.0  0.14462  0.68001  0.93437  1.0000
  H   H345      1.0  0.01773  0.79775  0.77096  1.0000
  H   H346      1.0  0.22233  0.66018  0.92531  1.0000
  H   H347      1.0  0.03586  0.62303  0.58244  1.0000
  H   H348      1.0  0.03108  0.83252  0.92237  1.0000
  H   H349      1.0  0.16760  0.71977  0.92687  1.0000
  C   C189      1.0  0.03970  0.83249  0.89189  1.0000
  H   H350      1.0  0.00121  0.81620  0.88125  1.0000
  C   C190      1.0  0.19635  0.93783  0.93742  1.0000
  C   C191      1.0  0.02920  0.85997  0.49279  1.0000
  H   H351      1.0  0.24161  0.68560  0.93352  1.0000
  H   H352      1.0  0.03603  0.80521  0.81119  1.0000
  C   C192      1.0  0.20942  0.69993  0.94419  1.0000
  C   C193      1.0  0.00602  0.64656  0.64205  1.0000
  H   H353      1.0  0.02949  0.89704  0.80853  1.0000
  H   H354      1.0  0.31321  0.80721  0.97097  1.0000
  H   H355      1.0  0.00649  0.58494  0.56110  1.0000
  H   H356      1.0  0.01065  0.96581  0.58365  1.0000
  C   C194      1.0  0.01237  0.89551  0.80142  1.0000
  S   S58       1.0  0.00153  0.78807  0.58064  1.0000
  H   H357      1.0  0.04513  0.85326  0.50321  1.0000
  C   C195      1.0  0.17321  0.71637  0.95971  1.0000
  H   H358      1.0  0.00823  0.60485  0.62583  1.0000
  H   H359      1.0  0.28647  0.80308  0.95575  1.0000
  H   H360      1.0  0.16985  0.95630  0.96826  1.0000
  C   C196      1.0  0.18734  0.95632  0.97204  1.0000
  H   H361      1.0  0.30301  0.77390  0.96744  1.0000
  C   C197      1.0  0.23420  0.61051  0.97695  1.0000
  S   S59       1.0  0.00036  0.82888  0.69140  1.0000
  H   H362      1.0  0.00176  0.86098  0.92726  1.0000
  S   S60       1.0  0.00766  0.54665  0.48498  1.0000
  H   H363      1.0  0.10184  0.71134  0.98159  1.0000
  H   H364      1.0  0.15303  0.65537  0.97278  1.0000
  H   H365      1.0  0.22918  0.67072  0.97823  1.0000
  C   C198      1.0  0.01512  0.83501  0.48721  1.0000
  C   C199      1.0  0.00084  0.97244  0.55781  1.0000
  C   C200      1.0  0.18194  0.74377  0.97428  1.0000
  H   H366      1.0  0.25664  0.78419  0.97838  1.0000
  H   H367      1.0  0.15872  0.71252  0.97867  1.0000
  H   H368      1.0  0.99927  0.89042  0.86277  1.0000
  C   C201      1.0  0.12980  0.97857  0.98201  1.0000
  H   H369      1.0  0.99950  0.64821  0.67452  1.0000
  C   C202      1.0  0.25408  0.62271  0.98215  1.0000
  Fe  Fe25      1.0  0.34729  0.39587  0.06608  1.0000
  H   H370      1.0  0.58623  0.03969  0.04511  1.0000
  H   H371      1.0  0.38282  0.43427  0.22296  1.0000
  Fe  Fe26      1.0  0.35107  0.33496  0.06663  1.0000
  H   H372      1.0  0.59863  0.31355  0.38846  1.0000
  S   S61       1.0  0.36696  0.30161  0.02989  1.0000
  Fe  Fe27      1.0  0.35011  0.36569  0.14985  1.0000
  S   S62       1.0  0.36186  0.36666  0.21816  1.0000
  S   S63       1.0  0.37144  0.36764  0.09345  1.0000
  S   S64       1.0  0.35974  0.05390  0.03396  1.0000
  H   H373      1.0  0.61826  0.45197  0.12354  1.0000
  Fe  Fe28      1.0  0.63809  0.39479  0.04868  1.0000
  S   S65       1.0  0.64772  0.39808  0.11659  1.0000
  H   H374      1.0  0.52368  0.28391  0.35899  1.0000
  Fe  Fe29      1.0  0.64543  0.33350  0.04607  1.0000
  H   H375      1.0  0.41494  0.42063  0.23667  1.0000
  H   H376      1.0  0.54441  0.02173  0.98359  1.0000
  Fe  Fe30      1.0  0.62774  0.36079  0.12671  1.0000
  S   S66       1.0  0.59890  0.35386  0.17062  1.0000
  H   H377      1.0  0.36875  0.00522  0.07887  1.0000
  S   S67       1.0  0.61697  0.35919  0.05896  1.0000
  C   C203      1.0  0.39013  0.44572  0.11718  1.0000
  S   S68       1.0  0.63207  0.05163  0.05216  1.0000
  S   S69       1.0  0.61839  0.17999  0.02452  1.0000
  H   H378      1.0  0.58085  0.23208  0.35700  1.0000
  Fe  Fe31      1.0  0.47341  0.36550  0.36177  1.0000
  S   S70       1.0  0.50140  0.33688  0.36291  1.0000
  S   S71       1.0  0.45468  0.36236  0.29950  1.0000
  Fe  Fe32      1.0  0.48846  0.39548  0.44258  1.0000
  S   S72       1.0  0.51735  0.36873  0.44620  1.0000
  C   C204      1.0  0.41389  0.29075  0.18663  1.0000
  Fe  Fe33      1.0  0.52073  0.37368  0.37570  1.0000
  S   S73       1.0  0.55384  0.38169  0.34753  1.0000
  Fe  Fe34      1.0  0.49605  0.33322  0.43315  1.0000
  H   H379      1.0  0.40963  0.23827  0.16942  1.0000
  S   S74       1.0  0.49327  0.40275  0.37266  1.0000
  S   S75       1.0  0.46670  0.35956  0.43167  1.0000
  C   C205      1.0  0.56592  0.31730  0.44702  1.0000
  C   C206      1.0  0.40717  0.45588  0.08603  1.0000
  C   C207      1.0  0.58658  0.36282  0.21956  1.0000
  C   C208      1.0  0.56547  0.35495  0.22699  1.0000
  C   C209      1.0  0.55499  0.36117  0.26526  1.0000
  C   C210      1.0  0.56559  0.37508  0.29712  1.0000
  C   C211      1.0  0.58665  0.38315  0.28957  1.0000
  C   C212      1.0  0.59705  0.37719  0.25109  1.0000
  H   H380      1.0  0.55713  0.34393  0.20287  1.0000
  H   H381      1.0  0.53877  0.35498  0.27019  1.0000
  H   H382      1.0  0.59507  0.39390  0.31388  1.0000
  H   H383      1.0  0.61329  0.38332  0.24616  1.0000
  C   C213      1.0  0.64127  0.26659  0.00721  1.0000
  C   C214      1.0  0.62838  0.21285  0.01865  1.0000
  C   C215      1.0  0.62182  0.23298  0.04691  1.0000
  C   C216      1.0  0.62847  0.25975  0.04155  1.0000
  H   H384      1.0  0.61156  0.22785  0.07306  1.0000
  H   H385      1.0  0.62339  0.27514  0.06352  1.0000
  C   C217      1.0  0.63196  0.46181  0.01272  1.0000
  C   C218      1.0  0.64071  0.98249  0.98629  1.0000
  C   C219      1.0  0.63417  0.01752  0.03803  1.0000
  C   C220      1.0  0.62822  0.99775  0.06729  1.0000
  H   H386      1.0  0.54073  0.29862  0.41359  1.0000
  H   H387      1.0  0.62315  0.00365  0.09858  1.0000
  H   H388      1.0  0.40063  0.32158  0.10051  1.0000
  C   C221      1.0  0.38786  0.36591  0.23989  1.0000
  C   C222      1.0  0.40606  0.36357  0.21480  1.0000
  C   C223      1.0  0.42627  0.36256  0.23366  1.0000
  C   C224      1.0  0.42867  0.36413  0.27776  1.0000
  C   C225      1.0  0.41047  0.36675  0.30272  1.0000
  C   C226      1.0  0.39025  0.36755  0.28389  1.0000
  H   H389      1.0  0.40456  0.36237  0.18095  1.0000
  H   H390      1.0  0.44022  0.36057  0.21398  1.0000
  H   H391      1.0  0.41195  0.36796  0.33660  1.0000
  H   H392      1.0  0.37632  0.36938  0.30368  1.0000
  C   C227      1.0  0.35773  0.26835  0.03361  1.0000
  H   H393      1.0  0.42922  0.27977  0.18329  1.0000
  H   H394      1.0  0.60984  0.41292  0.17562  1.0000
  C   C228      1.0  0.46551  0.05810  0.46649  1.0000
  Fe  Fe35      1.0  0.63370  0.14490  0.99060  1.0000
  C   C229      1.0  0.37850  0.23343  0.14320  1.0000
  H   H395      1.0  0.59921  0.99744  0.98389  1.0000
  C   C230      1.0  0.35024  0.46376  0.03448  1.0000
  N   N15       1.0  0.39519  0.44917  0.16323  1.0000
  C   C231      1.0  0.36145  0.99976  0.04934  1.0000
  C   C232      1.0  0.35547  0.01995  0.02081  1.0000
  H   H396      1.0  0.44827  0.12376  0.39064  1.0000
  C   C233      1.0  0.40864  0.29230  0.23399  1.0000
  H   H397      1.0  0.54002  0.25813  0.33498  1.0000
  H   H398      1.0  0.57147  0.38631  0.06505  1.0000
  C   C234      1.0  0.37716  0.29465  0.15934  1.0000
  H   H399      1.0  0.42246  0.30100  0.25069  1.0000
  H   H400      1.0  0.48404  0.06516  0.40790  1.0000
  H   H401      1.0  0.36302  0.24373  0.14068  1.0000
  C   C235      1.0  0.64118  0.47081  0.05001  1.0000
  C   C236      1.0  0.42392  0.43528  0.21727  1.0000
  H   H402      1.0  0.42326  0.45541  0.23221  1.0000
  H   H403      1.0  0.45114  0.04951  0.45143  1.0000
  H   H404      1.0  0.56005  0.04828  0.02640  1.0000
  H   H405      1.0  0.38075  0.31659  0.16019  1.0000
  H   H406      1.0  0.42006  0.44081  0.08241  1.0000
  H   H407      1.0  0.45411  0.08840  0.38428  1.0000
  H   H408      1.0  0.58767  0.40157  0.12647  1.0000
  H   H409      1.0  0.48388  0.03122  0.42648  1.0000
  C   C237      1.0  0.34414  0.21459  0.03944  1.0000
  C   C238      1.0  0.39644  0.47838  0.17625  1.0000
  H   H410      1.0  0.33691  0.27581  0.08620  1.0000
  C   C239      1.0  0.33652  0.23408  0.06771  1.0000
  H   H411      1.0  0.58525  0.27266  0.41108  1.0000
  H   H412      1.0  0.38736  0.42413  0.10961  1.0000
  C   C240      1.0  0.37887  0.43423  0.18891  1.0000
  Fe  Fe36      1.0  0.33782  0.14794  0.99648  1.0000
  H   H413      1.0  0.37554  0.21347  0.15779  1.0000
  H   H414      1.0  0.41611  0.41448  0.15972  1.0000
  C   C241      1.0  0.57086  0.40852  0.06892  1.0000
  H   H415      1.0  0.42913  0.44591  0.15304  1.0000
  H   H416      1.0  0.39997  0.45857  0.05442  1.0000
  C   C242      1.0  0.35863  0.22201  0.00818  1.0000
  C   C243      1.0  0.35602  0.44482  0.18711  1.0000
  H   H417      1.0  0.64638  0.45643  0.07333  1.0000
  C   C244      1.0  0.59846  0.31478  0.32089  1.0000
  N   N16       1.0  0.58459  0.44499  0.11968  1.0000
  H   H418      1.0  0.41580  0.30407  0.06184  1.0000
  N   N17       1.0  0.56756  0.29925  0.37029  1.0000
  C   C245      1.0  0.36558  0.24882  0.00559  1.0000
  H   H419      1.0  0.54765  0.31940  0.32488  1.0000
  H   H420      1.0  0.56287  0.29337  0.30271  1.0000
  C   C246      1.0  0.60407  0.45227  0.14447  1.0000
  S   S76       1.0  0.62619  0.42751  0.00497  1.0000
  H   H421      1.0  0.55430  0.32586  0.46980  1.0000
  H   H422      1.0  0.60391  0.29419  0.31360  1.0000
  H   H423      1.0  0.58212  0.33864  0.36624  1.0000
  C   C247      1.0  0.44750  0.10123  0.44930  1.0000
  H   H424      1.0  0.47342  0.11187  0.40449  1.0000
  H   H425      1.0  0.36459  0.20706  0.98631  1.0000
  C   C248      1.0  0.57411  0.27145  0.38416  1.0000
  H   H426      1.0  0.34742  0.27753  0.18366  1.0000
  H   H427      1.0  0.56798  0.00061  0.03690  1.0000
  C   C249      1.0  0.55439  0.31162  0.40521  1.0000
  S   S77       1.0  0.65521  0.33228  0.11388  1.0000
  C   C250      1.0  0.55386  0.29884  0.33148  1.0000
  H   H428      1.0  0.37512  0.45585  0.10884  1.0000
  C   C251      1.0  0.48436  0.05263  0.43662  1.0000
  C   C252      1.0  0.36128  0.28884  0.19558  1.0000
  H   H429      1.0  0.59801  0.43862  0.20930  1.0000
  C   C253      1.0  0.55784  0.42257  0.17175  1.0000
  C   C254      1.0  0.58519  0.25341  0.35113  1.0000
  H   H430      1.0  0.57228  0.29874  0.46160  1.0000
  C   C255      1.0  0.39424  0.24930  0.17061  1.0000
  H   H431      1.0  0.36781  0.27841  0.22330  1.0000
  H   H432      1.0  0.55091  0.45326  0.12689  1.0000
  H   H433      1.0  0.55455  0.41414  0.07846  1.0000
  H   H434      1.0  0.56042  0.26008  0.39739  1.0000
  H   H435      1.0  0.61278  0.32767  0.32199  1.0000
  H   H436      1.0  0.56833  0.46094  0.06486  1.0000
  C   C256      1.0  0.45654  0.10621  0.40481  1.0000
  H   H437      1.0  0.54454  0.42818  0.19305  1.0000
  H   H438      1.0  0.57450  0.41743  0.03760  1.0000
  H   H439      1.0  0.60267  0.25519  0.35346  1.0000
  H   H440      1.0  0.38488  0.22942  0.11115  1.0000
  H   H441      1.0  0.60325  0.41541  0.08589  1.0000
  H   H442      1.0  0.56652  0.46445  0.16938  1.0000
  S   S78       1.0  0.65879  0.11917  0.01996  1.0000
  H   H443      1.0  0.58881  0.32265  0.29453  1.0000
  H   H444      1.0  0.57952  0.07330  0.02905  1.0000
  H   H445      1.0  0.39523  0.30620  0.24028  1.0000
  C   C257      1.0  0.58310  0.46431  0.08303  1.0000
  Fe  Fe37      1.0  0.34615  0.08732  0.99393  1.0000
  C   C258      1.0  0.56483  0.44764  0.14646  1.0000
  C   C259      1.0  0.41301  0.30602  0.09631  1.0000
  H   H446      1.0  0.49782  0.47593  0.46318  1.0000
  H   H447      1.0  0.43273  0.08957  0.44426  1.0000
  H   H448      1.0  0.59622  0.46074  0.06022  1.0000
  H   H449      1.0  0.37856  0.41272  0.17923  1.0000
  C   C260      1.0  0.41630  0.43573  0.17108  1.0000
  H   H450      1.0  0.62514  0.44011  0.19473  1.0000
  H   H451      1.0  0.42002  0.26471  0.11114  1.0000
  H   H452      1.0  0.42812  0.31287  0.11029  1.0000
  H   H453      1.0  0.58037  0.25741  0.31833  1.0000
  H   H454      1.0  0.40573  0.27235  0.24836  1.0000
  C   C261      1.0  0.40612  0.27847  0.11400  1.0000
  H   H455      1.0  0.55192  0.40637  0.15093  1.0000
  H   H456      1.0  0.36825  0.29150  0.12958  1.0000
  H   H457      1.0  0.44067  0.42841  0.21806  1.0000
  H   H458      1.0  0.34552  0.43012  0.20325  1.0000
  S   S79       1.0  0.64941  0.29998  0.99818  1.0000
  H   H459      1.0  0.41712  0.31189  0.17729  1.0000
  H   H460      1.0  0.54744  0.33113  0.39481  1.0000
  C   C262      1.0  0.58750  0.41716  0.10160  1.0000
  H   H461      1.0  0.41404  0.47541  0.09560  1.0000
  H   H462      1.0  0.57044  0.41415  0.19178  1.0000
  H   H463      1.0  0.52576  0.28157  0.30324  1.0000
  H   H464      1.0  0.35474  0.30821  0.20740  1.0000
  N   N18       1.0  0.39739  0.27839  0.15846  1.0000
  H   H465      1.0  0.39420  0.27070  0.09140  1.0000
  H   H466      1.0  0.57862  0.33247  0.44319  1.0000
  H   H467      1.0  0.38886  0.24700  0.20359  1.0000
  C   C263      1.0  0.34306  0.26095  0.06451  1.0000
  C   C264      1.0  0.58665  0.31703  0.36344  1.0000
  S   S80       1.0  0.35929  0.43056  0.02676  1.0000
  H   H468      1.0  0.49964  0.05532  0.45323  1.0000
  Fe  Fe38      1.0  0.63840  0.08393  0.00368  1.0000
  H   H469      1.0  0.60293  0.47308  0.15707  1.0000
  C   C265      1.0  0.64082  0.00978  0.99773  1.0000
  C   C266      1.0  0.53485  0.27942  0.33293  1.0000
  C   C267      1.0  0.57715  0.05165  0.02178  1.0000
  C   C268      1.0  0.60919  0.43465  0.18298  1.0000
  S   S81       1.0  0.50462  0.29491  0.47246  1.0000
  N   N19       1.0  0.46165  0.08689  0.48012  1.0000
  C   C269      1.0  0.56977  0.98560  0.01150  1.0000
  H   H470      1.0  0.56124  0.21920  0.99553  1.0000
  H   H471      1.0  0.35010  0.44692  0.15461  1.0000
  S   S82       1.0  0.33501  0.18141  0.04484  1.0000
  H   H472      1.0  0.49237  0.10125  0.45770  1.0000
  C   C270      1.0  0.33741  0.47052  0.06888  1.0000
  H   H473      1.0  0.35435  0.46404  0.20457  1.0000
  C   C271      1.0  0.64150  0.21961  0.98472  1.0000
  H   H474      1.0  0.44157  0.12072  0.46214  1.0000
  H   H475      1.0  0.47189  0.14354  0.47730  1.0000
  H   H476      1.0  0.39333  0.48046  0.21067  1.0000
  H   H477      1.0  0.46390  0.26513  0.47900  1.0000
  H   H478      1.0  0.57860  0.16735  0.98261  1.0000
  C   C272      1.0  0.34600  0.01275  0.98278  1.0000
  H   H479      1.0  0.36630  0.01622  0.90020  1.0000
  H   H480      1.0  0.58754  0.22695  0.91526  1.0000
  H   H481      1.0  0.59408  0.05787  0.61905  1.0000
  H   H482      1.0  0.45107  0.30346  0.56612  1.0000
  Fe  Fe39      1.0  0.34780  0.11961  0.91262  1.0000
  S   S83       1.0  0.36200  0.12032  0.84527  1.0000
  H   H483      1.0  0.52412  0.01884  0.51291  1.0000
  N   N20       1.0  0.56537  0.04299  0.64875  1.0000
  H   H484      1.0  0.47689  0.34726  0.63937  1.0000
  H   H485      1.0  0.45204  0.33419  0.62473  1.0000
  H   H486      1.0  0.57806  0.00387  0.58588  1.0000
  Fe  Fe40      1.0  0.62622  0.10615  0.91628  1.0000
  S   S84       1.0  0.59916  0.09326  0.87214  1.0000
  H   H487      1.0  0.46853  0.04510  0.49429  1.0000
  Fe  Fe41      1.0  0.47226  0.11689  0.69367  1.0000
  S   S85       1.0  0.49239  0.15414  0.68579  1.0000
  S   S86       1.0  0.45371  0.11214  0.75639  1.0000
  Fe  Fe42      1.0  0.49361  0.08822  0.61671  1.0000
  S   S87       1.0  0.51507  0.12404  0.60564  1.0000
  S   S88       1.0  0.50028  0.05157  0.57207  1.0000
  Fe  Fe43      1.0  0.51955  0.12522  0.67638  1.0000
  S   S89       1.0  0.55263  0.13314  0.70392  1.0000
  Fe  Fe44      1.0  0.48661  0.15084  0.61567  1.0000
  S   S90       1.0  0.47633  0.18603  0.57100  1.0000
  S   S91       1.0  0.50006  0.08814  0.68678  1.0000
  S   S92       1.0  0.46455  0.11487  0.62390  1.0000
  H   H488      1.0  0.44578  0.37876  0.58271  1.0000
  H   H489      1.0  0.41751  0.07668  0.50379  1.0000
  H   H490      1.0  0.59880  0.20102  0.85067  1.0000
  C   C273      1.0  0.49478  0.01939  0.54788  1.0000
  H   H491      1.0  0.47004  0.44865  0.57897  1.0000
  C   C274      1.0  0.40752  0.00548  0.87225  1.0000
  H   H492      1.0  0.52003  0.35354  0.56305  1.0000
  H   H493      1.0  0.46429  0.01321  0.57675  1.0000
  H   H494      1.0  0.61840  0.47376  0.95341  1.0000
  H   H495      1.0  0.50338  0.32272  0.60855  1.0000
  C   C275      1.0  0.54229  0.04090  0.63766  1.0000
  C   C276      1.0  0.46991  0.23080  0.51958  1.0000
  C   C277      1.0  0.48472  0.21624  0.54387  1.0000
  H   H496      1.0  0.34114  0.02812  0.96084  1.0000
  H   H497      1.0  0.58007  0.09670  0.58292  1.0000
  C   C278      1.0  0.55177  0.02393  0.95204  1.0000
  C   C279      1.0  0.42153  0.04622  0.81012  1.0000
  S   S93       1.0  0.36562  0.12302  0.97387  1.0000
  C   C280      1.0  0.58611  0.10596  0.82644  1.0000
  C   C281      1.0  0.56608  0.09560  0.81590  1.0000
  C   C282      1.0  0.55531  0.10426  0.77940  1.0000
  C   C283      1.0  0.56461  0.12312  0.75234  1.0000
  C   C284      1.0  0.58463  0.13349  0.76290  1.0000
  C   C285      1.0  0.59525  0.12517  0.79982  1.0000
  H   H498      1.0  0.55882  0.08072  0.83610  1.0000
  H   H499      1.0  0.53996  0.09604  0.77182  1.0000
  H   H500      1.0  0.59208  0.14796  0.74216  1.0000
  H   H501      1.0  0.61070  0.13318  0.80709  1.0000
  H   H502      1.0  0.46123  0.07857  0.54716  1.0000
  H   H503      1.0  0.54599  0.05193  0.89904  1.0000
  H   H504      1.0  0.45381  0.22356  0.51779  1.0000
  C   C286      1.0  0.57530  0.01550  0.65317  1.0000
  H   H505      1.0  0.56958  0.00530  0.68228  1.0000
  H   H506      1.0  0.49207  0.09071  0.51039  1.0000
  S   S94       1.0  0.61200  0.11006  0.98095  1.0000
  C   C287      1.0  0.38778  0.11969  0.82129  1.0000
  C   C288      1.0  0.38945  0.11863  0.77700  1.0000
  C   C289      1.0  0.40937  0.11717  0.75647  1.0000
  C   C290      1.0  0.42806  0.11644  0.77998  1.0000
  C   C291      1.0  0.42639  0.11762  0.82427  1.0000
  C   C292      1.0  0.40649  0.11953  0.84476  1.0000
  H   H507      1.0  0.37517  0.11888  0.75835  1.0000
  H   H508      1.0  0.41024  0.11618  0.72248  1.0000
  H   H509      1.0  0.44066  0.11716  0.84293  1.0000
  H   H510      1.0  0.40563  0.12076  0.87873  1.0000
  C   C293      1.0  0.50547  0.22616  0.54553  1.0000
  H   H511      1.0  0.42905  0.34232  0.55768  1.0000
  H   H512      1.0  0.47505  0.27438  0.58966  1.0000
  H   H513      1.0  0.42911  0.05930  0.83391  1.0000
  C   C294      1.0  0.56423  0.22831  0.96413  1.0000
  H   H514      1.0  0.50047  0.30593  0.55984  1.0000
  H   H515      1.0  0.57993  0.04238  0.89346  1.0000
  N   N21       1.0  0.57558  0.18615  0.92141  1.0000
  N   N22       1.0  0.47516  0.33423  0.57402  1.0000
  C   C295      1.0  0.57666  0.05793  0.61397  1.0000
  H   H516      1.0  0.60251  0.04339  0.97964  1.0000
  H   H517      1.0  0.61693  0.03541  0.91734  1.0000
  C   C296      1.0  0.55823  0.17031  0.85127  1.0000
  C   C297      1.0  0.38811  0.05235  0.93895  1.0000
  H   H518      1.0  0.44532  0.35556  0.51507  1.0000
  C   C298      1.0  0.49137  0.31355  0.58747  1.0000
  H   H519      1.0  0.39528  0.06798  0.95938  1.0000
  C   C299      1.0  0.59549  0.17308  0.90474  1.0000
  C   C300      1.0  0.58177  0.21294  0.94012  1.0000
  H   H520      1.0  0.51207  0.02363  0.65579  1.0000
  H   H521      1.0  0.57207  0.17225  0.82992  1.0000
  H   H522      1.0  0.49141  0.34483  0.51626  1.0000
  H   H523      1.0  0.50392  0.37330  0.59885  1.0000
  H   H524      1.0  0.54528  0.14042  0.92628  1.0000
  H   H525      1.0  0.55252  0.17843  0.97096  1.0000
  H   H526      1.0  0.47352  0.13310  0.53195  1.0000
  H   H527      1.0  0.43092  0.02753  0.80576  1.0000
  H   H528      1.0  0.39612  0.07234  0.88220  1.0000
  H   H529      1.0  0.57256  0.12859  0.92886  1.0000
  C   C301      1.0  0.45041  0.08628  0.52226  1.0000
  H   H530      1.0  0.61997  0.17716  0.85653  1.0000
  H   H531      1.0  0.54799  0.06824  0.95000  1.0000
  C   C302      1.0  0.56001  0.14025  0.94510  1.0000
  H   H532      1.0  0.37125  0.05791  0.93560  1.0000
  H   H533      1.0  0.57568  0.00714  0.88976  1.0000
  C   C303      1.0  0.56960  0.08734  0.60697  1.0000
  H   H534      1.0  0.39239  0.02534  0.79736  1.0000
  H   H535      1.0  0.57432  0.04774  0.58319  1.0000
  C   C304      1.0  0.49638  0.26441  0.49900  1.0000
  H   H536      1.0  0.47005  0.39063  0.60510  1.0000
  H   H537      1.0  0.56098  0.04504  0.71646  1.0000
  H   H538      1.0  0.56136  0.21081  0.87232  1.0000
  H   H539      1.0  0.44561  0.10685  0.53237  1.0000
  C   C305      1.0  0.45700  0.37595  0.60891  1.0000
  H   H540      1.0  0.55709  0.14922  0.86193  1.0000
  C   C306      1.0  0.45870  0.31995  0.54803  1.0000
  C   C307      1.0  0.46537  0.34678  0.61292  1.0000
  H   H541      1.0  0.60605  0.16762  0.93139  1.0000
  C   C308      1.0  0.58987  0.06573  0.70310  1.0000
  C   C309      1.0  0.47561  0.25456  0.49746  1.0000
  C   C310      1.0  0.58511  0.04601  0.97665  1.0000
  H   H542      1.0  0.40572  0.47804  0.63494  1.0000
  H   H543      1.0  0.52756  0.03352  0.69983  1.0000
  C   C311      1.0  0.52849  0.02419  0.66815  1.0000
  C   C312      1.0  0.48280  0.28878  0.61138  1.0000
  H   H544      1.0  0.38825  0.98573  0.92256  1.0000
  C   C313      1.0  0.50625  0.36740  0.56551  1.0000
  H   H545      1.0  0.54300  0.19185  0.90198  1.0000
  N   N23       1.0  0.39395  0.03011  0.86534  1.0000
  H   H546      1.0  0.58373  0.06490  0.95798  1.0000
  H   H547      1.0  0.44847  0.38146  0.63837  1.0000
  H   H548      1.0  0.54027  0.03260  0.60536  1.0000
  C   C314      1.0  0.48634  0.35442  0.54636  1.0000
  H   H549      1.0  0.58940  0.07417  0.73548  1.0000
  H   H550      1.0  0.38918  0.03315  0.95619  1.0000
  S   S95       1.0  0.64694  0.14289  0.92477  1.0000
  C   C315      1.0  0.39955  0.05224  0.89595  1.0000
  H   H551      1.0  0.41686  0.05227  0.90232  1.0000
  H   H552      1.0  0.59634  0.08176  0.68248  1.0000
  C   C316      1.0  0.39821  0.04008  0.82109  1.0000
  H   H553      1.0  0.47175  0.29440  0.63717  1.0000
  H   H554      1.0  0.57079  0.09983  0.63571  1.0000
  C   C317      1.0  0.37097  0.02209  0.86781  1.0000
  H   H555      1.0  0.54931  0.22955  0.94600  1.0000
  S   S96       1.0  0.48119  0.42455  0.49909  1.0000
  C   C318      1.0  0.34280  0.98550  0.97313  1.0000
  H   H556      1.0  0.38941  0.05914  0.81486  1.0000
  C   C319      1.0  0.55913  0.19086  0.88773  1.0000
  C   C320      1.0  0.57183  0.99591  0.61606  1.0000
  H   H557      1.0  0.55722  0.07601  0.69065  1.0000
  H   H558      1.0  0.55632  0.12916  0.97460  1.0000
  C   C321      1.0  0.56725  0.05758  0.69021  1.0000
  S   S97       1.0  0.65180  0.07759  0.93901  1.0000
  H   H559      1.0  0.59524  0.21045  0.96220  1.0000
  H   H560      1.0  0.42218  0.05718  0.77961  1.0000
  H   H561      1.0  0.54401  0.17443  0.83182  1.0000
  H   H562      1.0  0.43104  0.32509  0.50870  1.0000
  H   H563      1.0  0.51716  0.21549  0.56392  1.0000
  C   C322      1.0  0.50953  0.00823  0.51922  1.0000
  H   H564      1.0  0.64568  0.02481  0.97519  1.0000
  H   H565      1.0  0.59274  0.01717  0.65698  1.0000
  C   C323      1.0  0.58366  0.02289  0.90893  1.0000
  C   C324      1.0  0.54249  0.05003  0.93316  1.0000
  C   C325      1.0  0.60774  0.01885  0.90299  1.0000
  H   H566      1.0  0.42462  0.01059  0.87031  1.0000
  C   C326      1.0  0.47665  0.46462  0.55995  1.0000
  H   H567      1.0  0.46628  0.31020  0.52018  1.0000
  C   C327      1.0  0.47594  0.00516  0.55506  1.0000
  C   C328      1.0  0.44018  0.33716  0.53175  1.0000
  H   H568      1.0  0.51036  0.38578  0.54732  1.0000
  C   C329      1.0  0.43013  0.06904  0.52477  1.0000
  C   C330      1.0  0.60872  0.19034  0.87401  1.0000
  C   C331      1.0  0.48368  0.45866  0.51867  1.0000
  H   H569      1.0  0.53486  0.06119  0.63657  1.0000
  H   H570      1.0  0.61329  0.99919  0.91522  1.0000
  H   H571      1.0  0.59220  0.15377  0.88860  1.0000
  H   H572      1.0  0.36806  0.00383  0.84831  1.0000
  C   C332      1.0  0.48069  0.13103  0.50024  1.0000
  C   C333      1.0  0.40488  0.99070  0.91463  1.0000
  H   H573      1.0  0.47567  0.37100  0.53659  1.0000
  C   C334      1.0  0.51119  0.24990  0.52332  1.0000
  C   C335      1.0  0.56683  0.16902  0.95667  1.0000
  H   H574      1.0  0.60091  0.04841  0.70389  1.0000
  H   H575      1.0  0.55328  0.08845  0.59445  1.0000
  H   H576      1.0  0.61836  0.20523  0.89153  1.0000
  H   H577      1.0  0.49627  0.27766  0.62562  1.0000
  C   C336      1.0  0.35504  0.04371  0.85335  1.0000
  H   H578      1.0  0.52729  0.25710  0.52519  1.0000
  N   N24       1.0  0.57559  0.02241  0.95382  1.0000
  H   H579      1.0  0.61149  0.01924  0.86877  1.0000
  H   H580      1.0  0.42376  0.07011  0.55744  1.0000
  H   H581      1.0  0.35439  0.04493  0.81846  1.0000
  H   H582      1.0  0.35900  0.06381  0.86597  1.0000
  H   H583      1.0  0.52497  0.04955  0.93632  1.0000
  H   H584      1.0  0.64650  0.20427  0.96263  1.0000
  H   H585      1.0  0.36695  0.47890  0.98011  1.0000
  H   H586      1.0  0.33891  0.03837  0.86457  1.0000
  H   H587      1.0  0.53387  0.00304  0.67083  1.0000
  H   H588      1.0  0.43323  0.04746  0.51821  1.0000
  H   H589      1.0  0.56967  0.24920  0.97014  1.0000
  C   C337      1.0  0.58255  0.99612  0.97343  1.0000
  H   H590      1.0  0.41235  0.00209  0.94061  1.0000
  H   H591      1.0  0.54547  0.00670  0.93351  1.0000
  H   H592      1.0  0.40464  0.99045  0.84685  1.0000
  C   C338      1.0  0.49228  0.47984  0.49490  1.0000
  H   H593      1.0  0.65755  0.25170  0.95205  1.0000
  H   H594      1.0  0.49685  0.13963  0.50255  1.0000
  H   H595      1.0  0.55494  0.99049  0.61217  1.0000
  C   C339      1.0  0.50565  0.98346  0.49836  1.0000
  C   C340      1.0  0.48237  0.10136  0.48643  1.0000
  C   C341      1.0  0.64772  0.24647  0.97880  1.0000
  C   C342      1.0  0.62561  0.48065  0.98229  1.0000
  H   H596      1.0  0.37695  0.25447  0.98160  1.0000
  H   H597      1.0  0.35737  0.72740  0.10278  1.0000
  H   H598      1.0  0.44510  0.75768  0.45491  1.0000
  H   H599      1.0  0.45097  0.88713  0.21060  1.0000
  Fe  Fe45      1.0  0.34990  0.83751  0.04679  1.0000
  C   C343      1.0  0.54051  0.75935  0.40443  1.0000
  H   H600      1.0  0.57201  0.49958  0.11974  1.0000
  Fe  Fe46      1.0  0.35761  0.87394  0.12314  1.0000
  S   S98       1.0  0.37972  0.88785  0.17691  1.0000
  S   S99       1.0  0.37164  0.87269  0.05735  1.0000
  S   S100      1.0  0.61935  0.80257  0.00454  1.0000
  C   C344      1.0  0.40352  0.83689  0.44416  1.0000
  Fe  Fe47      1.0  0.63209  0.89617  0.04733  1.0000
  S   S101      1.0  0.64570  0.89813  0.11218  1.0000
  H   H601      1.0  0.44137  0.78770  0.37001  1.0000
  Fe  Fe48      1.0  0.62586  0.83512  0.05258  1.0000
  S   S102      1.0  0.63900  0.83266  0.11841  1.0000
  H   H602      1.0  0.65943  0.79053  0.05435  1.0000
  Fe  Fe49      1.0  0.61899  0.87001  0.13090  1.0000
  S   S103      1.0  0.59822  0.88454  0.18663  1.0000
  C   C345      1.0  0.35106  0.51099  0.01350  1.0000
  S   S104      1.0  0.60446  0.87044  0.06589  1.0000
  H   H603      1.0  0.53755  0.83678  0.17643  1.0000
  C   C346      1.0  0.44185  0.77676  0.43780  1.0000
  S   S105      1.0  0.61555  0.67789  0.04331  1.0000
  S   S106      1.0  0.63243  0.92928  0.99856  1.0000
  Fe  Fe50      1.0  0.46120  0.86091  0.37718  1.0000
  S   S107      1.0  0.48545  0.82804  0.38470  1.0000
  S   S108      1.0  0.43404  0.84596  0.33506  1.0000
  Fe  Fe51      1.0  0.48541  0.89855  0.43869  1.0000
  S   S109      1.0  0.51141  0.86752  0.44804  1.0000
  C   C347      1.0  0.35700  0.48403  0.00679  1.0000
  Fe  Fe52      1.0  0.50983  0.86071  0.37745  1.0000
  S   S110      1.0  0.53632  0.84382  0.33479  1.0000
  Fe  Fe53      1.0  0.48564  0.83624  0.45397  1.0000
  C   C348      1.0  0.33878  0.51783  0.04862  1.0000
  S   S111      1.0  0.48548  0.89352  0.36696  1.0000
  S   S112      1.0  0.45964  0.86729  0.44771  1.0000
  H   H604      1.0  0.57285  0.66161  0.99283  1.0000
  H   H605      1.0  0.41274  0.48637  0.17146  1.0000
  C   C349      1.0  0.58090  0.87255  0.22724  1.0000
  C   C350      1.0  0.56935  0.89139  0.25146  1.0000
  C   C351      1.0  0.55554  0.88310  0.28415  1.0000
  C   C352      1.0  0.55327  0.85576  0.29355  1.0000
  C   C353      1.0  0.56479  0.83690  0.26936  1.0000
  C   C354      1.0  0.57838  0.84517  0.23629  1.0000
  H   H606      1.0  0.57120  0.91262  0.24494  1.0000
  H   H607      1.0  0.54697  0.89794  0.30248  1.0000
  H   H608      1.0  0.56321  0.81569  0.27618  1.0000
  H   H609      1.0  0.58712  0.83041  0.21813  1.0000
  C   C355      1.0  0.61950  0.76815  0.01694  1.0000
  C   C356      1.0  0.61801  0.71250  0.03305  1.0000
  C   C357      1.0  0.61271  0.73107  0.06474  1.0000
  C   C358      1.0  0.61374  0.75888  0.05692  1.0000
  C   C359      1.0  0.34841  0.96534  0.00198  1.0000
  H   H610      1.0  0.60943  0.77310  0.08133  1.0000
  C   C360      1.0  0.38228  0.77764  0.46777  1.0000
  H   H611      1.0  0.54227  0.77830  0.34156  1.0000
  C   C361      1.0  0.63661  0.51739  0.02733  1.0000
  C   C362      1.0  0.44277  0.76966  0.39042  1.0000
  S   S113      1.0  0.65583  0.62111  0.02205  1.0000
  H   H612      1.0  0.47050  0.90102  0.27525  1.0000
  H   H613      1.0  0.62324  0.95535  0.07845  1.0000
  C   C363      1.0  0.39505  0.87543  0.22013  1.0000
  C   C364      1.0  0.39508  0.84835  0.23232  1.0000
  C   C365      1.0  0.40713  0.83981  0.26735  1.0000
  C   C366      1.0  0.41953  0.85805  0.29054  1.0000
  C   C367      1.0  0.41977  0.88504  0.27801  1.0000
  C   C368      1.0  0.40755  0.89362  0.24324  1.0000
  H   H614      1.0  0.38558  0.83407  0.21508  1.0000
  H   H615      1.0  0.40673  0.81888  0.27661  1.0000
  H   H616      1.0  0.42900  0.89944  0.29554  1.0000
  H   H617      1.0  0.40763  0.91463  0.23432  1.0000
  C   C369      1.0  0.35287  0.76899  0.01813  1.0000
  C   C370      1.0  0.35568  0.76100  0.05991  1.0000
  N   N25       1.0  0.55248  0.77767  0.43388  1.0000
  C   C371      1.0  0.35039  0.71409  0.03977  1.0000
  H   H618      1.0  0.59546  0.81978  0.40939  1.0000
  S   S114      1.0  0.33727  0.83686  0.11326  1.0000
  H   H619      1.0  0.52734  0.74908  0.42136  1.0000
  S   S115      1.0  0.36423  0.61118  0.00104  1.0000
  H   H620      1.0  0.57868  0.50633  0.06580  1.0000
  H   H621      1.0  0.53397  0.81440  0.43110  1.0000
  H   H622      1.0  0.54182  0.72504  0.47425  1.0000
  H   H623      1.0  0.55101  0.74298  0.39229  1.0000
  H   H624      1.0  0.65707  0.74233  0.04494  1.0000
  H   H625      1.0  0.36211  0.95706  0.06255  1.0000
  H   H626      1.0  0.51728  0.97536  0.47668  1.0000
  N   N26       1.0  0.49102  0.86012  0.22583  1.0000
  C   C372      1.0  0.50986  0.84218  0.21670  1.0000
  H   H627      1.0  0.56174  0.80445  0.38303  1.0000
  C   C373      1.0  0.49943  0.88659  0.24183  1.0000
  H   H628      1.0  0.51925  0.75850  0.35065  1.0000
  C   C374      1.0  0.63416  0.96284  0.01520  1.0000
  C   C375      1.0  0.48295  0.90826  0.25342  1.0000
  H   H629      1.0  0.64967  0.50542  0.08709  1.0000
  H   H630      1.0  0.51851  0.83742  0.24628  1.0000
  Fe  Fe54      1.0  0.66418  0.86106  0.09378  1.0000
  H   H631      1.0  0.48741  0.84703  0.29055  1.0000
  H   H632      1.0  0.50948  0.88319  0.27015  1.0000
  H   H633      1.0  0.50986  0.89635  0.21809  1.0000
  H   H634      1.0  0.35635  0.52651  0.99202  1.0000
  H   H635      1.0  0.35938  0.77582  0.08370  1.0000
  C   C376      1.0  0.35462  0.73358  0.07059  1.0000
  H   H636      1.0  0.47578  0.91712  0.22476  1.0000
  H   H637      1.0  0.49112  0.92500  0.26980  1.0000
  H   H638      1.0  0.48499  0.80361  0.25829  1.0000
  H   H639      1.0  0.59947  0.50138  0.10239  1.0000
  H   H640      1.0  0.55529  0.73758  0.98395  1.0000
  Fe  Fe55      1.0  0.34222  0.64634  0.00896  1.0000
  C   C377      1.0  0.47853  0.86387  0.18573  1.0000
  C   C378      1.0  0.64309  0.49853  0.05762  1.0000
  C   C379      1.0  0.34670  0.72222  0.99829  1.0000
  C   C380      1.0  0.41752  0.81419  0.42594  1.0000
  H   H641      1.0  0.45868  0.81210  0.27433  1.0000
  C   C381      1.0  0.47164  0.81765  0.25223  1.0000
  H   H642      1.0  0.57832  0.96810  0.02523  1.0000
  H   H643      1.0  0.40039  0.85179  0.41879  1.0000
  H   H644      1.0  0.50469  0.82246  0.20383  1.0000
  H   H645      1.0  0.59245  0.80205  0.45771  1.0000
  C   C382      1.0  0.56313  0.75985  0.46599  1.0000
  Fe  Fe56      1.0  0.34414  0.89879  0.03870  1.0000
  H   H646      1.0  0.60764  0.72390  0.09534  1.0000
  H   H647      1.0  0.37259  0.78828  0.44383  1.0000
  H   H648      1.0  0.47965  0.84565  0.16537  1.0000
  H   H649      1.0  0.46375  0.85852  0.26769  1.0000
  H   H650      1.0  0.45566  0.79003  0.44399  1.0000
  H   H651      1.0  0.44790  0.87431  0.15876  1.0000
  H   H652      1.0  0.41037  0.80814  0.39536  1.0000
  H   H653      1.0  0.57464  0.74607  0.45016  1.0000
  S   S116      1.0  0.65205  0.86106  0.02833  1.0000
  C   C383      1.0  0.35768  0.97251  0.04020  1.0000
  H   H654      1.0  0.51871  0.85990  0.15496  1.0000
  C   C384      1.0  0.47834  0.84701  0.26051  1.0000
  H   H655      1.0  0.46580  0.81460  0.21975  1.0000
  S   S117      1.0  0.63882  0.55189  0.03922  1.0000
  H   H656      1.0  0.53579  0.86954  0.19814  1.0000
  H   H657      1.0  0.57444  0.82939  0.44354  1.0000
  C   C385      1.0  0.53711  0.79751  0.45330  1.0000
  H   H658      1.0  0.41184  0.84798  0.46950  1.0000
  H   H659      1.0  0.48540  0.88043  0.16644  1.0000
  H   H660      1.0  0.49105  0.75416  0.45917  1.0000
  H   H661      1.0  0.52098  0.79094  0.37450  1.0000
  H   H662      1.0  0.40864  0.74981  0.46289  1.0000
  C   C386      1.0  0.62831  0.97043  0.05600  1.0000
  H   H663      1.0  0.45845  0.76051  0.38331  1.0000
  C   C387      1.0  0.52618  0.85308  0.18463  1.0000
  C   C388      1.0  0.45456  0.86969  0.19028  1.0000
  H   H664      1.0  0.44571  0.85204  0.20234  1.0000
  C   C389      1.0  0.62492  0.74959  0.98535  1.0000
  S   S118      1.0  0.35659  0.80262  0.00246  1.0000
  C   C390      1.0  0.56912  0.79203  0.40815  1.0000
  C   C391      1.0  0.58330  0.49455  0.09407  1.0000
  H   H665      1.0  0.55398  0.97821  0.00174  1.0000
  C   C392      1.0  0.53028  0.77288  0.36577  1.0000
  H   H666      1.0  0.38635  0.50160  0.12011  1.0000
  H   H667      1.0  0.57951  0.77719  0.39164  1.0000
  H   H668      1.0  0.40107  0.76502  0.41567  1.0000
  H   H669      1.0  0.36478  0.49261  0.15421  1.0000
  S   S119      1.0  0.35035  0.67988  0.05421  1.0000
  H   H670      1.0  0.38271  0.51842  0.16904  1.0000
  H   H671      1.0  0.43272  0.82415  0.41761  1.0000
  H   H672      1.0  0.57550  0.71261  0.98867  1.0000
  Fe  Fe57      1.0  0.62955  0.64723  0.99855  1.0000
  H   H673      1.0  0.52152  0.78770  0.45852  1.0000
  C   C393      1.0  0.58352  0.81173  0.43188  1.0000
  C   C394      1.0  0.38162  0.49848  0.15343  1.0000
  H   H674      1.0  0.43066  0.75464  0.38157  1.0000
  C   C395      1.0  0.62456  0.72184  0.99360  1.0000
  Fe  Fe58      1.0  0.33603  0.58472  0.01103  1.0000
  H   H675      1.0  0.49420  0.70630  0.48162  1.0000
  N   N27       1.0  0.42164  0.78988  0.45333  1.0000
  S   S120      1.0  0.34345  0.93156  0.98897  1.0000
  H   H676      1.0  0.39348  0.66929  0.00774  1.0000
  H   H677      1.0  0.38801  0.82982  0.45570  1.0000
  Fe  Fe59      1.0  0.63807  0.58678  0.99297  1.0000
  C   C396      1.0  0.34813  0.74958  0.98748  1.0000
  S   S121      1.0  0.48115  0.93752  0.47962  1.0000
  C   C397      1.0  0.62817  0.50839  0.98931  1.0000
  C   C398      1.0  0.40404  0.76967  0.44939  1.0000
  H   H678      1.0  0.66219  0.76042  0.11429  1.0000
  H   H679      1.0  0.37373  0.75916  0.47761  1.0000
  C   C399      1.0  0.33207  0.49754  0.07638  1.0000
  H   H680      1.0  0.44543  0.53005  0.60944  1.0000
  H   H681      1.0  0.42148  0.73080  0.90768  1.0000
  S   S122      1.0  0.33407  0.64953  0.94038  1.0000
  H   H682      1.0  0.41463  0.70347  0.96757  1.0000
  Fe  Fe60      1.0  0.35500  0.61275  0.93224  1.0000
  S   S123      1.0  0.38504  0.60894  0.89077  1.0000
  H   H683      1.0  0.40766  0.67032  0.82524  1.0000
  N   N28       1.0  0.41669  0.54635  0.63822  1.0000
  H   H684      1.0  0.36563  0.69664  0.91216  1.0000
  C   C400      1.0  0.42534  0.54792  0.68238  1.0000
  H   H685      1.0  0.41441  0.76234  0.53292  1.0000
  Fe  Fe61      1.0  0.62759  0.61931  0.91317  1.0000
  S   S124      1.0  0.61318  0.62577  0.84721  1.0000
  C   C401      1.0  0.40305  0.52172  0.63268  1.0000
  Fe  Fe62      1.0  0.45754  0.61935  0.67748  1.0000
  S   S125      1.0  0.48293  0.65066  0.68590  1.0000
  S   S126      1.0  0.42369  0.62309  0.70428  1.0000
  Fe  Fe63      1.0  0.48544  0.58399  0.61732  1.0000
  S   S127      1.0  0.51271  0.61318  0.62322  1.0000
  S   S128      1.0  0.48829  0.54619  0.57354  1.0000
  Fe  Fe64      1.0  0.50508  0.61495  0.69299  1.0000
  S   S129      1.0  0.52509  0.60558  0.75192  1.0000
  Fe  Fe65      1.0  0.48871  0.64715  0.61539  1.0000
  S   S130      1.0  0.49284  0.67924  0.56212  1.0000
  S   S131      1.0  0.47910  0.58388  0.68728  1.0000
  S   S132      1.0  0.46192  0.61768  0.60664  1.0000
  H   H686      1.0  0.37668  0.66667  0.89146  1.0000
  H   H687      1.0  0.50050  0.52294  0.71105  1.0000
  H   H688      1.0  0.41349  0.97120  0.91287  1.0000
  C   C402      1.0  0.48642  0.51222  0.55310  1.0000
  H   H689      1.0  0.39155  0.75071  0.94627  1.0000
  H   H690      1.0  0.58814  0.52840  0.63166  1.0000
  C   C403      1.0  0.47807  0.49096  0.57703  1.0000
  H   H691      1.0  0.39356  0.51788  0.66173  1.0000
  C   C404      1.0  0.42841  0.54972  0.56028  1.0000
  H   H692      1.0  0.58782  0.55974  0.68816  1.0000
  H   H693      1.0  0.41380  0.49175  0.58611  1.0000
  C   C405      1.0  0.48678  0.73471  0.57760  1.0000
  C   C406      1.0  0.49011  0.71425  0.54789  1.0000
  C   C407      1.0  0.49172  0.72179  0.50507  1.0000
  H   H694      1.0  0.45735  0.96989  0.53992  1.0000
  H   H695      1.0  0.55632  0.50396  0.58422  1.0000
  H   H696      1.0  0.48550  0.72953  0.61061  1.0000
  H   H697      1.0  0.37417  0.55757  0.66455  1.0000
  C   C408      1.0  0.58834  0.62023  0.82190  1.0000
  C   C409      1.0  0.58486  0.63167  0.78188  1.0000
  C   C410      1.0  0.56553  0.62798  0.76040  1.0000
  C   C411      1.0  0.54948  0.61229  0.77828  1.0000
  C   C412      1.0  0.55292  0.60096  0.81840  1.0000
  C   C413      1.0  0.57211  0.60504  0.84022  1.0000
  H   H698      1.0  0.59723  0.64352  0.76736  1.0000
  H   H699      1.0  0.56318  0.63698  0.72976  1.0000
  H   H700      1.0  0.54065  0.58884  0.83272  1.0000
  H   H701      1.0  0.57445  0.59609  0.87091  1.0000
  H   H702      1.0  0.52874  0.51336  0.58114  1.0000
  H   H703      1.0  0.58774  0.73181  0.87093  1.0000
  H   H704      1.0  0.58227  0.97949  0.94985  1.0000
  C   C414      1.0  0.56498  0.68543  0.86402  1.0000
  H   H705      1.0  0.38316  0.79001  0.49659  1.0000
  H   H706      1.0  0.41281  0.65713  0.89874  1.0000
  H   H707      1.0  0.52659  0.51291  0.72557  1.0000
  C   C415      1.0  0.39519  0.61280  0.83840  1.0000
  C   C416      1.0  0.41678  0.60736  0.83074  1.0000
  C   C417      1.0  0.42581  0.61056  0.79019  1.0000
  C   C418      1.0  0.41333  0.61923  0.75650  1.0000
  C   C419      1.0  0.39172  0.62466  0.76413  1.0000
  C   C420      1.0  0.38271  0.62154  0.80473  1.0000
  H   H708      1.0  0.42664  0.60061  0.85644  1.0000
  H   H709      1.0  0.44241  0.60625  0.78505  1.0000
  H   H710      1.0  0.38186  0.63136  0.73841  1.0000
  H   H711      1.0  0.36610  0.62582  0.80992  1.0000
  H   H712      1.0  0.53818  0.56125  0.59971  1.0000
  C   C421      1.0  0.52400  0.53341  0.66365  1.0000
  C   C422      1.0  0.49359  0.50627  0.51193  1.0000
  H   H713      1.0  0.51411  0.55024  0.65146  1.0000
  H   H714      1.0  0.51860  0.51519  0.64654  1.0000
  C   C423      1.0  0.48678  0.96924  0.50534  1.0000
  C   C424      1.0  0.39007  0.74767  0.91176  1.0000
  H   H715      1.0  0.42323  0.57047  0.55237  1.0000
  S   S133      1.0  0.65443  0.59075  0.92999  1.0000
  H   H716      1.0  0.56861  0.63730  0.95256  1.0000
  H   H717      1.0  0.58034  0.74357  0.96011  1.0000
  H   H718      1.0  0.54234  0.58032  0.67332  1.0000
  H   H719      1.0  0.43141  0.78415  0.56187  1.0000
  H   H720      1.0  0.62900  0.70771  0.96926  1.0000
  C   C425      1.0  0.58394  0.67410  0.93020  1.0000
  H   H721      1.0  0.35963  0.71412  0.84756  1.0000
  C   C426      1.0  0.56007  0.71474  0.92606  1.0000
  H   H722      1.0  0.39133  0.52532  0.60714  1.0000
  H   H723      1.0  0.57992  0.57996  0.64281  1.0000
  H   H724      1.0  0.55487  0.73146  0.90506  1.0000
  C   C427      1.0  0.44111  0.52588  0.69566  1.0000
  H   H725      1.0  0.43206  0.68262  0.90692  1.0000
  H   H726      1.0  0.48300  0.77745  0.58839  1.0000
  H   H727      1.0  0.43332  0.56760  0.68731  1.0000
  C   C428      1.0  0.54516  0.52084  0.57898  1.0000
  C   C429      1.0  0.51739  0.52907  0.71006  1.0000
  H   H728      1.0  0.58499  0.49280  0.63524  1.0000
  H   H729      1.0  0.43324  0.50608  0.69861  1.0000
  H   H730      1.0  0.56048  0.70213  0.84236  1.0000
  H   H731      1.0  0.39590  0.57096  0.59962  1.0000
  H   H732      1.0  0.50015  0.52226  0.49283  1.0000
  H   H733      1.0  0.41211  0.81062  0.51111  1.0000
  S   S134      1.0  0.61019  0.61263  0.97458  1.0000
  H   H734      1.0  0.54516  0.70454  0.93458  1.0000
  H   H735      1.0  0.43460  0.66418  0.83677  1.0000
  C   C430      1.0  0.39958  0.69557  0.95425  1.0000
  H   H736      1.0  0.57620  0.67250  0.84610  1.0000
  H   H737      1.0  0.62949  0.75675  0.95443  1.0000
  C   C431      1.0  0.39615  0.66737  0.97323  1.0000
  H   H738      1.0  0.54911  0.64873  0.88671  1.0000
  H   H739      1.0  0.42626  0.69809  0.83089  1.0000
  C   C432      1.0  0.40546  0.72583  0.89540  1.0000
  H   H740      1.0  0.55712  0.73326  0.51936  1.0000
  H   H741      1.0  0.41238  0.54711  0.70618  1.0000
  C   C433      1.0  0.54522  0.66780  0.87042  1.0000
  H   H742      1.0  0.38509  0.70539  0.82561  1.0000
  H   H743      1.0  0.55144  0.55945  0.71495  1.0000
  C   C434      1.0  0.58284  0.51203  0.65263  1.0000
  S   S135      1.0  0.48505  0.80462  0.50812  1.0000
  C   C435      1.0  0.38467  0.57533  0.66266  1.0000
  H   H744      1.0  0.60224  0.72218  0.91618  1.0000
  H   H745      1.0  0.41590  0.53520  0.55166  1.0000
  C   C436      1.0  0.57596  0.57397  0.67545  1.0000
  H   H746      1.0  0.53209  0.67844  0.88657  1.0000
  H   H747      1.0  0.59177  0.65853  0.91030  1.0000
  H   H748      1.0  0.47274  0.49472  0.60887  1.0000
  H   H749      1.0  0.37340  0.74316  0.90393  1.0000
  C   C437      1.0  0.42126  0.67825  0.84318  1.0000
  H   H750      1.0  0.39403  0.76725  0.89685  1.0000
  H   H751      1.0  0.53917  0.66188  0.83894  1.0000
  C   C438      1.0  0.42533  0.79836  0.49835  1.0000
  H   H752      1.0  0.56500  0.55265  0.60021  1.0000
  H   H753      1.0  0.59393  0.51139  0.67968  1.0000
  C   C439      1.0  0.54926  0.54475  0.60885  1.0000
  C   C440      1.0  0.37203  0.69825  0.84583  1.0000
  H   H754      1.0  0.43932  0.81192  0.50016  1.0000
  H   H755      1.0  0.37492  0.59261  0.65181  1.0000
  C   C441      1.0  0.42860  0.77531  0.53025  1.0000
  C   C442      1.0  0.55975  0.51444  0.66896  1.0000
  C   C443      1.0  0.55322  0.56330  0.68060  1.0000
  H   H756      1.0  0.45518  0.52469  0.67478  1.0000
  S   S136      1.0  0.64554  0.65557  0.93689  1.0000
  N   N29       1.0  0.54721  0.53878  0.65535  1.0000
  C   C444      1.0  0.48706  0.76953  0.52207  1.0000
  C   C445      1.0  0.41678  0.67835  0.89090  1.0000
  H   H757      1.0  0.62414  0.71431  0.85675  1.0000
  H   H758      1.0  0.40684  0.72889  0.86103  1.0000
  H   H759      1.0  0.60470  0.69571  0.82888  1.0000
  C   C446      1.0  0.37827  0.68897  0.89067  1.0000
  C   C447      1.0  0.61062  0.70030  0.86090  1.0000
  C   C448      1.0  0.41447  0.49516  0.62067  1.0000
  C   C449      1.0  0.49002  0.74906  0.49219  1.0000
  C   C450      1.0  0.59360  0.71395  0.88873  1.0000
  H   H760      1.0  0.34305  0.70739  0.97458  1.0000
  H   H761      1.0  0.41018  0.65418  0.96891  1.0000
  H   H762      1.0  0.62307  0.52279  0.96587  1.0000
  H   H763      1.0  0.41314  0.58968  0.63231  1.0000
  H   H764      1.0  0.44248  0.54536  0.54020  1.0000
  C   C451      1.0  0.48540  0.76201  0.56480  1.0000
  C   C452      1.0  0.43475  0.54758  0.60703  1.0000
  C   C453      1.0  0.40322  0.57116  0.63141  1.0000
  H   H765      1.0  0.43100  0.49331  0.63136  1.0000
  C   C454      1.0  0.56808  0.65922  0.95937  1.0000
  H   H766      1.0  0.61704  0.68182  0.87548  1.0000
  N   N30       1.0  0.57536  0.69649  0.90301  1.0000
  H   H767      1.0  0.51837  0.54792  0.72865  1.0000
  H   H768      1.0  0.36469  0.68109  0.82891  1.0000
  H   H769      1.0  0.44510  0.56502  0.61409  1.0000
  H   H770      1.0  0.56046  0.51346  0.70397  1.0000
  H   H771      1.0  0.64544  0.97661  0.95480  1.0000
  H   H772      1.0  0.55147  0.49564  0.65943  1.0000
  H   H773      1.0  0.39029  0.58081  0.69456  1.0000
  H   H774      1.0  0.44713  0.53091  0.72753  1.0000
  H   H775      1.0  0.38199  0.65752  0.96007  1.0000
  H   H776      1.0  0.54740  0.52768  0.54593  1.0000
  N   N31       1.0  0.39975  0.69725  0.90668  1.0000
  H   H777      1.0  0.44266  0.76282  0.52291  1.0000
  H   H778      1.0  0.53469  0.79961  0.52249  1.0000
  H   H779      1.0  0.57747  0.59251  0.69466  1.0000
  C   C455      1.0  0.54815  0.74215  0.49273  1.0000
  H   H780      1.0  0.34561  0.75581  0.95526  1.0000
  H   H781      1.0  0.59678  0.68172  0.95088  1.0000
  H   H782      1.0  0.58048  0.97686  0.62250  1.0000
  H   H783      1.0  0.55137  0.66531  0.95666  1.0000
  C   C456      1.0  0.47198  0.98049  0.53389  1.0000
  H   H784      1.0  0.56032  0.81056  0.50317  1.0000
  H   H785      1.0  0.53481  0.75372  0.50647  1.0000
  C   C457      1.0  0.56856  0.72762  0.96688  1.0000
  C   C458      1.0  0.54323  0.80986  0.49637  1.0000
  H   H786      1.0  0.33560  0.97998  0.94354  1.0000
  H   H787      1.0  0.53754  0.83098  0.49765  1.0000
  H   H788      1.0  0.57288  0.77142  0.48837  1.0000
  H   H789      1.0  0.38679  0.70834  0.96787  1.0000
  S   S137      1.0  0.99420  0.14748  0.37796  1.0000
  C   C459      1.0  0.99631  0.42270  0.46000  1.0000
  S   S138      1.0  0.96398  0.10966  0.43810  1.0000
  H   H790      1.0  0.80511  0.42206  0.13660  1.0000
  C   C460      1.0  0.70244  0.23580  0.04339  1.0000
  H   H791      1.0  0.74602  0.46655  0.10987  1.0000
  Fe  Fe66      1.0  0.97169  0.11271  0.36828  1.0000
  S   S139      1.0  0.95187  0.11881  0.30779  1.0000
  H   H792      1.0  0.88412  0.22954  0.40560  1.0000
  S   S140      1.0  0.83348  0.36869  0.03160  1.0000
  S   S141      1.0  0.87170  0.43018  0.02903  1.0000
  S   S142      1.0  0.86373  0.30172  0.04835  1.0000
  S   S143      1.0  0.70953  0.37180  0.11295  1.0000
  Fe  Fe67      1.0  0.85024  0.11139  0.14007  1.0000
  S   S144      1.0  0.86821  0.11605  0.07874  1.0000
  S   S145      1.0  0.86456  0.10454  0.20634  1.0000
  Fe  Fe68      1.0  0.80695  0.10807  0.09346  1.0000
  S   S146      1.0  0.82247  0.11206  0.03077  1.0000
  S   S147      1.0  0.77146  0.09983  0.09697  1.0000
  Fe  Fe69      1.0  0.84689  0.08336  0.05435  1.0000
  H   H793      1.0  0.70053  0.31320  0.10140  1.0000
  Fe  Fe70      1.0  0.84192  0.14458  0.06040  1.0000
  H   H794      1.0  0.79262  0.03944  0.09072  1.0000
  S   S148      1.0  0.83028  0.07690  0.11589  1.0000
  S   S149      1.0  0.82500  0.14223  0.12305  1.0000
  C   C461      1.0  0.70824  0.29354  0.10736  1.0000
  C   C462      1.0  0.71796  0.10152  0.02580  1.0000
  C   C463      1.0  0.73245  0.09788  0.05898  1.0000
  C   C464      1.0  0.75349  0.10679  0.05537  1.0000
  C   C465      1.0  0.75980  0.11975  0.01820  1.0000
  H   H795      1.0  0.70195  0.09420  0.02902  1.0000
  H   H796      1.0  0.72735  0.08791  0.08756  1.0000
  H   H797      1.0  0.88473  0.19458  0.41253  1.0000
  C   C466      1.0  0.86038  0.46251  0.02598  1.0000
  H   H798      1.0  0.79889  0.47535  0.02439  1.0000
  C   C467      1.0  0.84425  0.00818  0.05683  1.0000
  C   C468      1.0  0.85203  0.01679  0.01790  1.0000
  H   H799      1.0  0.76598  0.03878  0.07338  1.0000
  H   H800      1.0  0.97545  0.21000  0.34761  1.0000
  H   H801      1.0  0.84018  0.02271  0.08076  1.0000
  C   C469      1.0  0.85529  0.26811  0.04354  1.0000
  H   H802      1.0  0.82600  0.40788  0.10679  1.0000
  C   C470      1.0  0.84619  0.21336  0.02984  1.0000
  C   C471      1.0  0.86057  0.22075  0.06105  1.0000
  C   C472      1.0  0.86523  0.24808  0.06761  1.0000
  H   H803      1.0  0.86880  0.20537  0.07872  1.0000
  H   H804      1.0  0.87702  0.25366  0.09057  1.0000
  H   H805      1.0  0.91217  0.08330  0.08098  1.0000
  C   C473      1.0  0.72433  0.38175  0.03191  1.0000
  C   C474      1.0  0.72903  0.37233  0.07232  1.0000
  C   C475      1.0  0.74977  0.36339  0.08069  1.0000
  C   C476      1.0  0.76551  0.36356  0.04888  1.0000
  H   H806      1.0  0.70862  0.38911  0.02503  1.0000
  H   H807      1.0  0.75363  0.35613  0.11185  1.0000
  H   H808      1.0  0.78135  0.35651  0.05566  1.0000
  C   C477      1.0  0.92753  0.11412  0.28000  1.0000
  C   C478      1.0  0.92574  0.12402  0.23854  1.0000
  C   C479      1.0  0.90671  0.12146  0.21555  1.0000
  C   C480      1.0  0.88903  0.10906  0.23381  1.0000
  C   C481      1.0  0.89085  0.09912  0.27526  1.0000
  C   C482      1.0  0.90992  0.10149  0.29812  1.0000
  H   H809      1.0  0.93917  0.13388  0.22408  1.0000
  H   H810      1.0  0.90568  0.12928  0.18382  1.0000
  H   H811      1.0  0.87736  0.08942  0.28982  1.0000
  H   H812      1.0  0.91093  0.09372  0.32987  1.0000
  C   C483      1.0  0.78221  0.03196  0.06520  1.0000
  C   C484      1.0  0.85618  0.99777  0.98620  1.0000
  H   H813      1.0  0.71663  0.29537  0.13788  1.0000
  C   C485      1.0  0.77730  0.44943  0.99267  1.0000
  H   H814      1.0  0.69209  0.26194  0.99400  1.0000
  C   C486      1.0  0.78997  0.46889  0.10797  1.0000
  H   H815      1.0  0.78961  0.43462  0.98328  1.0000
  N   N32       1.0  0.78572  0.44947  0.07247  1.0000
  H   H816      1.0  0.89235  0.01329  0.07861  1.0000
  H   H817      1.0  0.90676  0.99430  0.16535  1.0000
  C   C487      1.0  0.76573  0.43422  0.08220  1.0000
  S   S150      1.0  0.84319  0.17954  0.01454  1.0000
  H   H818      1.0  0.87992  0.47846  0.07545  1.0000
  H   H819      1.0  0.98143  0.42837  0.47619  1.0000
  H   H820      1.0  0.99691  0.37057  0.40621  1.0000
  H   H821      1.0  0.99405  0.42257  0.42539  1.0000
  H   H822      1.0  0.74141  0.46068  0.05413  1.0000
  C   C488      1.0  0.69097  0.98979  0.03679  1.0000
  C   C489      1.0  0.96266  0.20966  0.37176  1.0000
  H   H823      1.0  0.76712  0.42332  0.11274  1.0000
  H   H824      1.0  0.84520  0.01225  0.15783  1.0000
  H   H825      1.0  0.76186  0.43915  0.99627  1.0000
  Fe  Fe71      1.0  0.99137  0.07979  0.44240  1.0000
  H   H826      1.0  0.94990  0.36982  0.41364  1.0000
  H   H827      1.0  0.95690  0.23061  0.37528  1.0000
  H   H828      1.0  0.73188  0.43755  0.09262  1.0000
  C   C490      1.0  0.75569  0.04586  0.98718  1.0000
  H   H829      1.0  0.89763  0.21589  0.45076  1.0000
  H   H830      1.0  0.70719  0.23572  0.07692  1.0000
  C   C491      1.0  0.78990  0.04401  0.02302  1.0000
  H   H831      1.0  0.91847  0.14071  0.44577  1.0000
  C   C492      1.0  0.96419  0.38277  0.41374  1.0000
  H   H832      1.0  0.89189  0.15422  0.31708  1.0000
  H   H833      1.0  0.92539  0.22794  0.40653  1.0000
  H   H834      1.0  0.79964  0.41469  0.04192  1.0000
  C   C493      1.0  0.94504  0.19044  0.35669  1.0000
  H   H835      1.0  0.75567  0.06781  0.99297  1.0000
  H   H836      1.0  0.96066  0.40143  0.43128  1.0000
  H   H837      1.0  0.86870  0.99239  0.16293  1.0000
  H   H838      1.0  0.68937  0.99865  0.00483  1.0000
  N   N33       1.0  0.71562  0.28427  0.02874  1.0000
  C   C494      1.0  0.90284  0.17081  0.32546  1.0000
  H   H839      1.0  0.78316  0.00972  0.06594  1.0000
  H   H840      1.0  0.92236  0.14558  0.36490  1.0000
  H   H841      1.0  0.80004  0.39273  0.10532  1.0000
  H   H842      1.0  0.94988  0.16474  0.42389  1.0000
  H   H843      1.0  0.78893  0.06620  0.02700  1.0000
  C   C495      1.0  0.80872  0.41213  0.10629  1.0000
  H   H844      1.0  0.91480  0.17173  0.29982  1.0000
  H   H845      1.0  0.86018  0.01475  0.20489  1.0000
  Fe  Fe72      1.0  0.98798  0.14331  0.44764  1.0000
  H   H846      1.0  0.73272  0.26760  0.08192  1.0000
  H   H847      1.0  0.90577  0.17124  0.46450  1.0000
  H   H848      1.0  0.76312  0.41819  0.05859  1.0000
  C   C496      1.0  0.76068  0.37294  0.00843  1.0000
  C   C497      1.0  0.74528  0.45114  0.08470  1.0000
  H   H849      1.0  0.91191  0.22205  0.35966  1.0000
  H   H850      1.0  0.92585  0.01452  0.13924  1.0000
  H   H851      1.0  0.91660  0.04817  0.07512  1.0000
  C   C498      1.0  0.83997  0.26080  0.01418  1.0000
  C   C499      1.0  0.72444  0.28647  0.07259  1.0000
  H   H852      1.0  0.69264  0.00643  0.05993  1.0000
  C   C500      1.0  0.83578  0.23347  0.00671  1.0000
  H   H853      1.0  0.72339  0.98308  0.05155  1.0000
  H   H854      1.0  0.94129  0.19532  0.44699  1.0000
  H   H855      1.0  0.74724  0.03715  0.01474  1.0000
  S   S151      1.0  0.85728  0.05101  0.00817  1.0000
  H   H856      1.0  0.89982  0.15887  0.38977  1.0000
  Fe  Fe73      1.0  0.85629  0.39496  0.99642  1.0000
  N   N34       1.0  0.89745  0.03592  0.15803  1.0000
  C   C501      1.0  0.90031  0.03765  0.20521  1.0000
  C   C502      1.0  0.87395  0.03574  0.15014  1.0000
  C   C503      1.0  0.90680  0.06099  0.13870  1.0000
  C   C504      1.0  0.90851  0.01092  0.14203  1.0000
  C   C505      1.0  0.92308  0.04234  0.22097  1.0000
  C   C506      1.0  0.86161  0.01224  0.17026  1.0000
  C   C507      1.0  0.90608  0.06322  0.09037  1.0000
  Fe  Fe74      1.0  0.67422  0.36942  0.09759  1.0000
  H   H857      1.0  0.89029  0.05398  0.21877  1.0000
  H   H858      1.0  0.89483  0.01888  0.22088  1.0000
  H   H859      1.0  0.87023  0.03589  0.11626  1.0000
  H   H860      1.0  0.86662  0.05463  0.16220  1.0000
  H   H861      1.0  0.89886  0.07924  0.15186  1.0000
  H   H862      1.0  0.92384  0.06293  0.14652  1.0000
  H   H863      1.0  0.68772  0.22366  0.04131  1.0000
  C   C508      1.0  0.78367  0.46543  0.03229  1.0000
  H   H864      1.0  0.92353  0.03901  0.25557  1.0000
  H   H865      1.0  0.93466  0.02838  0.20629  1.0000
  H   H866      1.0  0.97963  0.34504  0.42485  1.0000
  H   H867      1.0  0.92807  0.06351  0.21598  1.0000
  H   H868      1.0  0.81825  0.43907  0.05550  1.0000
  H   H869      1.0  0.95279  0.17083  0.34931  1.0000
  H   H870      1.0  0.71451  0.22529  0.02395  1.0000
  H   H871      1.0  0.73949  0.25521  0.01043  1.0000
  H   H872      1.0  0.88986  0.06183  0.07759  1.0000
  C   C509      1.0  0.75255  0.29367  0.99642  1.0000
  H   H873      1.0  0.80713  0.03963  0.01991  1.0000
  H   H874      1.0  0.69603  0.27777  0.11133  1.0000
  N   N35       1.0  0.92669  0.18637  0.38673  1.0000
  H   H875      1.0  0.76468  0.28815  0.02015  1.0000
  H   H876      1.0  0.77586  0.12695  0.01500  1.0000
  C   C510      1.0  0.93564  0.17764  0.42867  1.0000
  C   C511      1.0  0.91513  0.21280  0.39094  1.0000
  H   H877      1.0  0.73685  0.30234  0.07386  1.0000
  H   H878      1.0  0.89326  0.18950  0.32614  1.0000
  S   S152      1.0  0.99749  0.08102  0.37187  1.0000
  C   C512      1.0  0.89439  0.21284  0.41674  1.0000
  C   C513      1.0  0.80346  0.42940  0.06718  1.0000
  H   H879      1.0  0.96566  0.99747  0.46553  1.0000
  N   N36       1.0  0.99111  0.37164  0.47342  1.0000
  C   C514      1.0  0.91300  0.16449  0.36846  1.0000
  H   H880      1.0  0.78715  0.45947  0.13927  1.0000
  C   C515      1.0  0.98377  0.36667  0.42891  1.0000
  S   S153      1.0  0.66559  0.36905  0.02960  1.0000
  H   H881      1.0  0.95229  0.34400  0.47724  1.0000
  H   H882      1.0  0.97011  0.20288  0.40152  1.0000
  Fe  Fe75      1.0  0.85216  0.33430  0.00443  1.0000
  C   C516      1.0  0.90083  0.99918  0.09947  1.0000
  H   H883      1.0  0.71774  0.32782  0.02569  1.0000
  C   C517      1.0  0.73999  0.38189  0.00021  1.0000
  H   H884      1.0  0.96670  0.38882  0.38039  1.0000
  H   H885      1.0  0.69188  0.31584  0.03214  1.0000
  H   H886      1.0  0.93957  0.19852  0.32594  1.0000
  H   H887      1.0  0.76671  0.99636  0.00543  1.0000
  C   C518      1.0  0.73310  0.27493  0.99976  1.0000
  C   C519      1.0  0.69767  0.26438  0.02692  1.0000
  H   H888      1.0  0.82488  0.46625  0.11328  1.0000
  H   H889      1.0  0.91476  0.99185  0.08125  1.0000
  H   H890      1.0  0.68361  0.27194  0.04462  1.0000
  C   C520      1.0  0.70710  0.31139  0.01568  1.0000
  H   H891      1.0  0.80637  0.99315  0.01387  1.0000
  H   H892      1.0  0.83192  0.27617  0.99623  1.0000
  C   C521      1.0  0.92111  0.16130  0.45823  1.0000
  C   C522      1.0  0.72431  0.11411  0.98839  1.0000
  H   H893      1.0  0.90033  0.27662  0.00305  1.0000
  C   C523      1.0  0.74533  0.12320  0.98483  1.0000
  C   C524      1.0  0.81225  0.48148  0.10848  1.0000
  N   N37       1.0  0.77803  0.03528  0.98426  1.0000
  C   C525      1.0  0.84469  0.46838  0.99651  1.0000
  C   C526      1.0  0.79871  0.99040  0.98296  1.0000
  H   H894      1.0  0.74866  0.31521  0.00050  1.0000
  H   H895      1.0  0.82464  0.22781  0.98255  1.0000
  H   H896      1.0  0.91268  0.25731  0.96223  1.0000
  H   H897      1.0  0.77005  0.99897  0.95027  1.0000
  S   S154      1.0  0.96815  0.36250  0.62444  1.0000
  S   S155      1.0  0.77979  0.37472  0.96732  1.0000
  H   H898      1.0  0.80968  0.99680  0.95754  1.0000
  C   C527      1.0  0.88360  0.27922  0.94337  1.0000
  Fe  Fe76      1.0  0.97659  0.36319  0.69394  1.0000
  S   S156      1.0  0.95880  0.36244  0.75775  1.0000
  C   C528      1.0  0.98977  0.46435  0.54833  1.0000
  Fe  Fe77      1.0  0.85612  0.36005  0.91707  1.0000
  H   H899      1.0  0.94339  0.35817  0.52612  1.0000
  S   S157      1.0  0.86793  0.35524  0.84879  1.0000
  H   H900      1.0  0.85172  0.41402  0.83414  1.0000
  H   H901      1.0  0.80655  0.04130  0.94724  1.0000
  C   C529      1.0  0.97887  0.24848  0.56527  1.0000
  H   H902      1.0  0.90957  0.47438  0.95676  1.0000
  S   S158      1.0  0.83703  0.39635  0.93740  1.0000
  S   S159      1.0  0.83261  0.33087  0.94568  1.0000
  H   H903      1.0  0.89345  0.21695  0.94562  1.0000
  S   S160      1.0  0.70688  0.11736  0.94474  1.0000
  H   H904      1.0  0.72615  0.05123  0.95357  1.0000
  C   C530      1.0  0.99414  0.26525  0.54681  1.0000
  H   H905      1.0  0.87166  0.26688  0.95964  1.0000
  H   H906      1.0  0.78349  0.03685  0.91663  1.0000
  H   H907      1.0  0.73607  0.38920  0.96909  1.0000
  H   H908      1.0  0.71795  0.31600  0.94990  1.0000
  H   H909      1.0  0.88975  0.41140  0.84224  1.0000
  H   H910      1.0  0.86659  0.22711  0.93459  1.0000
  H   H911      1.0  0.86182  0.00447  0.95579  1.0000
  H   H912      1.0  0.79826  0.08292  0.91280  1.0000
  C   C531      1.0  0.93323  0.36086  0.78201  1.0000
  C   C532      1.0  0.91456  0.35790  0.75895  1.0000
  C   C533      1.0  0.89480  0.35632  0.77993  1.0000
  C   C534      1.0  0.89335  0.35773  0.82416  1.0000
  C   C535      1.0  0.91200  0.36089  0.84722  1.0000
  C   C536      1.0  0.93175  0.36239  0.82628  1.0000
  H   H913      1.0  0.91536  0.35668  0.72497  1.0000
  H   H914      1.0  0.88053  0.35390  0.76165  1.0000
  H   H915      1.0  0.91127  0.36176  0.88120  1.0000
  H   H916      1.0  0.94606  0.36456  0.84450  1.0000
  H   H917      1.0  0.96358  0.39357  0.49782  1.0000
  C   C537      1.0  0.97538  0.47777  0.52154  1.0000
  H   H918      1.0  0.91144  0.48142  0.85604  1.0000
  C   C538      1.0  0.90529  0.28856  0.83033  1.0000
  C   C539      1.0  0.78937  0.04633  0.94607  1.0000
  H   H919      1.0  0.96472  0.33472  0.52641  1.0000
  H   H920      1.0  0.92716  0.45115  0.90270  1.0000
  H   H921      1.0  0.90773  0.42763  0.96350  1.0000
  H   H922      1.0  0.79403  0.08826  0.96762  1.0000
  C   C540      1.0  0.98604  0.21229  0.51337  1.0000
  C   C541      1.0  0.97483  0.22245  0.54860  1.0000
  H   H923      1.0  0.89870  0.31177  0.88629  1.0000
  H   H924      1.0  0.91182  0.47053  0.78190  1.0000
  H   H925      1.0  0.90750  0.26760  0.81926  1.0000
  C   C542      1.0  0.78811  0.07712  0.93997  1.0000
  C   C543      1.0  0.97312  0.37535  0.50435  1.0000
  N   N38       1.0  0.88531  0.27226  0.89724  1.0000
  H   H926      1.0  0.97004  0.25555  0.59237  1.0000
  C   C544      1.0  0.90698  0.98633  0.90767  1.0000
  C   C545      1.0  0.86470  0.27903  0.87581  1.0000
  C   C546      1.0  0.89147  0.24325  0.88976  1.0000
  C   C547      1.0  0.88109  0.42409  0.86543  1.0000
  H   H927      1.0  0.87784  0.30028  0.94753  1.0000
  H   H928      1.0  0.88346  0.99008  0.86026  1.0000
  C   C548      1.0  0.88205  0.22199  0.92028  1.0000
  S   S161      1.0  0.87678  0.36069  0.97419  1.0000
  H   H929      1.0  0.91976  0.29994  0.82145  1.0000
  C   C549      1.0  0.85987  0.43245  0.84538  1.0000
  H   H930      1.0  0.97948  0.37901  0.53646  1.0000
  H   H931      1.0  0.72714  0.27057  0.96752  1.0000
  H   H932      1.0  0.86572  0.27519  0.84138  1.0000
  H   H933      1.0  0.88736  0.23708  0.85709  1.0000
  H   H934      1.0  0.90897  0.24096  0.89221  1.0000
  C   C550      1.0  0.91409  0.41694  0.93554  1.0000
  C   C551      1.0  0.91549  0.43499  0.89606  1.0000
  H   H935      1.0  0.91789  0.28587  0.89232  1.0000
  H   H936      1.0  0.74831  0.04845  0.91901  1.0000
  C   C552      1.0  0.90211  0.29031  0.87852  1.0000
  H   H937      1.0  0.77184  0.08407  0.93270  1.0000
  H   H938      1.0  0.84184  0.26582  0.92457  1.0000
  H   H939      1.0  0.83091  0.27198  0.87417  1.0000
  H   H940      1.0  0.96293  0.20996  0.56341  1.0000
  H   H941      1.0  0.92355  0.44313  0.80952  1.0000
  S   S162      1.0  0.98251  0.43216  0.57100  1.0000
  H   H942      1.0  0.88524  0.47832  0.83759  1.0000
  Fe  Fe78      1.0  0.99174  0.39678  0.61623  1.0000
  H   H943      1.0  0.69475  0.33471  0.96337  1.0000
  H   H944      1.0  0.86901  0.47172  0.90337  1.0000
  H   H945      1.0  0.86112  0.30088  0.87929  1.0000
  H   H946      1.0  0.90004  0.99499  0.93692  1.0000
  H   H947      1.0  0.87963  0.20288  0.90281  1.0000
  Fe  Fe79      1.0  0.81538  0.36733  0.97123  1.0000
  H   H948      1.0  0.91510  0.00258  0.88984  1.0000
  C   C553      1.0  0.99145  0.00794  0.50620  1.0000
  H   H949      1.0  0.84910  0.44211  0.86858  1.0000
  H   H950      1.0  0.91491  0.29368  0.96307  1.0000
  H   H951      1.0  0.84589  0.24202  0.88161  1.0000
  H   H952      1.0  0.89206  0.29827  0.81315  1.0000
  H   H953      1.0  0.89697  0.44049  0.78899  1.0000
  C   C554      1.0  0.74149  0.04056  0.94871  1.0000
  H   H954      1.0  0.73783  0.01888  0.94520  1.0000
  H   H955      1.0  0.87698  0.41024  0.89165  1.0000
  C   C555      1.0  0.84496  0.26356  0.89049  1.0000
  N   N39       1.0  0.89486  0.44671  0.88076  1.0000
  C   C556      1.0  0.90422  0.27639  0.96887  1.0000
  H   H956      1.0  0.92296  0.42230  0.87117  1.0000
  C   C557      1.0  0.90844  0.45404  0.80456  1.0000
  H   H957      1.0  0.86196  0.44569  0.81763  1.0000
  S   S163      1.0  0.99599  0.04130  0.48448  1.0000
  Fe  Fe80      1.0  0.99576  0.33358  0.61564  1.0000
  H   H958      1.0  0.69258  0.29931  0.95531  1.0000
  C   C558      1.0  0.97563  0.99074  0.49104  1.0000
  H   H959      1.0  0.75044  0.13300  0.95612  1.0000
  S   S164      1.0  0.97994  0.17895  0.49364  1.0000
  H   H960      1.0  0.90459  0.39869  0.92973  1.0000
  H   H961      1.0  0.96007  0.46884  0.51587  1.0000
  H   H962      1.0  0.83897  0.45282  0.97575  1.0000
  H   H963      1.0  0.92919  0.15882  0.48904  1.0000
  H   H964      1.0  0.77569  0.46361  0.96584  1.0000
  C   C559      1.0  0.95763  0.35152  0.50819  1.0000
  C   C560      1.0  0.89957  0.46635  0.84575  1.0000
  H   H965      1.0  0.75965  0.29202  0.96443  1.0000
  H   H966      1.0  0.87727  0.44684  0.93952  1.0000
  C   C561      1.0  0.70298  0.31517  0.96821  1.0000
  H   H967      1.0  0.93026  0.40994  0.94384  1.0000
  C   C562      1.0  0.88333  0.46132  0.91564  1.0000
  H   H968      1.0  0.99387  0.32884  0.48621  1.0000
  Fe  Fe81      1.0  0.67109  0.11455  0.95410  1.0000
  S   S165      1.0  0.99832  0.39895  0.68606  1.0000
  C   C563      1.0  0.77721  0.00507  0.98074  1.0000
  H   H969      1.0  0.71576  0.96657  0.00532  1.0000
  H   H970      1.0  0.73165  0.92400  0.02688  1.0000
  S   S166      1.0  0.96649  0.60428  0.44207  1.0000
  H   H971      1.0  0.73838  0.78019  0.07423  1.0000
  H   H972      1.0  0.90103  0.65330  0.04495  1.0000
  H   H973      1.0  0.97495  0.57856  0.17065  1.0000
  Fe  Fe82      1.0  0.96579  0.60178  0.37073  1.0000
  S   S167      1.0  0.93893  0.58547  0.32892  1.0000
  H   H974      1.0  0.67272  0.69659  0.03457  1.0000
  S   S168      1.0  0.81929  0.86077  0.02277  1.0000
  S   S169      1.0  0.84397  0.92718  0.04601  1.0000
  S   S170      1.0  0.85015  0.79880  0.04249  1.0000
  S   S171      1.0  0.69995  0.85638  0.10261  1.0000
  Fe  Fe83      1.0  0.85294  0.61756  0.13318  1.0000
  S   S172      1.0  0.86731  0.60900  0.06913  1.0000
  S   S173      1.0  0.87449  0.62993  0.18866  1.0000
  Fe  Fe84      1.0  0.80784  0.62490  0.09368  1.0000
  S   S174      1.0  0.82035  0.61788  0.02897  1.0000
  S   S175      1.0  0.77257  0.63413  0.10201  1.0000
  Fe  Fe85      1.0  0.83835  0.58353  0.05771  1.0000
  Fe  Fe86      1.0  0.98640  0.64213  0.43403  1.0000
  Fe  Fe87      1.0  0.84757  0.64387  0.04690  1.0000
  H   H975      1.0  0.98636  0.54661  0.16877  1.0000
  S   S176      1.0  0.82490  0.58962  0.12307  1.0000
  S   S177      1.0  0.83405  0.65346  0.11034  1.0000
  C   C564      1.0  0.70180  0.92899  0.13940  1.0000
  C   C565      1.0  0.71759  0.63778  0.03527  1.0000
  C   C566      1.0  0.73257  0.63789  0.06809  1.0000
  C   C567      1.0  0.75426  0.63419  0.05963  1.0000
  H   H976      1.0  0.71760  0.91969  0.14388  1.0000
  H   H977      1.0  0.70095  0.64025  0.04238  1.0000
  H   H978      1.0  0.72729  0.64047  0.10032  1.0000
  C   C568      1.0  0.68826  0.78271  0.13973  1.0000
  C   C569      1.0  0.84629  0.96151  0.03350  1.0000
  H   H979      1.0  0.81552  0.49308  0.07944  1.0000
  C   C570      1.0  0.85931  0.50912  0.05019  1.0000
  C   C571      1.0  0.84375  0.51501  0.02045  1.0000
  H   H980      1.0  0.69029  0.90766  0.05897  1.0000
  H   H981      1.0  0.71371  0.96782  0.12018  1.0000
  H   H982      1.0  0.86485  0.52471  0.07115  1.0000
  C   C572      1.0  0.85173  0.76467  0.02859  1.0000
  C   C573      1.0  0.85640  0.70936  0.01148  1.0000
  N   N40       1.0  0.71318  0.54772  0.99679  1.0000
  C   C574      1.0  0.84876  0.71796  0.05060  1.0000
  C   C575      1.0  0.84668  0.74547  0.05926  1.0000
  H   H983      1.0  0.84480  0.70349  0.07461  1.0000
  H   H984      1.0  0.84117  0.75195  0.08997  1.0000
  H   H985      1.0  0.79801  0.77584  0.02631  1.0000
  C   C576      1.0  0.71272  0.85817  0.01836  1.0000
  C   C577      1.0  0.71880  0.85638  0.06058  1.0000
  C   C578      1.0  0.74052  0.85498  0.06991  1.0000
  C   C579      1.0  0.75595  0.85562  0.03756  1.0000
  H   H986      1.0  0.68329  0.51796  0.03732  1.0000
  H   H987      1.0  0.74550  0.85362  0.10240  1.0000
  H   H988      1.0  0.77258  0.85464  0.04535  1.0000
  C   C580      1.0  0.92177  0.59843  0.28900  1.0000
  C   C581      1.0  0.91862  0.62601  0.28266  1.0000
  C   C582      1.0  0.90410  0.63512  0.25200  1.0000
  C   C583      1.0  0.89288  0.61693  0.22640  1.0000
  C   C584      1.0  0.89646  0.58935  0.23202  1.0000
  C   C585      1.0  0.91062  0.58023  0.26335  1.0000
  H   H989      1.0  0.92684  0.64030  0.30231  1.0000
  H   H990      1.0  0.90127  0.65646  0.24874  1.0000
  H   H991      1.0  0.88792  0.57503  0.21296  1.0000
  H   H992      1.0  0.91275  0.55884  0.26808  1.0000
  H   H993      1.0  0.91151  0.64047  0.09394  1.0000
  H   H994      1.0  0.70568  0.78134  0.14311  1.0000
  H   H995      1.0  0.68186  0.55977  0.01934  1.0000
  H   H996      1.0  0.77665  0.72760  0.05272  1.0000
  H   H997      1.0  0.69653  0.93659  0.17065  1.0000
  H   H998      1.0  0.98037  0.77558  0.43800  1.0000
  H   H999      1.0  0.91956  0.74210  0.04398  1.0000
  H   H1000     1.0  0.83636  0.97396  0.09554  1.0000
  C   C586      1.0  0.98132  0.81297  0.47354  1.0000
  H   H1001     1.0  0.70302  0.55368  0.08601  1.0000
  H   H1002     1.0  0.74920  0.70104  0.02756  1.0000
  C   C587      1.0  0.70241  0.95262  0.10792  1.0000
  H   H1003     1.0  0.71572  0.74452  0.07885  1.0000
  H   H1004     1.0  0.74561  0.94721  0.11275  1.0000
  S   S178      1.0  0.98331  0.64067  0.36297  1.0000
  H   H1005     1.0  0.80341  0.73277  0.04201  1.0000
  C   C588      1.0  0.68939  0.92506  0.99734  1.0000
  H   H1006     1.0  0.68341  0.80322  0.13014  1.0000
  H   H1007     1.0  0.75290  0.95968  0.06089  1.0000
  C   C589      1.0  0.99144  0.79266  0.44263  1.0000
  H   H1008     1.0  0.96385  0.61357  0.25180  1.0000
  N   N41       1.0  0.90376  0.69921  0.12644  1.0000
  C   C590      1.0  0.88677  0.71644  0.14645  1.0000
  C   C591      1.0  0.91786  0.71729  0.10045  1.0000
  C   C592      1.0  0.91694  0.68511  0.15912  1.0000
  C   C593      1.0  0.89339  0.67808  0.09967  1.0000
  C   C594      1.0  0.87205  0.70230  0.17839  1.0000
  C   C595      1.0  0.90818  0.72812  0.05922  1.0000
  C   C596      1.0  0.92699  0.70340  0.19271  1.0000
  H   H1009     1.0  0.81327  0.49589  0.13514  1.0000
  H   H1010     1.0  0.89373  0.73417  0.16262  1.0000
  H   H1011     1.0  0.87625  0.72512  0.12199  1.0000
  H   H1012     1.0  0.93307  0.70722  0.09221  1.0000
  H   H1013     1.0  0.92265  0.73526  0.11899  1.0000
  H   H1014     1.0  0.90756  0.66943  0.17568  1.0000
  C   C597      1.0  0.97959  0.61635  0.23689  1.0000
  H   H1015     1.0  0.88327  0.66477  0.11924  1.0000
  H   H1016     1.0  0.88200  0.68703  0.07727  1.0000
  H   H1017     1.0  0.86222  0.68671  0.16326  1.0000
  H   H1018     1.0  0.88072  0.69332  0.20520  1.0000
  H   H1019     1.0  0.86090  0.71737  0.19183  1.0000
  C   C598      1.0  0.72423  0.63449  0.99346  1.0000
  H   H1020     1.0  0.89343  0.73971  0.06494  1.0000
  N   N42       1.0  0.68548  0.76285  0.06425  1.0000
  H   H1021     1.0  0.71910  0.58212  0.07088  1.0000
  H   H1022     1.0  0.68152  0.77956  0.17173  1.0000
  H   H1023     1.0  0.69147  0.58610  0.07958  1.0000
  H   H1024     1.0  0.71607  0.80103  0.08354  1.0000
  C   C599      1.0  0.74692  0.70705  0.99424  1.0000
  H   H1025     1.0  0.76083  0.92699  0.07745  1.0000
  H   H1026     1.0  0.69618  0.85929  0.01037  1.0000
  H   H1027     1.0  0.97798  0.61923  0.20247  1.0000
  H   H1028     1.0  0.97389  0.85070  0.42235  1.0000
  C   C600      1.0  0.98905  0.56711  0.18168  1.0000
  H   H1029     1.0  0.67721  0.90993  0.98896  1.0000
  C   C601      1.0  0.68977  0.92834  0.04564  1.0000
  H   H1030     1.0  0.92379  0.66818  0.06685  1.0000
  H   H1031     1.0  0.67397  0.93617  0.05544  1.0000
  C   C602      1.0  0.70363  0.57215  0.06658  1.0000
  C   C603      1.0  0.67447  0.74004  0.04187  1.0000
  C   C604      1.0  0.74984  0.85746  0.99532  1.0000
  C   C605      1.0  0.67663  0.78879  0.04679  1.0000
  N   N43       1.0  0.70755  0.94523  0.06296  1.0000
  C   C606      1.0  0.79525  0.69142  0.04478  1.0000
  C   C607      1.0  0.71768  0.52215  0.02071  1.0000
  H   H1032     1.0  0.76307  0.75772  0.00284  1.0000
  N   N44       1.0  0.99013  0.56612  0.22904  1.0000
  H   H1033     1.0  0.97534  0.89547  0.43735  1.0000
  H   H1034     1.0  0.91492  0.71387  0.21218  1.0000
  H   H1035     1.0  0.93015  0.67377  0.14396  1.0000
  S   S179      1.0  0.85979  0.67486  0.00044  1.0000
  C   C608      1.0  0.67976  0.76069  0.11033  1.0000
  C   C609      1.0  0.72255  0.78576  0.06184  1.0000
  C   C610      1.0  0.70904  0.76001  0.05730  1.0000
  C   C611      1.0  0.76081  0.63094  0.01775  1.0000
  H   H1036     1.0  0.93793  0.71828  0.17850  1.0000
  H   H1037     1.0  0.93642  0.69070  0.21454  1.0000
  H   H1038     1.0  0.68662  0.96262  0.10995  1.0000
  H   H1039     1.0  0.72913  0.52620  0.04654  1.0000
  C   C612      1.0  0.90845  0.65901  0.07532  1.0000
  H   H1040     1.0  0.81233  0.68719  0.04045  1.0000
  C   C613      1.0  0.67991  0.71124  0.05675  1.0000
  C   C614      1.0  0.79303  0.77650  0.99288  1.0000
  H   H1041     1.0  0.68566  0.74147  0.12386  1.0000
  H   H1042     1.0  0.70116  0.50467  0.07521  1.0000
  S   S180      1.0  0.97786  0.68053  0.47381  1.0000
  N   N45       1.0  0.99209  0.83999  0.47733  1.0000
  H   H1043     1.0  0.75720  0.52948  0.98987  1.0000
  H   H1044     1.0  0.95608  0.57175  0.23538  1.0000
  C   C615      1.0  0.72769  0.92892  0.06017  1.0000
  C   C616      1.0  0.99132  0.88610  0.43798  1.0000
  C   C617      1.0  0.85306  0.97016  0.99377  1.0000
  H   H1045     1.0  0.90507  0.71181  0.03619  1.0000
  H   H1046     1.0  0.69770  0.58642  0.00352  1.0000
  Fe  Fe88      1.0  0.99711  0.58067  0.43848  1.0000
  H   H1047     1.0  0.68377  0.80672  0.06159  1.0000
  C   C618      1.0  0.98968  0.85498  0.43625  1.0000
  C   C619      1.0  0.96115  0.52935  0.23278  1.0000
  C   C620      1.0  0.78971  0.72044  0.03185  1.0000
  H   H1048     1.0  0.73998  0.57067  0.02038  1.0000
  H   H1049     1.0  0.69717  0.70723  0.05699  1.0000
  H   H1050     1.0  0.96459  0.81540  0.46343  1.0000
  H   H1051     1.0  0.72564  0.79511  0.03063  1.0000
  H   H1052     1.0  0.95784  0.52807  0.19858  1.0000
  H   H1053     1.0  0.96868  0.55819  0.28074  1.0000
  H   H1054     1.0  0.79118  0.68850  0.07856  1.0000
  S   S181      1.0  0.83210  0.54708  0.01647  1.0000
  H   H1055     1.0  0.72565  0.90911  0.07577  1.0000
  C   C621      1.0  0.74766  0.94187  0.07910  1.0000
  C   C622      1.0  0.96874  0.55766  0.24566  1.0000
  H   H1056     1.0  0.71209  0.75269  0.02471  1.0000
  C   C623      1.0  0.69842  0.56664  0.01990  1.0000
  H   H1057     1.0  0.69039  0.91331  0.12986  1.0000
  H   H1058     1.0  0.67287  0.70680  0.08807  1.0000
  H   H1059     1.0  0.72573  0.50731  0.99973  1.0000
  H   H1060     1.0  0.78607  0.67599  0.02814  1.0000
  H   H1061     1.0  0.97236  0.51327  0.24218  1.0000
  H   H1062     1.0  0.77734  0.62804  0.01051  1.0000
  H   H1063     1.0  0.94596  0.52519  0.24934  1.0000
  H   H1064     1.0  0.99470  0.80167  0.41136  1.0000
  Fe  Fe89      1.0  0.84034  0.89352  0.99844  1.0000
  H   H1065     1.0  0.98600  0.63537  0.25003  1.0000
  H   H1066     1.0  0.77861  0.48605  0.10705  1.0000
  C   C624      1.0  0.71039  0.97080  0.03812  1.0000
  C   C625      1.0  0.69856  0.50747  0.04091  1.0000
  S   S182      1.0  0.99534  0.57607  0.36779  1.0000
  H   H1067     1.0  0.96912  0.51236  0.48150  1.0000
  H   H1068     1.0  0.73868  0.72665  0.99227  1.0000
  H   H1069     1.0  0.99534  0.59181  0.28279  1.0000
  H   H1070     1.0  0.67796  0.74031  0.00749  1.0000
  Fe  Fe90      1.0  0.84323  0.83209  0.99601  1.0000
  H   H1071     1.0  0.67585  0.97959  0.04365  1.0000
  C   C626      1.0  0.99496  0.59326  0.24790  1.0000
  C   C627      1.0  0.83663  0.49465  0.99341  1.0000
  C   C628      1.0  0.67901  0.79260  0.99876  1.0000
  C   C629      1.0  0.85905  0.75624  0.98908  1.0000
  H   H1072     1.0  0.67564  0.81390  0.99063  1.0000
  C   C630      1.0  0.72811  0.85861  0.98604  1.0000
  C   C631      1.0  0.86773  0.48293  0.05266  1.0000
  N   N46       1.0  0.78494  0.72549  0.98602  1.0000
  H   H1073     1.0  0.95309  0.86727  0.47960  1.0000
  C   C632      1.0  0.73372  0.56275  0.99023  1.0000
  C   C633      1.0  0.74595  0.63157  0.98490  1.0000
  H   H1074     1.0  0.69517  0.78789  0.98724  1.0000
  H   H1075     1.0  0.89079  0.98115  0.10469  1.0000
  H   H1076     1.0  0.70463  0.91765  0.98441  1.0000
  H   H1077     1.0  0.69678  0.48705  0.02714  1.0000
  H   H1078     1.0  0.77217  0.48226  0.03612  1.0000
  C   C634      1.0  0.84186  0.98059  0.06492  1.0000
  H   H1079     1.0  0.78541  0.79645  0.98795  1.0000
  H   H1080     1.0  0.87464  0.91577  0.91551  1.0000
  H   H1081     1.0  0.90195  0.49900  0.91754  1.0000
  S   S183      1.0  0.96592  0.85346  0.62481  1.0000
  H   H1082     1.0  0.86323  0.77100  0.96543  1.0000
  H   H1083     1.0  0.97761  0.55553  0.56162  1.0000
  H   H1084     1.0  0.91907  0.97174  0.91829  1.0000
  Fe  Fe91      1.0  0.97238  0.85745  0.69496  1.0000
  S   S184      1.0  0.95418  0.85299  0.75833  1.0000
  H   H1085     1.0  0.82736  0.69544  0.93047  1.0000
  Fe  Fe92      1.0  0.84864  0.86427  0.91502  1.0000
  H   H1086     1.0  0.77315  0.68587  0.96791  1.0000
  S   S185      1.0  0.86370  0.86999  0.84908  1.0000
  Fe  Fe93      1.0  0.80458  0.86048  0.95935  1.0000
  S   S186      1.0  0.76851  0.85812  0.95307  1.0000
  H   H1087     1.0  0.67831  0.52521  0.91807  1.0000
  C   C635      1.0  0.98182  0.85425  0.51402  1.0000
  S   S187      1.0  0.82422  0.89530  0.93570  1.0000
  S   S188      1.0  0.82728  0.82943  0.93300  1.0000
  H   H1088     1.0  0.97314  0.57580  0.60723  1.0000
  C   C636      1.0  0.99119  0.59552  0.55566  1.0000
  Fe  Fe94      1.0  0.67062  0.62662  0.95884  1.0000
  C   C637      1.0  0.99464  0.75809  0.55116  1.0000
  H   H1089     1.0  0.85626  0.95552  0.96939  1.0000
  C   C638      1.0  0.77698  0.75411  0.98200  1.0000
  H   H1090     1.0  0.98112  0.83662  0.93466  1.0000
  C   C639      1.0  0.95773  0.85884  0.51047  1.0000
  C   C640      1.0  0.81126  0.69450  0.94467  1.0000
  C   C641      1.0  0.97246  0.96484  0.50902  1.0000
  C   C642      1.0  0.98500  0.71065  0.50260  1.0000
  H   H1091     1.0  0.72315  0.85998  0.95354  1.0000
  C   C643      1.0  0.92860  0.85689  0.78228  1.0000
  C   C644      1.0  0.91094  0.86632  0.76021  1.0000
  C   C645      1.0  0.89121  0.86949  0.78096  1.0000
  C   C646      1.0  0.88870  0.86332  0.82406  1.0000
  C   C647      1.0  0.90633  0.85374  0.84610  1.0000
  C   C648      1.0  0.92609  0.85066  0.82538  1.0000
  H   H1092     1.0  0.91249  0.87119  0.72713  1.0000
  H   H1093     1.0  0.87776  0.87688  0.76341  1.0000
  H   H1094     1.0  0.90479  0.84894  0.87920  1.0000
  H   H1095     1.0  0.93952  0.84327  0.84289  1.0000
  C   C649      1.0  0.91241  0.95779  0.82405  1.0000
  C   C650      1.0  0.80472  0.72296  0.95935  1.0000
  S   S189      1.0  0.97977  0.92207  0.56434  1.0000
  H   H1096     1.0  0.96612  0.63632  0.53324  1.0000
  H   H1097     1.0  0.95817  0.58133  0.55912  1.0000
  C   C651      1.0  0.96990  0.63582  0.56753  1.0000
  H   H1098     1.0  0.98214  0.61551  0.63876  1.0000
  H   H1099     1.0  0.95732  0.62351  0.58256  1.0000
  H   H1100     1.0  0.75128  0.62908  0.95269  1.0000
  C   C652      1.0  0.91943  0.93596  0.79224  1.0000
  H   H1101     1.0  0.82464  0.49919  0.97025  1.0000
  N   N47       1.0  0.89552  0.94944  0.85503  1.0000
  C   C653      1.0  0.75229  0.54685  0.97028  1.0000
  H   H1102     1.0  0.77145  0.75812  0.94928  1.0000
  C   C654      1.0  0.70432  0.54203  0.95363  1.0000
  H   H1103     1.0  0.97983  0.83106  0.85414  1.0000
  H   H1104     1.0  0.95262  0.87348  0.53499  1.0000
  H   H1105     1.0  0.67030  0.53550  0.96902  1.0000
  C   C655      1.0  0.98490  0.95533  0.54279  1.0000
  H   H1106     1.0  0.87969  0.91977  0.81642  1.0000
  H   H1107     1.0  0.97810  0.67901  0.57359  1.0000
  H   H1108     1.0  0.76423  0.71243  0.93601  1.0000
  H   H1109     1.0  0.80323  0.73501  0.92986  1.0000
  H   H1110     1.0  0.90641  0.92984  0.77106  1.0000
  H   H1111     1.0  0.81847  0.73161  0.97615  1.0000
  H   H1112     1.0  0.89204  0.93727  0.94577  1.0000
  S   S190      1.0  0.99229  0.89458  0.68533  1.0000
  C   C656      1.0  0.86166  0.72859  0.98077  1.0000
  H   H1113     1.0  0.86767  0.72210  0.95044  1.0000
  S   S191      1.0  0.70613  0.63323  0.95094  1.0000
  H   H1114     1.0  0.85972  0.97654  0.81423  1.0000
  C   C657      1.0  0.88925  0.97359  0.88092  1.0000
  H   H1115     1.0  0.90516  0.90805  0.86416  1.0000
  H   H1116     1.0  0.71572  0.53032  0.93425  1.0000
  H   H1117     1.0  0.93220  0.94416  0.77182  1.0000
  C   C658      1.0  0.97361  0.75017  0.54455  1.0000
  H   H1118     1.0  0.96090  0.76203  0.55801  1.0000
  H   H1119     1.0  0.80054  0.68697  0.91976  1.0000
  C   C659      1.0  0.97391  0.57631  0.57238  1.0000
  Fe  Fe95      1.0  0.99526  0.82704  0.62086  1.0000
  C   C660      1.0  0.96890  0.72681  0.52059  1.0000
  H   H1120     1.0  0.88566  0.49306  0.96249  1.0000
  H   H1121     1.0  0.74899  0.54026  0.93767  1.0000
  H   H1122     1.0  0.90744  0.97588  0.80594  1.0000
  H   H1123     1.0  0.92078  0.93100  0.89182  1.0000
  C   C661      1.0  0.90416  0.92711  0.88227  1.0000
  H   H1124     1.0  0.85258  0.94736  0.78517  1.0000
  H   H1125     1.0  0.87727  0.96296  0.77389  1.0000
  H   H1126     1.0  0.81205  0.67971  0.97054  1.0000
  Fe  Fe96      1.0  0.98808  0.88932  0.61516  1.0000
  H   H1127     1.0  0.98459  0.84267  0.54351  1.0000
  H   H1128     1.0  0.95066  0.67179  0.57427  1.0000
  H   H1129     1.0  0.94890  0.83996  0.51654  1.0000
  C   C662      1.0  0.96632  0.66434  0.58511  1.0000
  C   C663      1.0  0.99654  0.62135  0.62060  1.0000
  C   C664      1.0  0.99469  0.83595  0.87137  1.0000
  C   C665      1.0  0.87618  0.93902  0.83276  1.0000
  H   H1130     1.0  0.89839  0.90268  0.93776  1.0000
  H   H1131     1.0  0.96582  0.66430  0.62003  1.0000
  H   H1132     1.0  0.98901  0.87404  0.52026  1.0000
  H   H1133     1.0  0.95255  0.72113  0.51617  1.0000
  H   H1134     1.0  0.73105  0.58070  0.96994  1.0000
  C   C666      1.0  0.68349  0.52602  0.95143  1.0000
  H   H1135     1.0  0.96005  0.95214  0.49686  1.0000
  C   C667      1.0  0.98815  0.85106  0.91188  1.0000
  H   H1136     1.0  0.99568  0.83577  0.78560  1.0000
  H   H1137     1.0  0.86343  0.93401  0.85574  1.0000
  H   H1138     1.0  0.70164  0.56132  0.93635  1.0000
  H   H1139     1.0  0.98374  0.87595  0.82203  1.0000
  H   H1140     1.0  0.92602  0.91792  0.80807  1.0000
  S   S192      1.0  0.86593  0.86488  0.97712  1.0000
  C   C668      1.0  0.98049  0.50262  0.50184  1.0000
  H   H1141     1.0  0.87538  0.96923  0.90158  1.0000
  H   H1142     1.0  0.97580  0.86637  0.90497  1.0000
  H   H1143     1.0  0.92697  0.96416  0.84093  1.0000
  H   H1144     1.0  0.98041  0.80283  0.50472  1.0000
  N   N48       1.0  0.99148  0.62351  0.57429  1.0000
  C   C669      1.0  0.89135  0.92068  0.92247  1.0000
  C   C670      1.0  0.76792  0.70716  0.96932  1.0000
  H   H1145     1.0  0.76626  0.56038  0.96826  1.0000
  H   H1146     1.0  0.98941  0.59646  0.52083  1.0000
  C   C671      1.0  0.86617  0.95793  0.79982  1.0000
  H   H1147     1.0  0.68563  0.50486  0.96149  1.0000
  H   H1148     1.0  0.80725  0.77605  0.97224  1.0000
  C   C672      1.0  0.89614  0.48305  0.93899  1.0000
  H   H1149     1.0  0.66724  0.78037  0.98143  1.0000
  H   H1150     1.0  0.68475  0.94409  0.98157  1.0000
  H   H1151     1.0  0.73617  0.69194  0.98001  1.0000
  H   H1152     1.0  0.79619  0.96842  0.97908  1.0000
