data_image0
_chemical_formula_structural       NHFeS2FeS2FeHFeS3HC2SNC2HSFeSCFeS2FeSFeHSCHCSFeC5HCH4SH5FeHFeC2HC6H3SHCH2C2HCH2C6H4C6H5C2H2CSHCH6CHCH3CHC4H8CHCHCFeH6C2HC2H5SCH4SHC2HC2H10C2H2C2S2HC2H2CH3CS2H4C2H2CH2C3H3CHCHNC2HNH2CH2CH3FeCNH7CHC2H2CH2SHCHCH7NS2FeCSC2HSH2CH7CHSHC2H7CH3C3H3CHCH7CFeH3NHC2H2CH5SHCH2CH3C2H2CH3CH3CH2CFeS2FeS2FeSFeS3FeS2FeS2FeSFeS3FeS2FeSFeSFeS3HCFeSHC3HC7H4C6H4C6H6C2H2SH2C7H4CH7C3H2C5H2SC6H5SC2SH6C2H3CH6C2HC2H2NH2C7H4CH3CH4NSHFeCH4CHSCHC2HCH5CH4C3H2CH2CHCH3NFeHC2H2CH2CHCH4C3H4CHCH3CNC8H20NC5HC3HCH7C3HCH7CH2CH2CH2CSH2NH3NCH4CNC8H23CH2CHC2HSH2C2HCH3CHCH4CNHSH3CH3SH2CH4C2H2C2H8C2H8SHC2HCHNCHCH4CH6SH2SCH2CH5NH3FeC2SHC4H3SH2CH3CHSHCSHCFeS2FeS2FeSFeS3FeS2FeS2FeSFeS3FeS2FeS2FeSFeS3FeS2FeS2FeSFeS3H3CSHFeS2FeS2FeSFeS4C7H4CH2NH2C6H4C2H2C2HCHC6H4C6H4C6H4C6H4C6H4C6H7C3HSHCHC6H3C6H4C6H7CHC6H4CH2SCH3SH5CHC2H5CHC2HCH7NHSH4FeC2HSC2H6NCH3C2FeH3CHCH13CNC5H4SH7NC8H20C2H5C3H9CH3CH2C2H2C2H10SH2C2H2NC8H21CH7C2H2C2HNC8H20C2HCHNHFeH2C2SH2NH3C2H2CH2CH2C2HFeCHCHCH13CH2CH3NHFeCSC2H3SH5C2HCHC2HCH5CHCH2CH4CH2C2HC3H3C2H3C2H4C2FeCH5CH4CH3CH4CH4CH3CHC2NH5CH4CNCNHCH2CNC2H3CH3C2H2C2H2CH3CHNH2CSCHSHNHCHNH6CHC2SFeSH5C4HCHFeHFeHCSHC2H2C2HSH2FeCH2CSH3SFeCH3C2NCSHNCH2SHCSHSHSHFeSFeS2H2S2FeS2CHSCS2HSFeHCH2CHC4H4C3H2C6H2FeHCHC6H3C2H2CFeH3CSH3CHC4H2CHCSH3CHCFeCHCHCH3CHS3HSH2SCHNC6H15CHCHCHCHCH4Fe2CH2CH4CH5NC7H2NH7CH3CHC3H7CFeH3CH3NHSHFe2CH2CH3CS2H2SH4CHCHCSH2FeH4CH2CHSC2H5C2H4CH3CHCHCSCH2CH2CH9CH5SCHCH2C2SFeSCH2CH2SH2FeCH3NH7C2H2CHSC2H2CHNHCH5CHFeH2CH3CH2C2SCSCH3CH2CNH3CHCS2NC2HC2H3SHCHC2H2FeHFeCH2C2SHC2H4C3H3SCH4SCHCSC3FeCHCSCHSH4NFeHCHC2H3SC2HNHCHFeH4C2H2SCFeCHFeH3CSFeCH3SC2FeCH2CH2CHC2HCH2SCHCSH2CHS2C2HC2SHCSHCH3CHC2FeSC2H2CHC2HFeNSHSH2CSFe2HC2HCHCHC2SC2H6CH5CFeCFeCHCHCH2CH2FeHCSH16SH3NC2HCH2CH4CHNCH2CSH7CHCH4CH2FeS2FeS2FeSFeS3CSNH3SCH2FeS2FeS2FeSFeS3FeS2FeS2FeSFeS3HFeH2FeSHCFeS2CHCH3FeS2FeS2FeSFeS3FeS2NC2HFeCHCHSH3C2H2C6H4C2H2C6H4C6FeH4C6H6C2FeCH5C6H3C6H4C6H3C6H4C6H7CHCH3SHFeHCHCH4C2H4CH10C2H6CH6C2NC2NCNC8H21CHCHC4SCSH2C3H2C3HCH3CHNC8H8C3H9CHC3HSH3CH6SHCHCHFeCH4NC8H20NC8H20CHNC6H12CHCHCHC2HSHCSH5SHCH7C3H5NC2HSH2CSH2C4H4CH2SHCHSHCHC2HCHCH4CSHNSHC2NHCHFeSH3C2FeH5CHCH11C2H3C2H2CH2CH4CH2SHCH4CFeCHC2H5NCNH2C2HCHC2SH4CH2SCHCSFeCSCH3C2HCH2SCHSCHCHFeCHCHC2HC2NHC2H2CH5SH4CH4FeH2CHC2FeCFeH2CHC2HSH3CH2CH4C2H2SH5SH5NH5C2HCH3SHCHCH2FeSNH5CH2C2HCHCH3CHCH5CHCH2FeS2CHSHCSHCFeSCH3CHSH2S2H2FeSH4SHSFeHFeS2FeS2FeSHFeSFeS3FeS2FeS2FeH3SHFeS2FeS2FeSFeS3CH2CH3NCH6C2HCH4CH3C3Fe2CH2CHCH3CHSHCSCHCHNCHCHCHFeHC2HC7H5CHC7H4C6H4C6H5CHC6H5SCH2C6H8C6H5C2H2NCSHC4H3CHCH3CHCHSH3CH3CH5C2HCHSH4CH2C2NH4CNHCHSHCH5CHNHNHCH3S2H3CH4CH7FeH3CNCHCHSH2CH2NC4H2SCH8C3H3CH4CNHC3HC3H8CHCH9SFeH7CH2SCHSNCH7NC7H12C3SH2CH5CSH2FeC3NHCH3C2H3SC3FeHCNH2CHC2H3CH3C3H2C2H5CH2CSHS2HFeH2CH3CHCHFeCHCH4CHCH3C2HCH6CHCHC2HC4FeH2C2H3CHNH3CH2CH4S2CS2CSC2SCH2CFeHC2H2FeH2CHSHC3NH4CH2CH4CFe2C3H2CH2CHCSH3C3H2SC2HCH3CH2FeCH2SCH6CH13SCH6FeH2C4H3SH2CH3CHSHNCSH2CH7CHC3HCH2CHSHCH4CHNCHC4HC2SH2CSCH2C2HCH2NH3CH2CHCH4CH2CHFeH3NHFeS2FeS2FeHFeS3NSCH3FeS2FeHCFeS2CS2H3CFeHCHCH2CHC2H5C2SH2C3HS2CHCH3FeHSHC2H2C4H4C6H4SH2FeSFeCH3FeH6FeHCH2SH5CHFeH3CSNFeC2SHC2HC5HCH2CH2NH2CHCH2S2H2CH3CH3CH3NH7C3H4CH2CHCHCH3FeC2SCS3FeS2FeSHFeCFeS3H3FeH3FeHSH2FeH2SCHSH6SHC2H3CHC3H2C2HSCHSC6H4C2H7C6H2C6H2FeH2C2HSH6SC2H2C2H2C2H8CHSCNSH2CFeH5NCH4SCH3CH2C2HNC4HC3H10CH9CHCH5CHFeC3HSH2FeH4CH2NC2HC2H2NHSH5NHC2HCHC2H4SH3NH5CSCH2C3HCH3SHCSH2C3FeSCFeSHFeSHSFeSFeS2FeSCFeSFeS3HCFeCSH3SHSH2CH4S3HFeC6H4CHCH4C2HCHCH2FeHCH2CH2CHFeCH5C2SH6SC6H5CH2C6H4C4HS2HC2H2FeHCHFeCH4C5H7CH4S2CNC4SHCSHCH7CH3SCH6CNH2CH2SC2HNH2FeCSH3CNH3CH3C2H2C2H2SFeCH4CH3CH2CHC4H2CH4CHCH4CH7CH3C3NH2CHSCNH5NCHNH4C2H2SH2CNC2HFeCSC3HCH4C2H5FeC2HC4H2C6H5CH2CHC2H2CSC2HSHC2HCH2CH8CH7CH2FeH2CH7C3SH3CH3FeHCS2NHC2HCH2CH2CHCH3C2HCSH3CHFeH3CH2C2HCH2CHCH3SHCHSNFeCSFeHSHFeC2NHCH3SHFeSHFeSFeSH2FeSCFeSCFeSFeSCSCHCHS3H2SCH2SCHSFeH2FeSH2C2HFeSCHSFeSCHFeSHFeSFeSFeS3NHCHS3FeH2FeSHSHSH4C6H3C6H5SHSH7SC2H7CHC3HSH2SC3H6SH2CSC6H4C6H2SC7H4C6H5C4H4SHC3H2CH2C2H4C3HSCNH5CHCFeHCH3SC2HCHSHCHSNC2FeHC2HCHCH4NFeC3H3NCHCHCHCHNSHCHCHCSCH3CHCH6CH8FeH3FeHC2H3CHC2H2FeHCHNSCHCH4SHCH3C3H2C2FeC3HSH12CSCH3C2H4NC7H8SH7SHCH2C3HFeCHC2HCH3CFeCH2C2H2CHCNC8H8SC2H3C4H2CH3C2H3CFeHFeH2CH2SH8NH2CSCHCS2HCH4CH3CHFeSNH3CH2C2SFeH2CH5CH3SH2SC2HCHCHCH3CH2C2H5CFeHSNSH2FeS2HCH2S2FeS2FeS2FeSFeS3FeS2FeS2FeSFeS3HSHCSC6H4C6H4C2SHSC2H2C6H6CHC4HFeHFeNCNH4CHC7H4C7H5FeCHCFeC2SH3C2SHCH3FeCH2FeH3C2NCHCHCH2C2NC8H22C2H9CH3FeHC2H2C2H3CH2CHCH2C2H6C2HC2SH2C2HSH2NCH6SHNHCHNC8H20NCHCH2CH9FeHCH2SH2CNC8H21FeSHSHCH2SCH2FeCH3C2H2CH2CH4CSH4CH3FeHSHCHSH2CH2C3H3CHC2HCH2C2H2CH2CH2CHC2H3SCH4CHCH6S2HCH3CHC2HCHNCHC2HFeSHFeS2FeSFeS2CFe2SFeCS2HCHSH2SH2FeS2FeS2FeSFeS3HCH2CHC2H4C2H2SHNH2CH2CHCH2FeHFeCH3CHC2HC2H3SC3H6C2H2C2FeC2HC4HFeCFeHC7H6C2H4SHC2H2C6H2SHSH2CSH3SH2CHCH5NHNCSH5SCH2CHCHC2HCHNC2HC2H6C3H3FeH4C3HC2H4CH6NC8H20CNC4HC2H5SHFeHCH7CHSH3SNC3H3CH9C2HSHCH3C5H4C2SHCH2SHFeH5CH2CHSH3C2HFeC3H3CHS2CHFeCSFeHSFeHC2S2HCH2S2FeS2FeS2FeS2FeSFeS3FeHSFeCSCHFeSNSFeS2FeSFeS3HCH5C2HCHFeCH2CHCHCH3NH8C2HSH4C6H2CHC2HC6H5CH3FeH2SH3C2HCHC6H4C6H4C6H5CH6CH3C5H2C6H5NSC4H3CHCH3CSFeCNC8H21CH2CH3C3H2CH8CHC2H3CHSHCFeH3C3HNHS2CHCH2NS2CHSH4C2NSH3C2H3CFeHCH3NHCH3SC2H5CHCH2CH5C3HCH3SCH2C2HCH7CH4C3HNC4HC3HCH5CH2CH10SCHCH2CSH9C2HSH2C2NC8H15CHCHCH3CFeH5C3HFeCH2SH4SCHSH2CHSCHCHC4HCFeS2H2C2H2SH2C2Fe2H2S2H2FeS2FeSFeSH2FeHSFeCSH2FeSCSH3CHC3FeSH3CHCSH3CHCH6SHFeH2SHCH3CHCH5CH2C3H5NHCHC2HCFeSH3C6H4C2HC4H3C2H2NH5CH3CH3CSC6H2SCHC3H2CHC2SHCHC7SH7CNH4C2H2CH3C6SNHCFeH9CH3CFeH2NH4CH6CH2CHC2H2CH3C3SH5CH3CH2CHCHCHCHC5NCH2SHCSNHCHC2HCH8CH3NHSH4CHFeS2CH3CH2CSFeS2FeSHFeCS3FeS2FeHSFeSFeS2FeS2FeS2FeSFeHS2FeS2FeS2FeSFeS3CH4SHSHCSHSC2SFeS2Fe2HFeS2FeS2CFeHFeCS3H2SHCH4CHSFeH2FeH3CH2CH2FeHSHSC6H4C6H5CH3C2HNC6H4C2HC2HCH2CHCH2CNCH3C6H4C7H3C6H4NC3H2C6H5CHCH6SH2CFeCH4C4H3CH4C2HC2NC8H21CH3CH6CH2C2H5SHCH2CS2HC2H6CH2CHNH2NC2H2CH5CH2NC8H14CSHCHCSCH2C2HFeCFeHSCHCH4SNC8H20CFeCSNC7H2CH2CHNC5HC2H11CNHFeC2H3CH3NH5SH2CH4CNC8H20CNHCHCH3CH2CH2NHC2HNC4SFeC2H9FeHCH9C3H3CH2CH2CHCH13C2HCHNH2CHCH2C4H2C2S2H2SCH4CFeCH2CH4SHCH2SC2H2CH4CH2CH2SCSHC3FeHC2HNFeHNHC2H2CH7CHCHCHCSCH2FeHSCH4SC2H5C3SCH3C2H2CNC2H3CH2CH3S2HCH3CH12CHC3HC2HC2SC2H2CH2FeCH5CFeH2FeS2FeS2FeSFeS3FeS2FeS2FeSFeS3FeS2FeS2FeSFeS3HS2HCH2CSHSFeS2CHFeSFeHS3FeSFeSFeS2FeHSH3S2C2H2SHCHCH2CHCFeHFeCH2NC3HCH5C6H5CH3C2HCHC6H4C6H4C6H4C6H4C6H4C2HC6H2C8H5CH2SCHCH6CHCSH8NCH5CH3NC8H18SHNC4H11CHC2SCS2FeCHSCHC2SH3SH2FeH2SHCH2CH12S2CH2SCH2CH2CH5NC8H19C3HC2HCHCH2CSHSHFeHSCHCNC8H20NC6HCH8CH8CHCH6SH4N2HNH2NC8H22C2HNC8H18C2H2C2FeH2CHSCHCH7C3H5C2NFeHC3HCH2C2HCHCH5SH2FeC2H2CHCHCHC3H4CSCFeHCHSCH2CHSH2CHFeH2CH3CHCH2C2HCS2C2H4CSCHCHCH7NH2CHFeH2CH4C2H2SCHCH3CHCNCH3FeH4C2H2CH3C3H2SHCHC3FeHNHC2HCH2CH2CHSCH3FeHCH2CHCH4CH4CH2CHCH2CH2C3H2CH2FeCSH7C2H2CHSHFeHSHSHFeCSHSH2SHFeSCH4SHCHCSCH3CHFeSHFeHFeSNHFeS2FeSHFeSFeS3FeCSH2SFeS2FeS2FeSFeS3FeSH3FeSFeS2FeCSFeS2FeHFeS2C7H4C6H4CHCHSH2C2HC2H2C6H7C2HCHNC6H4C2HC3H4C6H6SC2HC4HCH2C6H6CH2CH2C3HC6H4CNH5CH4CHCSH3CH3CH2NH2FeHC2SH2CFeCHC2HCH4NC4H12CHSH8SHNC3HC2HCH4SH2CH6CHCH3NC8H20NC8H20CHC2HCH3C2FeH2C2H6CHCHCH2CH2CHSH2CHCH2CHC4H4CH3CHSCHCFeC2H2C2NC8H20NH3C2H3CH2CH2CH3SCHSCH3CHCHCH4CH2CH3NH6C3S2C3H2SH3C2SC2HFeSC4HNH2SH2CHSC3HNH2C2HCH2NHC4H3C4HCH2CH2CH2CHSHFeCH4CH4CHS2NH3C2H3CH5CHC2H7C2NHCH3NHNC2HSC2H3CH6CH3C2H2CH5SHC2H3C2HSH2CH3CH2CSH2SHFeCNHSH2CH3CH2CSH2CHCHCH5FeH3SH2CHSCSH3C2HFeHCHCHCHC2H2CH5C2HFeS2FeS2FeSFeS3FeSHFeS2FeSFeCS2H5CN2HCHCFeHSH3FeS2FeS2FeSFeS3FeHSH2CFeS2FeH2SH2FeSFeS2FeSCFeSFeS3FeHSCH2S2C2H3C6H4CH4CHCH6C6H4C6H4C6H4C6H2CHC6H6CHSHFeCH2CHC2SHC2H3CHSH3CH2CHC2H6C7H3C6H4C6H3CNC8H15CSH3NC8H20CHFeC3NC3H2CH9CH7CHSCH3CHS2HCH2C3H2NH2NC2HC2H10NC2HC2FeH3CH4NH2CHCH5CHCHCHC2HCH3CHCHCH2CH3CHC2H3C4HCH2C3H12CFeH4NC6H13FeC2HC2H3CNC2H3CHNSH3CH2C4SNH2CHNC4H6C2H4CHSCH6SH2CHS2H2CNC8H21FeH3CNC2HCHCH6CHC3H7NCH2SHCFeCH6C3H4C2H3CS2CFeHC4H3C2H5FeH5SH3C2H5CH2CH2CHSC2H2NHCHCHC2H5CH11CSCH2SHC2H4SCH3CHCH3CH3C2HSH4FeH2NCHCHCHCHCFeSHFeSH3FeSHSH3SC2HFeSCFeSHFeS2FeSFeS3H2CSHCSHCH2CHC6H2C6H4C6H6CH6FeH3SH2SH3C4H2S2H3NC4HC3HCH6CHC2H6CH4CHCH2CH3C2H2FeCH3CH4CH5FeH2SH2NSHFeCS2CFeHCH3CNHCHCHCH4FeHCH5CH2CHNH2CH2CH4SH3SHFeSCS2FeSHFeS2FeHFeS3FeS2H3FeCSH2FeHSH2FeHC2HCHFeHC2SCHCSCH2CNSH4CH3CH2FeH3C6H4C6H4C6H2C2H2SCH4SCH2CHC2H3CHCH3SH2SCH3C2H2C2H4CHSCHNSHC3H7CNH2FeSHC2H4CH4CHCH5NH2CH2SH3C4FeH4CH2FeHSH7C2HC3HCFeS2FeS2Fe2S3H2CHFeS2FeS2FeSFeS3FeS2FeS2FeSFeS3CHCH6C3HC2HSHC4H6SHCH3C2HC5HC4HCH4C2H3CHNH2C6H6FeCHC2H3C6H4C6H4C6H4SHC2H5CH4CNC2HNHCHC2NH5C6H6CH2CH2CH5SCH2CH3CH7CH3CHCHCH3NCH6CNCH3NC8H19CHCH2CH3CHCSC2H5SHCHFeCH3CHCSH4C2HC2H3SH4NC2H9CH4C2H2CHNH3C2SH2NCH2CH4C2HC3H7CH2C2H4C2HS2CNH2CN2HFeCHC2H2CH4CH9CHC2HSH3CH2CH3C4H6CSCH2CH4C3H3C2H3CH2CHFeH2SHC2H4CH4CH6CSC2H5C2H4C2SH2SHCHCH5CHSNFeS2FeHFeHFeS3CHSFeSHFeS2FeSFeS3HSH5C8H4SNHC6H4C7HCHCHC6H4CH3C5HSH2C2H4CH4CH5C2H2CH2C2HFeH3CHNC2H4CH3CH3CH3CHCHC2H9C2H3CHNH2CH2SC2H3CH2CHCHCH2CH7SH6CH3CH2SCH5NHC2H3NH2CH2FeH3CHCHC2HSCH4CHSHCH2CH2CH3CHC2HCH2C2H2C2HC4HC2FeCH2NHCS2CHCH3S2H3CHCFeS2FeSFeS4Fe2SFeS2H4CFeCH3FeCS2H4CH4C3H5SCSCHSH2FeHCFeHC6H4C2HC4H2CH3CS2C3H3C2H4NFeHCH6CH3C6HC2S2HFeHCH8CHC3H7SH2CHCH4CH2C2H2SCNCH5CH5CH5C4H2SH7NC2H2NH2CH2CH2C5HFeCHC2H2C2H4C2H4CHNC2H3NCH3C2HCSHCHCH2C2H2FeH2SHNC8H20FeC2H2FeH3CHSH3S2CH2SH2C2HCHCNC4HC3HCH6NSH2CNH5CH2CH4SH13SC2HSH2CHCHSCH2CHCH2FeHCHSFeHFeCHCS2HFeSHCHSHSHFeC3FeCSCFeC7H3SHNFeCHC3HC4SC5HNCHC4HFeH12C4H4CHCHCH3SH2C2S2H2C2HSCHCHC2SCH2CHCFeH3CNH5FeHSCHFeH2SH3CH2CH3CHS2H3NHSH3CHC2H2CHSH2CFeSHFeH2SHNH3CNH7C2FeHCHSCH3FeH3NH2C3H2SCSC3H2CHSCH2CH4FeC2HCHFeCH6CH3CH2C3H2CH3CHC3H4C2H7C2HCHSH4CH3SHSCSHFeS2FeS2FeSFeS3FeS2FeS2FeSFeS3HFeS2HFeSNFeS2FeS2FeSFeS3FeS2FeS2FeSFeS2FeS2FeS2FeSFeS4HFeH2C7H4C6H4C3H2C6H4C6H6NC2FeCHCH2CH2C2HC6H4C6H4C6H4C4HCH3C6H4C6H4C6H4C6H7SH2SC3H5CHC2H6C6H11CHC2SCHCSCH2CH2CH2CFeH2CH5NC8H20NC8H23SCHNC8H20NC8H20NC6H5CH3NH3CH4SC2SHCH2C2HCH4CH4CHNC8H21C2HCH3NH4N2C8H20NCH2CHCHC2H3CHCHCH2C2HCHFeHSH6SHCH2CSH3SHSCH4CHNCH3FeCHCH2C2HCHC3H9C2H2NCH2C4H4CH2CH3CH2CHFeSHCH5C2H2FeHSC2H3CH5CH12CH2SHCFeCH4CHSHCHFeH6CH6SCHCH10SCFeHC3H2SHCH5SC2HC4FeCHCHCSHSH3CH5CH2CHCH3C2H2SH3NHC3HCH4CSHCNHC2HCH2C2H2S2CHSH2CH4S2CH2FeSNSH2FeS2FeCSHFeHSHSHCFeC2HC6H4C6H3CH4CH2CHC3FeCH4S2CH4FeH4CSFeC3SH4CHCSH3C2H3CSCH2C3H4C3HCH2SHC2HCHC2H6CH10FeHCH2CHCH3CH3CFeH2SC2NH2CNCNC4H2C2HCH6CH2FeCFe2HCH9CHCSH12CH3CH3CH2CSNHC4HFeSH6CHCHCSHCSCHCH2CHCH2SH2CSFeSCFeSFeSH3S2H4CHFeS2FeCSFeSFeCS2C2H2FeS2FeS2FeSFeS3FeHCH4CHCSCH4CH4SH6CSFeSHSH4CH3CHCSC3HCHNCH2SFeH2C2H2NH3C6H8FeH5CH3C2HFeCHC2H2C6H4CH4C2SCSC6SH3CHC4H4C2HC2H3C6H4CH6CFeNC4H11CS2H4CHCHCHFeC2SHCSH3CH6CH4C2HCH2SCH5CH3CH2SHCHNHCHCHCHCH5CHCHC2HC2H10C3H3CH5CHSHC2SCHC3HCHC2HC3H2C2HCH5CH2SHNH2CHNH5C5HFeHCNFeCHC3HCSH4CH2CHCH9NC8H20NC5H3CH8C2SCH6C2HCH3CH2SH6CH3CHNHC2H3CSCHC3NCHCH4CHCH3FeS2H2FeSC2HFeS2FeS2FeSFeS3FeS2HSH3CH4CHFeS2FeS2FeSFeS3FeS2FeS2FeHFeS3FeS3CHFeS2CHFeSCSC6H4C6H8SC2HN2CH2SH2C6H4CHCH5CHC6H4C6H4C6H5C3HC6H5C6H9C2H2CH7NCH2CH6FeCH4CH2C2H2CFeH4SNCH3C2FeH3C2HCFeCH5CH8SCH8NCH11CHSNCH2FeCH2NC8H25CHCHC2H2SH3C2SH4CH3FeCH2CH3FeH5CH2C3H5C2HCH2CH2C4FeC2H3C2H3CH4CHCH2CH2C4H3CHC2H5NSFeH2SCH4CHSFeCHC3H4CNH2C2SCH2SH3CFeHCH5SCH3CFeH3C2H3CH2CHSH2C3H2C3HS2HCHSFeHFeCH4C3FeHSHCH4C2HCH2NHFeS2H4C2HC5HC3HCNC2H2CHCNHCHFeH2SFeCHCHC3HCH2N2HSH2CHCH13CHCHCH5CSH3CH3NC10HC2NCNHCH2CH7SC3H5CSC2H5SHCHCH2C2HCH2CH2CH2CH4CH2SHCH2CNSC3HCH3CH2FeHCH8CHC3HCSCH3NS2HFeHCHSC3H7CH3CH2C2HSC2H4SH4CHCHSH2SFeSHFeSFeS2FeS2FeS2FeHFeS3FeS2FeS2FeSFeHS2CFeS2FeS2FeSFeS2H5C2HFe2SHC2H2CHCFeCFeSHFe2S2FeCSC2H2SHCFeHC2NH2CH2FeSHCH9CNC2HCH2CSH5CH5C3NFeC2H3C2H3CHNH6CSCHC6H4CHC4S2H3CHCSH3CH2C7H4C6H4C6H5CHCH2C6H4C6H4C6H6C2H2CH2SH2NCH4CHCSHFeHCHCHN2HCH6NH4CHCH3CH5NC8H20NC8H20SCHCH3CHC3H2CHC2H2FeHCHSCH4CH6NC2HCH3FeSHSC2SH9C2HSCH2CFeC2SCS2HCHCN2HCH2C3HC2H4C2H6CHCH2SHCH5CHCH4C2HCH2CHC2HSHC2HCH3CH5CHCHC2H4C2H4NH4S2H7SCNSC2HC3H4C2H3CH2C2HFeHCH3CH3CHCHC2NHCH2SH3CFeCFeH3FeC2H6SH2CH3SH2CHCHSCFeH4CH4C4HCHC6HSCH3CHC2FeSH3CH6SH3CH3CH2CH3CHCH2CH3CH3CH3C3H6C2HSH2SHFeSHSCH2SFeS2FeSCFeSFeS3FeCSH2CSH3CS2H2S3C2HCH4C2HC2H5CH3FeSFeS2FeSFeS3H3CS4CFeCH6C6H4CFeC5SH2C4H6SCHCSC7H5C2HC3H2C5H7CSH2CH4C6H5SC2H3C5H2C6H9C3HNC6H4S2HSNHCH2SHFeH2CNH2C2HFeC2HSHFeNH5CH2C2SH8C5HFeHFeH4Fe2NC3H2C2HCH3CH2CH3FeC3H2CSFeH2C2HFeH2CHSHCHCH4CHFeCH3CH2CH3C2H5CH2CH2SCH2CH6SCH4CHCH4CH2SHNC3FeHCHSH3SH2C2H7FeH2SHCHCFeHCH3SH2CHCSC3H3NH4C2H2C2H4SH2NCHNC3H2C2H7CNH3CHCHC2H2C2H7NCH4C4H4C2NHSH2CHSC2H2C2H2C2H2CH5CHCH8CHSCH6CFeCH2FeC2H3SHSHCH2C3HCSHSFeH2SH8FeNCS2CFeSFeHSFeS2FeS2FeSFeHS2HSHCH2C2FeHSFeH2CH3S2H2CHC2HCNC5HCHCSHC6H2CHFe2H2SHFeCH2C6H4C6H4C6H5CHC2HCH2C4H5C3H6C5H6FeHCHCH2CH4SCH6CFeCSHCS2H2S2HCH3FeCHCHCHSCH3SNHC3FeH3C2H3C2H2FeHSCH4CSC2H2CHC2HC2H2CSHC2HC2HS2H3CH2CH6C2HC2NC8H20C3H3CH2C2HCHCH2SCHNHNH3SC4HCH3CHC2H2FeCH4CH2CSNCHCHCHNH4CH6C2HCH3CHCNCH2SH2CSHNH2CH3SH5CH6CHSHC2HC2SHFeCH2CH6C2H2C2H2CH5SHS2HCH2CHCHC2H2CHFeH3CH2CH8C2SH3FeS2FeS2FeSFeS3HSFeSHFeSFeSH3SCH2CHNFeS2FeSFeSFeS3H3C3HNHCFeH2C2H4CH3C3HC3HSCH4C6H4C4HCH2CHC6H4C6H7CH2CHS2CHC3HC2SH4C3HSCH2C2H2CH2CH4CHCH2C2H6C2H2CNHNC8H13CHCH2CH2CHCH5SCH2S2C2HC2H4CHC3H5CH8CSCSH4CH6SH2CH2FeH2CHCH6CH5CSCH2CHCH2FeH4CH2C3HNCHNH2NC8H12FeC2HCHCHCHCHCHCH3CSH2CHNH8NCH4SHCHSHCFeSH2FeS2FeS2FeSFeS3HSCSFeS2FeS2FeSFeS3FeC6H4C6HCH2C6H4C6H6C2H5C2H4SCH2CFeCH7FeC6H7CHC2HSHFeHC3H2SH6C2HSH3CSCHC5HCH5CNH6CH6SCH4C2H2CHCH2CH2C2HC2NC2NC5HCH8CH4FeH8CH4CH6C3H7NH3CSHCSNC8H20NC6H6CH8CH2SHSHCHC2HFe2HSNSHC3H3FeCH2CHNH5CS2C2H4FeH3C2HCH3C3FeCHSHCFeCH4CHCSHSCHFeH3CH3SHCH5SHCH3CH2NC2H2CH
_chemical_formula_sum              "N384 H9216 Fe768 S1536 C5376"
_cell_length_a       95.5408
_cell_length_b       96.4956
_cell_length_c       96.6768
_cell_angle_alpha    73.7015
_cell_angle_beta     73.711
_cell_angle_gamma    73.7343

_space_group_name_H-M_alt    "P 1"
_space_group_IT_number       1

loop_
  _space_group_symop_operation_xyz
  'x, y, z'

loop_
  _atom_site_type_symbol
  _atom_site_label
  _atom_site_symmetry_multiplicity
  _atom_site_fract_x
  _atom_site_fract_y
  _atom_site_fract_z
  _atom_site_occupancy
  N   N1        1.0  0.06524  0.16804  0.36783  1.0000
  H   H1        1.0  0.01498  0.08075  0.44920  1.0000
  Fe  Fe1       1.0  0.11553  0.05283  0.43094  1.0000
  S   S1        1.0  0.10505  0.04971  0.45523  1.0000
  S   S2        1.0  0.13229  0.03557  0.41945  1.0000
  Fe  Fe2       1.0  0.09987  0.08525  0.42421  1.0000
  S   S3        1.0  0.08829  0.08466  0.44777  1.0000
  S   S4        1.0  0.09474  0.10678  0.40780  1.0000
  Fe  Fe3       1.0  0.11024  0.07170  0.45297  1.0000
  H   H2        1.0  0.20377  0.15170  0.42158  1.0000
  Fe  Fe4       1.0  0.08390  0.06302  0.44783  1.0000
  S   S5        1.0  0.06049  0.06031  0.45985  1.0000
  S   S6        1.0  0.12234  0.07377  0.42924  1.0000
  S   S7        1.0  0.09393  0.06452  0.42365  1.0000
  H   H3        1.0  0.99853  0.09704  0.42580  1.0000
  C   C1        1.0  0.17949  0.14512  0.41522  1.0000
  C   C2        1.0  0.19521  0.05160  0.46767  1.0000
  S   S8        1.0  0.18379  0.17285  0.45703  1.0000
  N   N2        1.0  0.17411  0.16151  0.41438  1.0000
  C   C3        1.0  0.06838  0.13500  0.45225  1.0000
  C   C4        1.0  0.01459  0.09282  0.44578  1.0000
  H   H4        1.0  0.07890  0.18347  0.35340  1.0000
  S   S9        1.0  0.19433  0.13043  0.45939  1.0000
  Fe  Fe5       1.0  0.12541  0.20425  0.40912  1.0000
  S   S10       1.0  0.13458  0.19401  0.38941  1.0000
  C   C5        1.0  0.00977  0.18751  0.34878  1.0000
  Fe  Fe6       1.0  0.09429  0.20097  0.41177  1.0000
  S   S11       1.0  0.10070  0.19042  0.39226  1.0000
  S   S12       1.0  0.07051  0.20515  0.42405  1.0000
  Fe  Fe7       1.0  0.12050  0.17752  0.40193  1.0000
  S   S13       1.0  0.13136  0.15338  0.40428  1.0000
  Fe  Fe8       1.0  0.11399  0.20792  0.38170  1.0000
  H   H5        1.0  0.18261  0.20389  0.44788  1.0000
  S   S14       1.0  0.11299  0.18658  0.42241  1.0000
  C   C6        1.0  0.13456  0.09401  0.47469  1.0000
  H   H6        1.0  0.10001  0.20285  0.46444  1.0000
  C   C7        1.0  0.22371  0.99616  0.47270  1.0000
  S   S15       1.0  0.01889  0.04000  0.43184  1.0000
  Fe  Fe9       1.0  0.00828  0.17320  0.38572  1.0000
  C   C8        1.0  0.15007  0.15548  0.43300  1.0000
  C   C9        1.0  0.06298  0.19069  0.42384  1.0000
  C   C10       1.0  0.04753  0.19262  0.42592  1.0000
  C   C11       1.0  0.04162  0.18150  0.42444  1.0000
  C   C12       1.0  0.05116  0.16829  0.42134  1.0000
  H   H7        1.0  0.17666  0.08749  0.46818  1.0000
  C   C13       1.0  0.07248  0.17741  0.42089  1.0000
  H   H8        1.0  0.04017  0.20280  0.42846  1.0000
  H   H9        1.0  0.02968  0.18310  0.42583  1.0000
  H   H10       1.0  0.08440  0.17572  0.41963  1.0000
  H   H11       1.0  0.02763  0.11538  0.44187  1.0000
  S   S16       1.0  0.01267  0.15213  0.40264  1.0000
  H   H12       1.0  0.11429  0.10943  0.37665  1.0000
  H   H13       1.0  0.13274  0.00345  0.42501  1.0000
  H   H14       1.0  0.99716  0.20111  0.45979  1.0000
  H   H15       1.0  0.19589  0.07233  0.43995  1.0000
  H   H16       1.0  0.05856  0.13515  0.46179  1.0000
  Fe  Fe10      1.0  0.99741  0.19225  0.40816  1.0000
  H   H17       1.0  0.13817  0.16083  0.43671  1.0000
  Fe  Fe11      1.0  0.17249  0.12340  0.46634  1.0000
  C   C14       1.0  0.99876  0.21372  0.34152  1.0000
  C   C15       1.0  0.14622  0.18678  0.45281  1.0000
  H   H18       1.0  0.00539  0.09147  0.40214  1.0000
  C   C16       1.0  0.04925  0.05429  0.45202  1.0000
  C   C17       1.0  0.05494  0.04920  0.43891  1.0000
  C   C18       1.0  0.04554  0.04473  0.43289  1.0000
  C   C19       1.0  0.03036  0.04557  0.43978  1.0000
  C   C20       1.0  0.02469  0.05068  0.45286  1.0000
  C   C21       1.0  0.03415  0.05489  0.45902  1.0000
  H   H19       1.0  0.06658  0.04857  0.43350  1.0000
  H   H20       1.0  0.05001  0.04065  0.42283  1.0000
  H   H21       1.0  0.01306  0.05119  0.45834  1.0000
  S   S17       1.0  0.04397  0.15449  0.41914  1.0000
  H   H22       1.0  0.17309  0.16696  0.39133  1.0000
  C   C22       1.0  0.13908  0.07846  0.36508  1.0000
  H   H23       1.0  0.08174  0.16713  0.34736  1.0000
  H   H24       1.0  0.05871  0.08501  0.42714  1.0000
  C   C23       1.0  0.14740  0.10222  0.44470  1.0000
  C   C24       1.0  0.13665  0.09359  0.44929  1.0000
  H   H25       1.0  0.07532  0.14561  0.37793  1.0000
  C   C25       1.0  0.00130  0.21240  0.32687  1.0000
  H   H26       1.0  0.15245  0.10527  0.43309  1.0000
  H   H27       1.0  0.13342  0.09014  0.44121  1.0000
  C   C26       1.0  0.10428  0.11995  0.40771  1.0000
  C   C27       1.0  0.09900  0.13499  0.40189  1.0000
  C   C28       1.0  0.10697  0.14550  0.40116  1.0000
  C   C29       1.0  0.12046  0.14089  0.40585  1.0000
  C   C30       1.0  0.12562  0.12590  0.41177  1.0000
  C   C31       1.0  0.11742  0.11551  0.41296  1.0000
  H   H28       1.0  0.08869  0.13849  0.39807  1.0000
  H   H29       1.0  0.10286  0.15709  0.39674  1.0000
  H   H30       1.0  0.13595  0.12234  0.41558  1.0000
  H   H31       1.0  0.12146  0.10405  0.41772  1.0000
  C   C32       1.0  0.14914  0.02853  0.42559  1.0000
  C   C33       1.0  0.16128  0.01991  0.41747  1.0000
  C   C34       1.0  0.17459  0.01358  0.42257  1.0000
  C   C35       1.0  0.17577  0.01585  0.43583  1.0000
  C   C36       1.0  0.16378  0.02483  0.44371  1.0000
  C   C37       1.0  0.15050  0.03117  0.43860  1.0000
  H   H32       1.0  0.16035  0.01806  0.40727  1.0000
  H   H33       1.0  0.18392  0.00697  0.41626  1.0000
  H   H34       1.0  0.16465  0.02669  0.45393  1.0000
  H   H35       1.0  0.14121  0.03786  0.44490  1.0000
  H   H36       1.0  0.09165  0.14487  0.43522  1.0000
  C   C38       1.0  0.18507  0.06973  0.44655  1.0000
  C   C39       1.0  0.02862  0.22087  0.40067  1.0000
  H   H37       1.0  0.07033  0.16524  0.38920  1.0000
  H   H38       1.0  0.15328  0.19503  0.44943  1.0000
  C   C40       1.0  0.01236  0.18628  0.33416  1.0000
  S   S18       1.0  0.19196  0.00754  0.44296  1.0000
  H   H39       1.0  0.17766  0.13880  0.42687  1.0000
  C   C41       1.0  0.18234  0.05784  0.44035  1.0000
  H   H40       1.0  0.06604  0.16408  0.45390  1.0000
  H   H41       1.0  0.02147  0.21718  0.41163  1.0000
  H   H42       1.0  0.09264  0.16979  0.37372  1.0000
  H   H43       1.0  0.07019  0.19370  0.37200  1.0000
  H   H44       1.0  0.11652  0.05501  0.39208  1.0000
  H   H45       1.0  0.01305  0.10689  0.40026  1.0000
  C   C42       1.0  0.13038  0.08924  0.46430  1.0000
  H   H46       1.0  0.21433  0.00248  0.46715  1.0000
  C   C43       1.0  0.10864  0.19482  0.47009  1.0000
  H   H47       1.0  0.02470  0.11619  0.41193  1.0000
  H   H48       1.0  0.14666  0.20943  0.46508  1.0000
  H   H49       1.0  0.10005  0.06606  0.38619  1.0000
  C   C44       1.0  0.14610  0.22645  0.43429  1.0000
  H   H50       1.0  0.16943  0.12826  0.41310  1.0000
  C   C45       1.0  0.06227  0.18876  0.38157  1.0000
  C   C46       1.0  0.11239  0.06462  0.38363  1.0000
  C   C47       1.0  0.04778  0.09242  0.43067  1.0000
  C   C48       1.0  0.12657  0.10777  0.37486  1.0000
  H   H51       1.0  0.18133  0.13592  0.39624  1.0000
  H   H52       1.0  0.15315  0.17704  0.44836  1.0000
  H   H53       1.0  0.15707  0.08480  0.34679  1.0000
  H   H54       1.0  0.17065  0.05640  0.44441  1.0000
  H   H55       1.0  0.13209  0.08667  0.35766  1.0000
  H   H56       1.0  0.14511  0.09363  0.38359  1.0000
  H   H57       1.0  0.16308  0.06891  0.38475  1.0000
  H   H58       1.0  0.18005  0.22292  0.46159  1.0000
  C   C49       1.0  0.07957  0.17142  0.35752  1.0000
  H   H59       1.0  0.21056  0.07840  0.45577  1.0000
  C   C50       1.0  0.09368  0.16527  0.36404  1.0000
  H   H60       1.0  0.19182  0.14222  0.41121  1.0000
  C   C51       1.0  0.06800  0.12331  0.44435  1.0000
  Fe  Fe12      1.0  0.20957  0.98999  0.43256  1.0000
  H   H61       1.0  0.13885  0.06767  0.36321  1.0000
  H   H62       1.0  0.16327  0.06913  0.36071  1.0000
  H   H63       1.0  0.15851  0.08787  0.36333  1.0000
  H   H64       1.0  0.17800  0.15902  0.43604  1.0000
  H   H65       1.0  0.07706  0.12259  0.43432  1.0000
  H   H66       1.0  0.04796  0.14867  0.39049  1.0000
  C   C52       1.0  0.01111  0.22997  0.37191  1.0000
  C   C53       1.0  0.07969  0.14448  0.46621  1.0000
  H   H67       1.0  0.07086  0.14729  0.36078  1.0000
  C   C54       1.0  0.02292  0.12222  0.43232  1.0000
  C   C55       1.0  0.21178  0.05009  0.45952  1.0000
  H   H68       1.0  0.12851  0.11711  0.37814  1.0000
  H   H69       1.0  0.20093  0.09416  0.46327  1.0000
  H   H70       1.0  0.00991  0.19749  0.31205  1.0000
  H   H71       1.0  0.06996  0.14310  0.47568  1.0000
  H   H72       1.0  0.05233  0.19890  0.35705  1.0000
  S   S19       1.0  0.01535  0.17160  0.36198  1.0000
  C   C56       1.0  0.07670  0.16077  0.45766  1.0000
  H   H73       1.0  0.11027  0.08806  0.37634  1.0000
  H   H74       1.0  0.01322  0.13075  0.43632  1.0000
  H   H75       1.0  0.11408  0.18633  0.46342  1.0000
  H   H76       1.0  0.20151  0.16756  0.42852  1.0000
  S   S20       1.0  0.01991  0.18525  0.39405  1.0000
  H   H77       1.0  0.09648  0.15301  0.36705  1.0000
  C   C57       1.0  0.14524  0.10279  0.47009  1.0000
  C   C58       1.0  0.12045  0.22922  0.43323  1.0000
  H   H78       1.0  0.08906  0.14312  0.47143  1.0000
  C   C59       1.0  0.18189  0.20074  0.45968  1.0000
  C   C60       1.0  0.19961  0.08612  0.45769  1.0000
  H   H79       1.0  0.03153  0.12825  0.42488  1.0000
  H   H80       1.0  0.05731  0.12651  0.44061  1.0000
  H   H81       1.0  0.04054  0.19523  0.34776  1.0000
  H   H82       1.0  0.15561  0.15301  0.44231  1.0000
  H   H83       1.0  0.18173  0.19027  0.40183  1.0000
  H   H84       1.0  0.12364  0.20976  0.46004  1.0000
  H   H85       1.0  0.00264  0.19833  0.43395  1.0000
  H   H86       1.0  0.20219  0.17003  0.40946  1.0000
  H   H87       1.0  0.19094  0.16547  0.39414  1.0000
  H   H88       1.0  0.15173  0.16685  0.41020  1.0000
  C   C61       1.0  0.06657  0.16622  0.41963  1.0000
  C   C62       1.0  0.15731  0.16585  0.41920  1.0000
  H   H89       1.0  0.09755  0.12569  0.43807  1.0000
  H   H90       1.0  0.19020  0.04703  0.44279  1.0000
  C   C63       1.0  0.99528  0.20823  0.43699  1.0000
  C   C64       1.0  0.01825  0.11372  0.42354  1.0000
  S   S21       1.0  0.00079  0.17295  0.42723  1.0000
  S   S22       1.0  0.16629  0.11629  0.44903  1.0000
  H   H91       1.0  0.06823  0.11229  0.45191  1.0000
  C   C65       1.0  0.17558  0.18648  0.39593  1.0000
  C   C66       1.0  0.09506  0.13492  0.44376  1.0000
  H   H92       1.0  0.19680  0.09265  0.44700  1.0000
  H   H93       1.0  0.15378  0.17714  0.42153  1.0000
  C   C67       1.0  0.06683  0.15146  0.37118  1.0000
  H   H94       1.0  0.18415  0.06148  0.42813  1.0000
  H   H95       1.0  0.17924  0.19114  0.38396  1.0000
  H   H96       1.0  0.16347  0.19122  0.39910  1.0000
  C   C68       1.0  0.17883  0.16948  0.39861  1.0000
  S   S23       1.0  0.11553  0.21986  0.35794  1.0000
  S   S24       1.0  0.23252  0.98696  0.43609  1.0000
  H   H97       1.0  0.03987  0.09165  0.41256  1.0000
  H   H98       1.0  0.05189  0.16854  0.35274  1.0000
  H   H99       1.0  0.06021  0.19136  0.34062  1.0000
  H   H100      1.0  0.99668  0.09798  0.46445  1.0000
  C   C69       1.0  0.05151  0.19109  0.35103  1.0000
  C   C70       1.0  0.05221  0.17518  0.36039  1.0000
  H   H101      1.0  0.11230  0.22646  0.42923  1.0000
  H   H102      1.0  0.06593  0.18924  0.39134  1.0000
  C   C71       1.0  0.18027  0.21158  0.46746  1.0000
  H   H103      1.0  0.04558  0.09000  0.44287  1.0000
  H   H104      1.0  0.09101  0.10925  0.45978  1.0000
  C   C72       1.0  0.01054  0.09188  0.42246  1.0000
  C   C73       1.0  0.01391  0.09496  0.40543  1.0000
  C   C74       1.0  0.06240  0.17256  0.38227  1.0000
  H   H105      1.0  0.17604  0.17735  0.42557  1.0000
  H   H106      1.0  0.21362  0.05596  0.44782  1.0000
  H   H107      1.0  0.02489  0.08835  0.40082  1.0000
  C   C75       1.0  0.05254  0.14567  0.37962  1.0000
  H   H108      1.0  0.05139  0.17073  0.38918  1.0000
  C   C76       1.0  0.18087  0.16564  0.42460  1.0000
  H   H109      1.0  0.04147  0.17529  0.36870  1.0000
  N   N3        1.0  0.01995  0.09724  0.42924  1.0000
  C   C77       1.0  0.16879  0.06373  0.47064  1.0000
  C   C78       1.0  0.19805  0.16352  0.42057  1.0000
  H   H110      1.0  0.01151  0.07969  0.42652  1.0000
  N   N4        1.0  0.08259  0.13300  0.45728  1.0000
  H   H111      1.0  0.03669  0.07698  0.42814  1.0000
  H   H112      1.0  0.02198  0.09440  0.45192  1.0000
  C   C79       1.0  0.03591  0.08914  0.42476  1.0000
  H   H113      1.0  0.00083  0.20223  0.36382  1.0000
  H   H114      1.0  0.15011  0.14494  0.43046  1.0000
  C   C80       1.0  0.15183  0.10669  0.45509  1.0000
  H   H115      1.0  0.04938  0.10387  0.42589  1.0000
  H   H116      1.0  0.21684  0.03828  0.45929  1.0000
  H   H117      1.0  0.23623  0.01247  0.45838  1.0000
  Fe  Fe13      1.0  0.02226  0.16496  0.41219  1.0000
  C   C81       1.0  0.13975  0.06572  0.39117  1.0000
  N   N5        1.0  0.13248  0.07914  0.38104  1.0000
  H   H118      1.0  0.14199  0.05554  0.38689  1.0000
  H   H119      1.0  0.17669  0.08015  0.44369  1.0000
  H   H120      1.0  0.04371  0.14948  0.37313  1.0000
  H   H121      1.0  0.15899  0.05505  0.40100  1.0000
  H   H122      1.0  0.11036  0.08120  0.39537  1.0000
  H   H123      1.0  0.05084  0.19576  0.38185  1.0000
  H   H124      1.0  0.05533  0.13338  0.38182  1.0000
  C   C82       1.0  0.15541  0.08007  0.35887  1.0000
  H   H125      1.0  0.06595  0.14581  0.44452  1.0000
  C   C83       1.0  0.13345  0.09311  0.38447  1.0000
  C   C84       1.0  0.17288  0.13860  0.40621  1.0000
  H   H126      1.0  0.08603  0.16313  0.44814  1.0000
  H   H127      1.0  0.10338  0.16874  0.35558  1.0000
  C   C85       1.0  0.11608  0.07904  0.38420  1.0000
  H   H128      1.0  0.13197  0.06370  0.40211  1.0000
  H   H129      1.0  0.07561  0.16808  0.46514  1.0000
  S   S25       1.0  0.21808  0.98766  0.40895  1.0000
  H   H130      1.0  0.07393  0.15602  0.41716  1.0000
  C   C86       1.0  0.14861  0.98514  0.43492  1.0000
  H   H131      1.0  0.12790  0.09332  0.39621  1.0000
  C   C87       1.0  0.15438  0.06618  0.39469  1.0000
  H   H132      1.0  0.16289  0.14603  0.40249  1.0000
  H   H133      1.0  0.15225  0.07398  0.40197  1.0000
  H   H134      1.0  0.01226  0.21825  0.37803  1.0000
  H   H135      1.0  0.11664  0.06202  0.37254  1.0000
  H   H136      1.0  0.13185  0.10863  0.36296  1.0000
  H   H137      1.0  0.13657  0.19114  0.44742  1.0000
  H   H138      1.0  0.00641  0.11906  0.42292  1.0000
  N   N6        1.0  0.18442  0.06583  0.46293  1.0000
  S   S26       1.0  0.11789  0.07732  0.47040  1.0000
  S   S27       1.0  0.99597  0.22754  0.31275  1.0000
  Fe  Fe14      1.0  0.18170  0.14981  0.46954  1.0000
  C   C88       1.0  0.18250  0.18593  0.46709  1.0000
  S   S28       1.0  0.10595  0.21963  0.40045  1.0000
  C   C89       1.0  0.11023  0.13540  0.44611  1.0000
  C   C90       1.0  0.13566  0.22297  0.42893  1.0000
  H   H139      1.0  0.21812  0.05376  0.46535  1.0000
  S   S29       1.0  0.14216  0.21078  0.41689  1.0000
  H   H140      1.0  0.16684  0.05355  0.46891  1.0000
  H   H141      1.0  0.11580  0.14274  0.43632  1.0000
  C   C91       1.0  0.18693  0.07849  0.46758  1.0000
  H   H142      1.0  0.02915  0.21339  0.39363  1.0000
  H   H143      1.0  0.11766  0.12419  0.44740  1.0000
  H   H144      1.0  0.19154  0.04178  0.46720  1.0000
  H   H145      1.0  0.07511  0.11438  0.47361  1.0000
  H   H146      1.0  0.01755  0.17568  0.33125  1.0000
  H   H147      1.0  0.14696  0.99519  0.41159  1.0000
  H   H148      1.0  0.10665  0.11758  0.47253  1.0000
  C   C92       1.0  0.08573  0.11756  0.46678  1.0000
  H   H149      1.0  0.10949  0.14014  0.45549  1.0000
  S   S30       1.0  0.15953  0.14376  0.47471  1.0000
  H   H150      1.0  0.15787  0.22159  0.43106  1.0000
  C   C93       1.0  0.00802  0.19862  0.32330  1.0000
  C   C94       1.0  0.00296  0.20125  0.35251  1.0000
  H   H151      1.0  0.15394  0.99352  0.43608  1.0000
  H   H152      1.0  0.17245  0.99225  0.40356  1.0000
  H   H153      1.0  0.02972  0.05870  0.46923  1.0000
  H   H154      1.0  0.16034  0.07298  0.46584  1.0000
  H   H155      1.0  0.03494  0.22441  0.36748  1.0000
  H   H156      1.0  0.13189  0.98615  0.42266  1.0000
  H   H157      1.0  0.05063  0.22882  0.37893  1.0000
  C   C95       1.0  0.99856  0.10063  0.45221  1.0000
  H   H158      1.0  0.00809  0.23021  0.36154  1.0000
  H   H159      1.0  0.03991  0.21956  0.40256  1.0000
  H   H160      1.0  0.13504  0.17309  0.47209  1.0000
  C   C96       1.0  0.14140  0.18185  0.46973  1.0000
  C   C97       1.0  0.13976  0.99269  0.42269  1.0000
  C   C98       1.0  0.23408  0.00675  0.47022  1.0000
  H   H161      1.0  0.13309  0.23265  0.38719  1.0000
  H   H162      1.0  0.23035  0.98776  0.46615  1.0000
  H   H163      1.0  0.99652  0.11283  0.44851  1.0000
  C   C99       1.0  0.11967  0.20325  0.47125  1.0000
  H   H164      1.0  0.15190  0.17618  0.47364  1.0000
  C   C100      1.0  0.14298  0.20371  0.47671  1.0000
  H   H165      1.0  0.22921  0.01535  0.47674  1.0000
  H   H166      1.0  0.19522  0.04979  0.47955  1.0000
  H   H167      1.0  0.23237  0.14612  0.52361  1.0000
  H   H168      1.0  0.06503  0.21019  0.69528  1.0000
  H   H169      1.0  0.12729  0.22437  0.48141  1.0000
  H   H170      1.0  0.00314  0.11372  0.58317  1.0000
  H   H171      1.0  0.20277  0.20620  0.54239  1.0000
  C   C101      1.0  0.17934  0.20765  0.48269  1.0000
  Fe  Fe15      1.0  0.19731  0.11838  0.48223  1.0000
  H   H172      1.0  0.24172  0.03064  0.62136  1.0000
  H   H173      1.0  0.05707  0.21196  0.78191  1.0000
  H   H174      1.0  0.19181  0.20942  0.89013  1.0000
  N   N7        1.0  0.21790  0.98859  0.48844  1.0000
  H   H175      1.0  0.15307  0.06034  0.49179  1.0000
  C   C102      1.0  0.05798  0.20992  0.70661  1.0000
  C   C103      1.0  0.12695  0.18686  0.49375  1.0000
  H   H176      1.0  0.01736  0.12443  0.57831  1.0000
  H   H177      1.0  0.04426  0.21286  0.73332  1.0000
  C   C104      1.0  0.21950  0.15851  0.54010  1.0000
  H   H178      1.0  0.02549  0.18753  0.73592  1.0000
  H   H179      1.0  0.10269  0.18969  0.48113  1.0000
  H   H180      1.0  0.04320  0.22160  0.81842  1.0000
  H   H181      1.0  0.21752  0.02220  0.58406  1.0000
  H   H182      1.0  0.03650  0.20890  0.75903  1.0000
  S   S31       1.0  0.00637  0.16079  0.65540  1.0000
  H   H183      1.0  0.20493  0.00533  0.59916  1.0000
  C   C105      1.0  0.03752  0.19926  0.75439  1.0000
  H   H184      1.0  0.00755  0.05769  0.65177  1.0000
  H   H185      1.0  0.14159  0.22003  0.60204  1.0000
  C   C106      1.0  0.19927  0.20815  0.53184  1.0000
  H   H186      1.0  0.20537  0.02169  0.48953  1.0000
  H   H187      1.0  0.17639  0.21315  0.54234  1.0000
  H   H188      1.0  0.19312  0.16378  0.53619  1.0000
  C   C107      1.0  0.12816  0.22806  0.63110  1.0000
  C   C108      1.0  0.15619  0.02543  0.64369  1.0000
  H   H189      1.0  0.19208  0.14514  0.54392  1.0000
  H   H190      1.0  0.14662  0.16891  0.49811  1.0000
  C   C109      1.0  0.04270  0.06162  0.64883  1.0000
  H   H191      1.0  0.14566  0.08131  0.63835  1.0000
  H   H192      1.0  0.20707  0.06431  0.61657  1.0000
  H   H193      1.0  0.02106  0.09603  0.65962  1.0000
  C   C110      1.0  0.02737  0.04722  0.63809  1.0000
  H   H194      1.0  0.01336  0.10070  0.71044  1.0000
  H   H195      1.0  0.05939  0.20006  0.74034  1.0000
  H   H196      1.0  0.19578  0.00244  0.48835  1.0000
  C   C111      1.0  0.22204  0.02576  0.59163  1.0000
  H   H197      1.0  0.23846  0.04525  0.52128  1.0000
  H   H198      1.0  0.05737  0.15199  0.73745  1.0000
  C   C112      1.0  0.02713  0.06357  0.65321  1.0000
  Fe  Fe16      1.0  0.09128  0.17803  0.68794  1.0000
  S   S32       1.0  0.09111  0.16345  0.71054  1.0000
  S   S33       1.0  0.07232  0.18695  0.67623  1.0000
  Fe  Fe17      1.0  0.12314  0.18065  0.68341  1.0000
  S   S34       1.0  0.12575  0.16665  0.70572  1.0000
  S   S35       1.0  0.14245  0.18870  0.66705  1.0000
  Fe  Fe18      1.0  0.11414  0.15212  0.70043  1.0000
  S   S36       1.0  0.12357  0.12768  0.70251  1.0000
  Fe  Fe19      1.0  0.10259  0.17938  0.71369  1.0000
  S   S37       1.0  0.09307  0.19002  0.73326  1.0000
  S   S38       1.0  0.11322  0.16535  0.67747  1.0000
  S   S39       1.0  0.10111  0.19475  0.69178  1.0000
  Fe  Fe20      1.0  0.18926  0.15498  0.58244  1.0000
  S   S40       1.0  0.17127  0.14587  0.57969  1.0000
  S   S41       1.0  0.19035  0.17819  0.56959  1.0000
  Fe  Fe21      1.0  0.20111  0.12669  0.60305  1.0000
  S   S42       1.0  0.18393  0.11530  0.60245  1.0000
  S   S43       1.0  0.21842  0.11374  0.61619  1.0000
  Fe  Fe22      1.0  0.18886  0.12505  0.57816  1.0000
  S   S44       1.0  0.19378  0.11076  0.56187  1.0000
  Fe  Fe23      1.0  0.16801  0.13703  0.60412  1.0000
  S   S45       1.0  0.14566  0.13782  0.61968  1.0000
  S   S46       1.0  0.20732  0.13495  0.57854  1.0000
  S   S47       1.0  0.18465  0.14769  0.60715  1.0000
  Fe  Fe24      1.0  0.09134  0.08417  0.66675  1.0000
  S   S48       1.0  0.08366  0.08992  0.64566  1.0000
  S   S49       1.0  0.08277  0.10321  0.67808  1.0000
  Fe  Fe25      1.0  0.10508  0.05227  0.66395  1.0000
  S   S50       1.0  0.09797  0.05559  0.64269  1.0000
  Fe  Fe26      1.0  0.10603  0.07676  0.63690  1.0000
  S   S51       1.0  0.12015  0.08589  0.61517  1.0000
  Fe  Fe27      1.0  0.07605  0.06854  0.65370  1.0000
  S   S52       1.0  0.05126  0.07195  0.65511  1.0000
  S   S53       1.0  0.11451  0.07264  0.65738  1.0000
  S   S54       1.0  0.08255  0.06347  0.67547  1.0000
  H   H199      1.0  0.06272  0.05070  0.63571  1.0000
  C   C113      1.0  0.01349  0.11975  0.65563  1.0000
  Fe  Fe28      1.0  0.16556  0.13083  0.49620  1.0000
  S   S55       1.0  0.15019  0.13282  0.51810  1.0000
  H   H200      1.0  0.03426  0.07988  0.61785  1.0000
  C   C114      1.0  0.21048  0.07899  0.49351  1.0000
  C   C115      1.0  0.00604  0.11283  0.68912  1.0000
  C   C116      1.0  0.19670  0.06008  0.62197  1.0000
  H   H201      1.0  0.00192  0.10260  0.66744  1.0000
  C   C117      1.0  0.13527  0.19053  0.59258  1.0000
  C   C118      1.0  0.18057  0.11544  0.55091  1.0000
  C   C119      1.0  0.18452  0.11041  0.53781  1.0000
  C   C120      1.0  0.17494  0.11541  0.52796  1.0000
  C   C121      1.0  0.16117  0.12513  0.53136  1.0000
  C   C122      1.0  0.15684  0.12954  0.54484  1.0000
  C   C123      1.0  0.16660  0.12479  0.55457  1.0000
  H   H202      1.0  0.19523  0.10308  0.53498  1.0000
  H   H203      1.0  0.17833  0.11186  0.51765  1.0000
  H   H204      1.0  0.14616  0.13699  0.54754  1.0000
  H   H205      1.0  0.16329  0.12836  0.56486  1.0000
  C   C124      1.0  0.13796  0.12398  0.61809  1.0000
  C   C125      1.0  0.14251  0.11860  0.60514  1.0000
  C   C126      1.0  0.13659  0.10726  0.60409  1.0000
  C   C127      1.0  0.12637  0.10103  0.61609  1.0000
  C   C128      1.0  0.12175  0.10652  0.62898  1.0000
  C   C129      1.0  0.12753  0.11799  0.62996  1.0000
  H   H206      1.0  0.15055  0.12319  0.59589  1.0000
  H   H207      1.0  0.14015  0.10311  0.59406  1.0000
  H   H208      1.0  0.11377  0.10189  0.63825  1.0000
  H   H209      1.0  0.12410  0.12199  0.64004  1.0000
  C   C130      1.0  0.11237  0.11999  0.69647  1.0000
  C   C131      1.0  0.11862  0.10779  0.68981  1.0000
  C   C132      1.0  0.10968  0.10234  0.68414  1.0000
  C   C133      1.0  0.09445  0.10890  0.68549  1.0000
  C   C134      1.0  0.08822  0.12076  0.69252  1.0000
  C   C135      1.0  0.09717  0.12643  0.69780  1.0000
  H   H210      1.0  0.13039  0.10274  0.68883  1.0000
  H   H211      1.0  0.11452  0.09311  0.67878  1.0000
  H   H212      1.0  0.07644  0.12570  0.69373  1.0000
  H   H213      1.0  0.09224  0.13568  0.70308  1.0000
  H   H214      1.0  0.00280  0.07035  0.69907  1.0000
  H   H215      1.0  0.20524  0.23235  0.53295  1.0000
  C   C136      1.0  0.22354  0.09463  0.59818  1.0000
  C   C137      1.0  0.22668  0.09699  0.61051  1.0000
  H   H216      1.0  0.05966  0.16365  0.71950  1.0000
  H   H217      1.0  0.11315  0.20485  0.66179  1.0000
  S   S56       1.0  0.22382  0.99026  0.65139  1.0000
  H   H218      1.0  0.21577  0.10294  0.59229  1.0000
  H   H219      1.0  0.07112  0.19073  0.71823  1.0000
  C   C138      1.0  0.14326  0.22133  0.63045  1.0000
  C   C139      1.0  0.11739  0.22402  0.73481  1.0000
  C   C140      1.0  0.12511  0.21245  0.72758  1.0000
  C   C141      1.0  0.11767  0.20209  0.72683  1.0000
  C   C142      1.0  0.10254  0.20310  0.73361  1.0000
  C   C143      1.0  0.09482  0.21465  0.74085  1.0000
  C   C144      1.0  0.10219  0.22514  0.74140  1.0000
  H   H220      1.0  0.13689  0.21145  0.72258  1.0000
  H   H221      1.0  0.12372  0.19316  0.72129  1.0000
  H   H222      1.0  0.08306  0.21558  0.74583  1.0000
  H   H223      1.0  0.17811  0.21522  0.85540  1.0000
  C   C145      1.0  0.16673  0.01630  0.65181  1.0000
  H   H224      1.0  0.03311  0.11613  0.67166  1.0000
  H   H225      1.0  0.00876  0.12056  0.64610  1.0000
  H   H226      1.0  0.00880  0.12397  0.68498  1.0000
  H   H227      1.0  0.02057  0.08300  0.69902  1.0000
  H   H228      1.0  0.02185  0.06678  0.61154  1.0000
  H   H229      1.0  0.02086  0.07062  0.66079  1.0000
  H   H230      1.0  0.06191  0.22404  0.76453  1.0000
  C   C146      1.0  0.22091  0.00440  0.61243  1.0000
  C   C147      1.0  0.03280  0.10452  0.67754  1.0000
  C   C148      1.0  0.18363  0.07322  0.62518  1.0000
  H   H231      1.0  0.05114  0.10381  0.68687  1.0000
  H   H232      1.0  0.17895  0.18986  0.50195  1.0000
  C   C149      1.0  0.14758  0.20930  0.64158  1.0000
  C   C150      1.0  0.13675  0.20349  0.65306  1.0000
  C   C151      1.0  0.03190  0.19019  0.71217  1.0000
  C   C152      1.0  0.05992  0.19377  0.71556  1.0000
  C   C153      1.0  0.00818  0.12050  0.58715  1.0000
  H   H233      1.0  0.15933  0.20443  0.64118  1.0000
  H   H234      1.0  0.16047  0.21868  0.84041  1.0000
  S   S57       1.0  0.23001  0.03613  0.49311  1.0000
  C   C154      1.0  0.19242  0.21027  0.59564  1.0000
  C   C155      1.0  0.19753  0.19499  0.60056  1.0000
  C   C156      1.0  0.19687  0.18496  0.59274  1.0000
  C   C157      1.0  0.19118  0.19022  0.57992  1.0000
  C   C158      1.0  0.18607  0.20543  0.57508  1.0000
  C   C159      1.0  0.18681  0.21542  0.58280  1.0000
  H   H235      1.0  0.20200  0.19093  0.61042  1.0000
  H   H236      1.0  0.20098  0.17323  0.59651  1.0000
  H   H237      1.0  0.18145  0.20948  0.56537  1.0000
  H   H238      1.0  0.00307  0.11027  0.61030  1.0000
  H   H239      1.0  0.09795  0.10271  0.48303  1.0000
  S   S58       1.0  0.18539  0.01106  0.64253  1.0000
  C   C160      1.0  0.18149  0.18197  0.48236  1.0000
  C   C161      1.0  0.15949  0.09324  0.64304  1.0000
  S   S59       1.0  0.02834  0.14501  0.68667  1.0000
  H   H240      1.0  0.19658  0.01524  0.50850  1.0000
  H   H241      1.0  0.22113  0.17630  0.50840  1.0000
  H   H242      1.0  0.06561  0.20075  0.81974  1.0000
  H   H243      1.0  0.03520  0.09372  0.63453  1.0000
  H   H244      1.0  0.02700  0.11094  0.62429  1.0000
  H   H245      1.0  0.22563  0.04812  0.58781  1.0000
  C   C162      1.0  0.22135  0.14654  0.53156  1.0000
  C   C163      1.0  0.03954  0.10209  0.69096  1.0000
  H   H246      1.0  0.99932  0.13047  0.58916  1.0000
  H   H247      1.0  0.21207  0.03075  0.59936  1.0000
  H   H248      1.0  0.15950  0.02881  0.63181  1.0000
  C   C164      1.0  0.13898  0.17830  0.50278  1.0000
  H   H249      1.0  0.06090  0.18668  0.70797  1.0000
  H   H250      1.0  0.13338  0.17341  0.51413  1.0000
  H   H251      1.0  0.14859  0.10625  0.47817  1.0000
  H   H252      1.0  0.04916  0.03797  0.62617  1.0000
  H   H253      1.0  0.11901  0.19523  0.49977  1.0000
  H   H254      1.0  0.02085  0.06565  0.59388  1.0000
  C   C165      1.0  0.18045  0.15606  0.52622  1.0000
  C   C166      1.0  0.23682  0.08610  0.61800  1.0000
  H   H255      1.0  0.00056  0.17795  0.73174  1.0000
  C   C167      1.0  0.23710  0.07741  0.48494  1.0000
  C   C168      1.0  0.20960  0.13280  0.52210  1.0000
  H   H256      1.0  0.20166  0.22965  0.50392  1.0000
  H   H257      1.0  0.06323  0.09366  0.58701  1.0000
  N   N8        1.0  0.16875  0.06928  0.63296  1.0000
  H   H258      1.0  0.04551  0.10089  0.61680  1.0000
  H   H259      1.0  0.17671  0.06324  0.65339  1.0000
  C   C169      1.0  0.00411  0.10897  0.70612  1.0000
  C   C170      1.0  0.04056  0.15660  0.68406  1.0000
  C   C171      1.0  0.03923  0.17012  0.67378  1.0000
  C   C172      1.0  0.04878  0.17952  0.67178  1.0000
  C   C173      1.0  0.06004  0.17526  0.67972  1.0000
  C   C174      1.0  0.06167  0.16158  0.68976  1.0000
  C   C175      1.0  0.05181  0.15233  0.69205  1.0000
  H   H260      1.0  0.03111  0.17318  0.66702  1.0000
  H   H261      1.0  0.04765  0.18996  0.66380  1.0000
  H   H262      1.0  0.07063  0.15801  0.69558  1.0000
  H   H263      1.0  0.05290  0.14185  0.69997  1.0000
  C   C176      1.0  0.10036  0.23332  0.69834  1.0000
  H   H264      1.0  0.22995  0.15685  0.54386  1.0000
  H   H265      1.0  0.19877  0.19719  0.53068  1.0000
  H   H266      1.0  0.03772  0.06830  0.59623  1.0000
  C   C177      1.0  0.13572  0.22341  0.58124  1.0000
  H   H267      1.0  0.20199  0.99414  0.61729  1.0000
  H   H268      1.0  0.19787  0.99191  0.50586  1.0000
  H   H269      1.0  0.01736  0.12043  0.60488  1.0000
  H   H270      1.0  0.12412  0.22949  0.58493  1.0000
  N   N9        1.0  0.20912  0.14804  0.52377  1.0000
  S   S60       1.0  0.21986  0.10510  0.48626  1.0000
  H   H271      1.0  0.22597  0.04278  0.57166  1.0000
  Fe  Fe29      1.0  0.99743  0.18479  0.65532  1.0000
  C   C178      1.0  0.04792  0.20113  0.73888  1.0000
  H   H272      1.0  0.11798  0.21532  0.61462  1.0000
  H   H273      1.0  0.20347  0.05834  0.49914  1.0000
  H   H274      1.0  0.17041  0.00478  0.67347  1.0000
  H   H275      1.0  0.04195  0.11114  0.59277  1.0000
  C   C179      1.0  0.21176  0.15787  0.50854  1.0000
  H   H276      1.0  0.01626  0.08968  0.62442  1.0000
  S   S61       1.0  0.19325  0.22275  0.60552  1.0000
  C   C180      1.0  0.05070  0.05225  0.63916  1.0000
  H   H277      1.0  0.00310  0.11918  0.70984  1.0000
  C   C181      1.0  0.16413  0.06816  0.60816  1.0000
  C   C182      1.0  0.04302  0.04505  0.63379  1.0000
  H   H278      1.0  0.19878  0.05193  0.63226  1.0000
  C   C183      1.0  0.16449  0.06258  0.48750  1.0000
  H   H279      1.0  0.13054  0.18075  0.59911  1.0000
  H   H280      1.0  0.14565  0.22171  0.48404  1.0000
  H   H281      1.0  0.22542  0.03664  0.61379  1.0000
  H   H282      1.0  0.14938  0.06843  0.66313  1.0000
  H   H283      1.0  0.04078  0.09739  0.67013  1.0000
  C   C184      1.0  0.14127  0.03001  0.65084  1.0000
  H   H284      1.0  0.22179  0.07701  0.53332  1.0000
  H   H285      1.0  0.16509  0.21492  0.88903  1.0000
  H   H286      1.0  0.17209  0.05339  0.49339  1.0000
  H   H287      1.0  0.23364  0.99885  0.58496  1.0000
  C   C185      1.0  0.05265  0.17523  0.73791  1.0000
  C   C186      1.0  0.19397  0.15327  0.53315  1.0000
  C   C187      1.0  0.21050  0.17435  0.50761  1.0000
  H   H288      1.0  0.02894  0.22023  0.79454  1.0000
  H   H289      1.0  0.16077  0.06075  0.60331  1.0000
  C   C188      1.0  0.11728  0.22197  0.64233  1.0000
  H   H290      1.0  0.23969  0.06891  0.51681  1.0000
  H   H291      1.0  0.20112  0.17897  0.51591  1.0000
  C   C189      1.0  0.21080  0.99748  0.60760  1.0000
  H   H292      1.0  0.02499  0.12160  0.65103  1.0000
  C   C190      1.0  0.14235  0.19111  0.61522  1.0000
  H   H293      1.0  0.02079  0.18783  0.71368  1.0000
  H   H294      1.0  0.22257  0.13588  0.53995  1.0000
  H   H295      1.0  0.00638  0.12872  0.66119  1.0000
  N   N10       1.0  0.01724  0.10195  0.68064  1.0000
  Fe  Fe30      1.0  0.00778  0.15860  0.67864  1.0000
  H   H296      1.0  0.13741  0.22381  0.87545  1.0000
  C   C191      1.0  0.12158  0.20958  0.65323  1.0000
  C   C192      1.0  0.10994  0.19532  0.62017  1.0000
  H   H297      1.0  0.16092  0.21168  0.86692  1.0000
  H   H298      1.0  0.23411  0.12376  0.51798  1.0000
  C   C193      1.0  0.23326  0.02671  0.61843  1.0000
  H   H299      1.0  0.13983  0.17986  0.61902  1.0000
  H   H300      1.0  0.16652  0.08716  0.65112  1.0000
  C   C194      1.0  0.16643  0.22078  0.85977  1.0000
  H   H301      1.0  0.17610  0.04804  0.64710  1.0000
  C   C195      1.0  0.23074  0.08163  0.59313  1.0000
  H   H302      1.0  0.22323  0.15401  0.50221  1.0000
  H   H303      1.0  0.21723  0.98730  0.60360  1.0000
  H   H304      1.0  0.07577  0.20965  0.80262  1.0000
  H   H305      1.0  0.15274  0.05899  0.62982  1.0000
  C   C196      1.0  0.16993  0.05953  0.64803  1.0000
  C   C197      1.0  0.14227  0.21307  0.59434  1.0000
  C   C198      1.0  0.11885  0.20645  0.60895  1.0000
  H   H306      1.0  0.19932  0.08537  0.49661  1.0000
  H   H307      1.0  0.14557  0.18556  0.50391  1.0000
  H   H308      1.0  0.07000  0.21782  0.81866  1.0000
  H   H309      1.0  0.12972  0.09070  0.48633  1.0000
  C   C199      1.0  0.01335  0.10431  0.66591  1.0000
  H   H310      1.0  0.13003  0.23152  0.70038  1.0000
  C   C200      1.0  0.24425  0.07316  0.61277  1.0000
  H   H311      1.0  0.14913  0.18150  0.57370  1.0000
  H   H312      1.0  0.22341  0.11355  0.51385  1.0000
  H   H313      1.0  0.23537  0.03165  0.53784  1.0000
  C   C201      1.0  0.03272  0.19377  0.72652  1.0000
  N   N11       1.0  0.16209  0.13726  0.66150  1.0000
  C   C202      1.0  0.14676  0.13415  0.66877  1.0000
  C   C203      1.0  0.17009  0.13454  0.67375  1.0000
  C   C204      1.0  0.16998  0.12651  0.65157  1.0000
  C   C205      1.0  0.16011  0.15303  0.65267  1.0000
  C   C206      1.0  0.13704  0.13441  0.65835  1.0000
  C   C207      1.0  0.16309  0.14482  0.68475  1.0000
  C   C208      1.0  0.18712  0.12399  0.64681  1.0000
  C   C209      1.0  0.17399  0.15994  0.64689  1.0000
  H   H314      1.0  0.14759  0.12312  0.67657  1.0000
  H   H315      1.0  0.14010  0.14233  0.67553  1.0000
  H   H316      1.0  0.18191  0.13539  0.66951  1.0000
  H   H317      1.0  0.17070  0.12293  0.68029  1.0000
  H   H318      1.0  0.16759  0.11534  0.65705  1.0000
  H   H319      1.0  0.16570  0.12996  0.64123  1.0000
  H   H320      1.0  0.15578  0.15411  0.64277  1.0000
  H   H321      1.0  0.15115  0.16058  0.65895  1.0000
  H   H322      1.0  0.14192  0.12541  0.65225  1.0000
  H   H323      1.0  0.12600  0.13249  0.66513  1.0000
  H   H324      1.0  0.13494  0.14525  0.65055  1.0000
  H   H325      1.0  0.16145  0.15670  0.67914  1.0000
  H   H326      1.0  0.15234  0.14240  0.69189  1.0000
  H   H327      1.0  0.17070  0.14286  0.69225  1.0000
  H   H328      1.0  0.19255  0.11782  0.65618  1.0000
  H   H329      1.0  0.19108  0.13433  0.64148  1.0000
  H   H330      1.0  0.19105  0.11695  0.63855  1.0000
  H   H331      1.0  0.17943  0.15886  0.63537  1.0000
  H   H332      1.0  0.18245  0.15554  0.65369  1.0000
  H   H333      1.0  0.17043  0.17193  0.64699  1.0000
  N   N12       1.0  0.02495  0.09801  0.60118  1.0000
  C   C210      1.0  0.01331  0.11229  0.60169  1.0000
  C   C211      1.0  0.99564  0.22130  0.68964  1.0000
  C   C212      1.0  0.01889  0.08808  0.59577  1.0000
  C   C213      1.0  0.03906  0.10163  0.59064  1.0000
  C   C214      1.0  0.03409  0.09990  0.62321  1.0000
  H   H334      1.0  0.23907  0.08776  0.62771  1.0000
  C   C215      1.0  0.02543  0.07132  0.59959  1.0000
  C   C216      1.0  0.05315  0.08896  0.58987  1.0000
  C   C217      1.0  0.23948  0.06208  0.48646  1.0000
  H   H335      1.0  0.14482  0.99341  0.66101  1.0000
  C   C218      1.0  0.21285  0.06366  0.49503  1.0000
  H   H336      1.0  0.20804  0.18087  0.49677  1.0000
  H   H337      1.0  0.15171  0.22520  0.62123  1.0000
  H   H338      1.0  0.02022  0.09135  0.58355  1.0000
  H   H339      1.0  0.03734  0.10568  0.57915  1.0000
  H   H340      1.0  0.20723  0.12532  0.53314  1.0000
  H   H341      1.0  0.20448  0.15701  0.50174  1.0000
  H   H342      1.0  0.18172  0.17062  0.48818  1.0000
  C   C219      1.0  0.13426  0.23233  0.68837  1.0000
  C   C220      1.0  0.13661  0.21593  0.48557  1.0000
  C   C221      1.0  0.18824  0.21378  0.87944  1.0000
  H   H343      1.0  0.14245  0.23196  0.57577  1.0000
  C   C222      1.0  0.01089  0.21295  0.68215  1.0000
  H   H344      1.0  0.22515  0.05024  0.53752  1.0000
  H   H345      1.0  0.05400  0.08301  0.58125  1.0000
  H   H346      1.0  0.05387  0.08088  0.60046  1.0000
  H   H347      1.0  0.22838  0.07999  0.58345  1.0000
  H   H348      1.0  0.18710  0.07892  0.63180  1.0000
  H   H349      1.0  0.14393  0.01265  0.68613  1.0000
  H   H350      1.0  0.21606  0.01051  0.50311  1.0000
  C   C223      1.0  0.15063  0.18406  0.58363  1.0000
  H   H351      1.0  0.15817  0.19185  0.57918  1.0000
  H   H352      1.0  0.15576  0.07874  0.60688  1.0000
  C   C224      1.0  0.24134  0.01677  0.60726  1.0000
  H   H353      1.0  0.07612  0.21291  0.77412  1.0000
  H   H354      1.0  0.09824  0.20131  0.62369  1.0000
  C   C225      1.0  0.01725  0.08600  0.68831  1.0000
  H   H355      1.0  0.19492  0.05444  0.61429  1.0000
  H   H356      1.0  0.03352  0.11044  0.69770  1.0000
  C   C226      1.0  0.15942  0.18899  0.61258  1.0000
  S   S62       1.0  0.00464  0.22852  0.76431  1.0000
  H   H357      1.0  0.13769  0.19625  0.62498  1.0000
  H   H358      1.0  0.04019  0.18044  0.70897  1.0000
  N   N13       1.0  0.13502  0.20015  0.60256  1.0000
  H   H359      1.0  0.21731  0.16991  0.53344  1.0000
  H   H360      1.0  0.00013  0.08003  0.68109  1.0000
  H   H361      1.0  0.15678  0.09057  0.62287  1.0000
  N   N14       1.0  0.23137  0.01258  0.60015  1.0000
  C   C227      1.0  0.23616  0.04343  0.53349  1.0000
  H   H362      1.0  0.04495  0.17313  0.74889  1.0000
  H   H363      1.0  0.02611  0.19888  0.75413  1.0000
  H   H364      1.0  0.20796  0.21227  0.52254  1.0000
  H   H365      1.0  0.15619  0.17370  0.59032  1.0000
  C   C228      1.0  0.01953  0.05634  0.64797  1.0000
  N   N15       1.0  0.07714  0.14567  0.64341  1.0000
  C   C229      1.0  0.07922  0.14547  0.65835  1.0000
  C   C230      1.0  0.06071  0.14737  0.64451  1.0000
  C   C231      1.0  0.08240  0.15843  0.63189  1.0000
  C   C232      1.0  0.08618  0.13146  0.63904  1.0000
  C   C233      1.0  0.09520  0.14499  0.65929  1.0000
  C   C234      1.0  0.05419  0.13368  0.65307  1.0000
  C   C235      1.0  0.07593  0.17379  0.63575  1.0000
  C   C236      1.0  0.08552  0.12973  0.62385  1.0000
  H   H366      1.0  0.07178  0.15520  0.66244  1.0000
  H   H367      1.0  0.07575  0.13579  0.66669  1.0000
  H   H368      1.0  0.05798  0.15073  0.63342  1.0000
  H   H369      1.0  0.05396  0.15652  0.65006  1.0000
  H   H370      1.0  0.09482  0.15655  0.62923  1.0000
  H   H371      1.0  0.07953  0.15927  0.62125  1.0000
  H   H372      1.0  0.09816  0.13047  0.63841  1.0000
  H   H373      1.0  0.08360  0.12156  0.64767  1.0000
  H   H374      1.0  0.10256  0.13394  0.65858  1.0000
  H   H375      1.0  0.10027  0.15374  0.65097  1.0000
  H   H376      1.0  0.09475  0.14682  0.67026  1.0000
  H   H377      1.0  0.04190  0.13680  0.65408  1.0000
  H   H378      1.0  0.05865  0.12445  0.64721  1.0000
  H   H379      1.0  0.05610  0.12975  0.66447  1.0000
  H   H380      1.0  0.07984  0.17468  0.64518  1.0000
  H   H381      1.0  0.06354  0.17660  0.63818  1.0000
  H   H382      1.0  0.07980  0.18236  0.62613  1.0000
  H   H383      1.0  0.09412  0.13465  0.61494  1.0000
  H   H384      1.0  0.07444  0.13469  0.62111  1.0000
  H   H385      1.0  0.08767  0.11779  0.62392  1.0000
  H   H386      1.0  0.16328  0.18123  0.62231  1.0000
  H   H387      1.0  0.16264  0.19951  0.61151  1.0000
  H   H388      1.0  0.17903  0.14590  0.52416  1.0000
  C   C237      1.0  0.15921  0.22750  0.84626  1.0000
  H   H389      1.0  0.00664  0.22993  0.65015  1.0000
  H   H390      1.0  0.11435  0.19048  0.63037  1.0000
  C   C238      1.0  0.00227  0.08135  0.69132  1.0000
  H   H391      1.0  0.01763  0.23111  0.93110  1.0000
  C   C239      1.0  0.06669  0.21172  0.81236  1.0000
  C   C240      1.0  0.15496  0.05811  0.65912  1.0000
  H   H392      1.0  0.21677  0.06727  0.55223  1.0000
  S   S63       1.0  0.17639  0.10966  0.48843  1.0000
  H   H393      1.0  0.17947  0.21748  0.52293  1.0000
  H   H394      1.0  0.04790  0.21159  0.80463  1.0000
  C   C241      1.0  0.05158  0.21973  0.80808  1.0000
  C   C242      1.0  0.15715  0.08342  0.63405  1.0000
  H   H395      1.0  0.14679  0.20969  0.69381  1.0000
  C   C243      1.0  0.17204  0.22297  0.88220  1.0000
  H   H396      1.0  0.21849  0.08615  0.54765  1.0000
  H   H397      1.0  0.12773  0.19624  0.58479  1.0000
  H   H398      1.0  0.24195  0.03584  0.57962  1.0000
  C   C244      1.0  0.18362  0.21850  0.53220  1.0000
  H   H399      1.0  0.03245  0.19996  0.70285  1.0000
  C   C245      1.0  0.17992  0.19284  0.49014  1.0000
  H   H400      1.0  0.00663  0.08933  0.60033  1.0000
  H   H401      1.0  0.12036  0.17875  0.49441  1.0000
  H   H402      1.0  0.01322  0.20153  0.68893  1.0000
  H   H403      1.0  0.12026  0.99388  0.67833  1.0000
  C   C246      1.0  0.22962  0.03861  0.58230  1.0000
  N   N16       1.0  0.16625  0.23153  0.86855  1.0000
  H   H404      1.0  0.16467  0.10240  0.63552  1.0000
  S   S64       1.0  0.01748  0.03936  0.63047  1.0000
  H   H405      1.0  0.13625  0.21742  0.57280  1.0000
  H   H406      1.0  0.17009  0.16006  0.53408  1.0000
  H   H407      1.0  0.99584  0.21951  0.70151  1.0000
  C   C247      1.0  0.16229  0.01165  0.66711  1.0000
  H   H408      1.0  0.15707  0.04915  0.66892  1.0000
  H   H409      1.0  0.04628  0.21503  0.70565  1.0000
  H   H410      1.0  0.13316  0.03703  0.64450  1.0000
  S   S65       1.0  0.11812  0.03070  0.67530  1.0000
  H   H411      1.0  0.10742  0.22878  0.70652  1.0000
  H   H412      1.0  0.21047  0.15748  0.55021  1.0000
  C   C248      1.0  0.16422  0.06086  0.62454  1.0000
  H   H413      1.0  0.06399  0.17329  0.74011  1.0000
  H   H414      1.0  0.04228  0.18932  0.76213  1.0000
  H   H415      1.0  0.14719  0.05516  0.65439  1.0000
  H   H416      1.0  0.18903  0.20406  0.87505  1.0000
  C   C249      1.0  0.14733  0.01613  0.67426  1.0000
  C   C250      1.0  0.13926  0.21628  0.68625  1.0000
  H   H417      1.0  0.14577  0.21559  0.67491  1.0000
  H   H418      1.0  0.17526  0.06986  0.60152  1.0000
  C   C251      1.0  0.22258  0.08592  0.48834  1.0000
  C   C252      1.0  0.13680  0.02538  0.66615  1.0000
  H   H419      1.0  0.14850  0.09813  0.64949  1.0000
  H   H420      1.0  0.18285  0.08143  0.61456  1.0000
  H   H421      1.0  0.04040  0.09069  0.69779  1.0000
  H   H422      1.0  0.18348  0.22714  0.57855  1.0000
  H   H423      1.0  0.16397  0.07312  0.49033  1.0000
  H   H424      1.0  0.02591  0.07849  0.68169  1.0000
  H   H425      1.0  0.15440  0.20950  0.58993  1.0000
  H   H426      1.0  0.12973  0.21081  0.68912  1.0000
  C   C253      1.0  0.06331  0.23258  0.78271  1.0000
  C   C254      1.0  0.20580  0.01219  0.49917  1.0000
  H   H427      1.0  0.03575  0.23040  0.77592  1.0000
  H   H428      1.0  0.04112  0.16257  0.73074  1.0000
  H   H429      1.0  0.09435  0.22452  0.69976  1.0000
  H   H430      1.0  0.17155  0.04960  0.62489  1.0000
  H   H431      1.0  0.10949  0.18637  0.61533  1.0000
  H   H432      1.0  0.16557  0.18423  0.60289  1.0000
  H   H433      1.0  0.01060  0.22763  0.90958  1.0000
  H   H434      1.0  0.22731  0.99530  0.61974  1.0000
  S   S66       1.0  0.18677  0.13854  0.49169  1.0000
  H   H435      1.0  0.15337  0.19704  0.48017  1.0000
  C   C255      1.0  0.05265  0.16284  0.73078  1.0000
  C   C256      1.0  0.24133  0.07105  0.60021  1.0000
  H   H436      1.0  0.08994  0.12053  0.48697  1.0000
  C   C257      1.0  0.06448  0.21961  0.77568  1.0000
  H   H437      1.0  0.16140  0.99278  0.63688  1.0000
  N   N17       1.0  0.04811  0.19090  0.72949  1.0000
  C   C258      1.0  0.22438  0.12490  0.51333  1.0000
  H   H438      1.0  0.06187  0.21678  0.71166  1.0000
  C   C259      1.0  0.24069  0.00194  0.59051  1.0000
  H   H439      1.0  0.13314  0.21153  0.49759  1.0000
  H   H440      1.0  0.18107  0.16468  0.51588  1.0000
  H   H441      1.0  0.21324  0.01181  0.61966  1.0000
  H   H442      1.0  0.22731  0.02052  0.62888  1.0000
  C   C260      1.0  0.02711  0.09120  0.61675  1.0000
  H   H443      1.0  0.11251  0.21187  0.60008  1.0000
  H   H444      1.0  0.14091  0.22462  0.89273  1.0000
  H   H445      1.0  0.20086  0.13303  0.51648  1.0000
  H   H446      1.0  0.13299  0.23328  0.66011  1.0000
  H   H447      1.0  0.22648  0.13040  0.50143  1.0000
  H   H448      1.0  0.19294  0.22906  0.55035  1.0000
  S   S67       1.0  0.17744  0.22104  0.49264  1.0000
  H   H449      1.0  0.11185  0.22667  0.67767  1.0000
  H   H450      1.0  0.02721  0.20569  0.72574  1.0000
  S   S68       1.0  0.00371  0.20244  0.63551  1.0000
  C   C261      1.0  0.22343  0.07524  0.54459  1.0000
  H   H451      1.0  0.10556  0.22692  0.64270  1.0000
  H   H452      1.0  0.15403  0.22702  0.53580  1.0000
  C   C262      1.0  0.22734  0.05521  0.49146  1.0000
  H   H453      1.0  0.18905  0.07487  0.47893  1.0000
  H   H454      1.0  0.19632  0.22033  0.87190  1.0000
  H   H455      1.0  0.07459  0.23152  0.78454  1.0000
  H   H456      1.0  0.02039  0.21776  0.68134  1.0000
  H   H457      1.0  0.01068  0.21170  0.67117  1.0000
  N   N18       1.0  0.13271  0.19393  0.47787  1.0000
  H   H458      1.0  0.23452  0.99326  0.49704  1.0000
  H   H459      1.0  0.17187  0.98413  0.65080  1.0000
  H   H460      1.0  0.17111  0.23045  0.88952  1.0000
  Fe  Fe31      1.0  0.19980  0.99026  0.65346  1.0000
  C   C263      1.0  0.23009  0.98384  0.49699  1.0000
  C   C264      1.0  0.20399  0.99830  0.49558  1.0000
  S   S69       1.0  0.00098  0.18295  0.67767  1.0000
  H   H461      1.0  0.13404  0.98943  0.68918  1.0000
  C   C265      1.0  0.02972  0.23127  0.78734  1.0000
  C   C266      1.0  0.12596  0.98500  0.68637  1.0000
  C   C267      1.0  0.23990  0.07028  0.54606  1.0000
  C   C268      1.0  0.13869  0.23112  0.88183  1.0000
  H   H462      1.0  0.24405  0.09219  0.52161  1.0000
  H   H463      1.0  0.23965  0.06378  0.55760  1.0000
  H   H464      1.0  0.24357  0.08030  0.54598  1.0000
  S   S70       1.0  0.99556  0.20111  0.74685  1.0000
  H   H465      1.0  0.14706  0.23216  0.84945  1.0000
  H   H466      1.0  0.19198  0.98384  0.48143  1.0000
  C   C269      1.0  0.09568  0.11471  0.47782  1.0000
  H   H467      1.0  0.11290  0.21166  0.47777  1.0000
  H   H468      1.0  0.23418  0.43684  0.22643  1.0000
  H   H469      1.0  0.12105  0.35811  0.22147  1.0000
  C   C270      1.0  0.11034  0.29237  0.14155  1.0000
  H   H470      1.0  0.13027  0.34468  0.25231  1.0000
  S   S71       1.0  0.19087  0.42981  0.28551  1.0000
  H   H471      1.0  0.12556  0.33225  0.22004  1.0000
  C   C271      1.0  0.08836  0.25941  0.29714  1.0000
  S   S72       1.0  0.17556  0.45035  0.38931  1.0000
  H   H472      1.0  0.14956  0.24049  0.37871  1.0000
  C   C272      1.0  0.07254  0.28255  0.28667  1.0000
  Fe  Fe32      1.0  0.10728  0.30897  0.20736  1.0000
  S   S73       1.0  0.10364  0.33348  0.19821  1.0000
  S   S74       1.0  0.09498  0.30130  0.23069  1.0000
  Fe  Fe33      1.0  0.12477  0.30210  0.17742  1.0000
  S   S75       1.0  0.12178  0.32597  0.16600  1.0000
  S   S76       1.0  0.13762  0.28388  0.16551  1.0000
  Fe  Fe34      1.0  0.12759  0.32861  0.18595  1.0000
  S   S77       1.0  0.14691  0.33927  0.18215  1.0000
  Fe  Fe35      1.0  0.09820  0.32806  0.17940  1.0000
  S   S78       1.0  0.07752  0.34128  0.17098  1.0000
  S   S79       1.0  0.13173  0.30446  0.19679  1.0000
  S   S80       1.0  0.10067  0.30384  0.18919  1.0000
  Fe  Fe36      1.0  0.18669  0.30669  0.08733  1.0000
  S   S81       1.0  0.18520  0.33095  0.07734  1.0000
  S   S82       1.0  0.16602  0.29731  0.09694  1.0000
  Fe  Fe37      1.0  0.22077  0.29937  0.07979  1.0000
  S   S83       1.0  0.22169  0.32304  0.06962  1.0000
  S   S84       1.0  0.13857  0.28158  0.47084  1.0000
  Fe  Fe38      1.0  0.20347  0.32801  0.08906  1.0000
  S   S85       1.0  0.20410  0.34454  0.10131  1.0000
  Fe  Fe39      1.0  0.20364  0.32334  0.05889  1.0000
  S   S86       1.0  0.20775  0.33245  0.03418  1.0000
  S   S87       1.0  0.20376  0.30417  0.10023  1.0000
  S   S88       1.0  0.20375  0.29927  0.06794  1.0000
  Fe  Fe40      1.0  0.09163  0.30196  0.33252  1.0000
  S   S89       1.0  0.07807  0.32523  0.32933  1.0000
  S   S90       1.0  0.08581  0.28734  0.35481  1.0000
  Fe  Fe41      1.0  0.10890  0.30591  0.30057  1.0000
  S   S91       1.0  0.09663  0.32940  0.29478  1.0000
  S   S92       1.0  0.12564  0.29593  0.28250  1.0000
  Fe  Fe42      1.0  0.09985  0.33103  0.31629  1.0000
  S   S93       1.0  0.10753  0.35087  0.31636  1.0000
  Fe  Fe43      1.0  0.07629  0.32112  0.30832  1.0000
  S   S94       1.0  0.05468  0.32637  0.30117  1.0000
  S   S95       1.0  0.11375  0.30802  0.32126  1.0000
  S   S96       1.0  0.08831  0.29734  0.31240  1.0000
  Fe  Fe44      1.0  0.16609  0.37502  0.23236  1.0000
  S   S97       1.0  0.16630  0.35429  0.25008  1.0000
  S   S98       1.0  0.14966  0.38371  0.21759  1.0000
  Fe  Fe45      1.0  0.19206  0.38189  0.23939  1.0000
  S   S99       1.0  0.19476  0.36168  0.25758  1.0000
  S   S100      1.0  0.20652  0.39830  0.23298  1.0000
  Fe  Fe46      1.0  0.19121  0.35031  0.24200  1.0000
  S   S101      1.0  0.20533  0.32776  0.24031  1.0000
  Fe  Fe47      1.0  0.16980  0.36769  0.26396  1.0000
  S   S102      1.0  0.15598  0.36751  0.28695  1.0000
  S   S103      1.0  0.19073  0.37008  0.22311  1.0000
  S   S104      1.0  0.16729  0.38885  0.24694  1.0000
  H   H473      1.0  0.10901  0.27489  0.99834  1.0000
  H   H474      1.0  0.18206  0.48041  0.21309  1.0000
  H   H475      1.0  0.23305  0.39613  0.21119  1.0000
  C   C273      1.0  0.02618  0.23480  0.36792  1.0000
  S   S105      1.0  0.17680  0.28616  0.44131  1.0000
  H   H476      1.0  0.01817  0.30259  0.36283  1.0000
  Fe  Fe48      1.0  0.14751  0.39148  0.37250  1.0000
  S   S106      1.0  0.17064  0.37911  0.37496  1.0000
  S   S107      1.0  0.14037  0.41651  0.36782  1.0000
  Fe  Fe49      1.0  0.13759  0.36281  0.37532  1.0000
  S   S108      1.0  0.16004  0.34858  0.37794  1.0000
  S   S109      1.0  0.12069  0.34967  0.37730  1.0000
  Fe  Fe50      1.0  0.15912  0.36288  0.39302  1.0000
  S   S110      1.0  0.16187  0.35546  0.41661  1.0000
  Fe  Fe51      1.0  0.16889  0.36626  0.35958  1.0000
  S   S111      1.0  0.18641  0.36218  0.33912  1.0000
  S   S112      1.0  0.13598  0.37609  0.39158  1.0000
  S   S113      1.0  0.14644  0.37969  0.35605  1.0000
  S   S114      1.0  0.03015  0.26849  0.33120  1.0000
  C   C274      1.0  0.19161  0.45844  0.20876  1.0000
  C   C275      1.0  0.17254  0.30548  0.43485  1.0000
  C   C276      1.0  0.17898  0.31149  0.42022  1.0000
  C   C277      1.0  0.17573  0.32683  0.41453  1.0000
  C   C278      1.0  0.16628  0.33625  0.42358  1.0000
  C   C279      1.0  0.15996  0.33028  0.43829  1.0000
  C   C280      1.0  0.16290  0.31488  0.44386  1.0000
  H   H477      1.0  0.18648  0.30425  0.41323  1.0000
  H   H478      1.0  0.18067  0.33136  0.40320  1.0000
  H   H479      1.0  0.15262  0.33755  0.44531  1.0000
  H   H480      1.0  0.15794  0.31030  0.45517  1.0000
  C   C281      1.0  0.12196  0.31266  0.40721  1.0000
  H   H481      1.0  0.06583  0.28246  0.29815  1.0000
  H   H482      1.0  0.12829  0.31319  0.11542  1.0000
  N   N19       1.0  0.04577  0.30093  0.21486  1.0000
  H   H483      1.0  0.14389  0.27249  0.00930  1.0000
  H   H484      1.0  0.19628  0.32599  0.99025  1.0000
  C   C282      1.0  0.16498  0.36591  0.30107  1.0000
  C   C283      1.0  0.17991  0.36688  0.29812  1.0000
  C   C284      1.0  0.18660  0.36552  0.30984  1.0000
  C   C285      1.0  0.17841  0.36301  0.32449  1.0000
  C   C286      1.0  0.16364  0.36162  0.32735  1.0000
  C   C287      1.0  0.15689  0.36336  0.31569  1.0000
  H   H485      1.0  0.18625  0.36895  0.28687  1.0000
  H   H486      1.0  0.19804  0.36662  0.30754  1.0000
  H   H487      1.0  0.15744  0.35898  0.33859  1.0000
  H   H488      1.0  0.14540  0.36251  0.31804  1.0000
  C   C288      1.0  0.09305  0.26856  0.35484  1.0000
  C   C289      1.0  0.08838  0.25799  0.36731  1.0000
  H   H489      1.0  0.15911  0.45704  0.20699  1.0000
  H   H490      1.0  0.99908  0.36902  0.35825  1.0000
  C   C290      1.0  0.11047  0.24900  0.34365  1.0000
  C   C291      1.0  0.10392  0.26408  0.34289  1.0000
  H   H491      1.0  0.07985  0.26145  0.37649  1.0000
  C   C292      1.0  0.99736  0.28609  0.23681  1.0000
  H   H492      1.0  0.10756  0.27223  0.33324  1.0000
  C   C293      1.0  0.04695  0.31088  0.30991  1.0000
  C   C294      1.0  0.03648  0.30771  0.30430  1.0000
  C   C295      1.0  0.03108  0.29475  0.31095  1.0000
  C   C296      1.0  0.03618  0.28502  0.32319  1.0000
  C   C297      1.0  0.04631  0.28841  0.32900  1.0000
  C   C298      1.0  0.05145  0.30146  0.32253  1.0000
  H   H493      1.0  0.03279  0.31509  0.29466  1.0000
  H   H494      1.0  0.04877  0.26887  0.29946  1.0000
  H   H495      1.0  0.05012  0.28104  0.33857  1.0000
  H   H496      1.0  0.05883  0.30427  0.32747  1.0000
  C   C299      1.0  0.11710  0.35001  0.36032  1.0000
  C   C300      1.0  0.11968  0.36161  0.34812  1.0000
  C   C301      1.0  0.11651  0.36188  0.33473  1.0000
  C   C302      1.0  0.11102  0.35043  0.33338  1.0000
  C   C303      1.0  0.10850  0.33875  0.34553  1.0000
  C   C304      1.0  0.11141  0.33862  0.35904  1.0000
  H   H497      1.0  0.12379  0.37055  0.34909  1.0000
  H   H498      1.0  0.11832  0.37098  0.32537  1.0000
  H   H499      1.0  0.10414  0.32993  0.34458  1.0000
  H   H500      1.0  0.10928  0.32969  0.36848  1.0000
  C   C305      1.0  0.06527  0.33167  0.16893  1.0000
  C   C306      1.0  0.05092  0.33938  0.16692  1.0000
  C   C307      1.0  0.04127  0.33219  0.16431  1.0000
  C   C308      1.0  0.04610  0.31735  0.16332  1.0000
  C   C309      1.0  0.06038  0.30961  0.16549  1.0000
  C   C310      1.0  0.06987  0.31668  0.16848  1.0000
  H   H501      1.0  0.04731  0.35100  0.16717  1.0000
  H   H502      1.0  0.03032  0.33828  0.16249  1.0000
  H   H503      1.0  0.06414  0.29812  0.16471  1.0000
  H   H504      1.0  0.08095  0.31068  0.16979  1.0000
  C   C311      1.0  0.14569  0.35076  0.19381  1.0000
  C   C312      1.0  0.13736  0.36532  0.19140  1.0000
  C   C313      1.0  0.13850  0.37533  0.19890  1.0000
  C   C314      1.0  0.14789  0.37078  0.20891  1.0000
  C   C315      1.0  0.15591  0.35612  0.21164  1.0000
  C   C316      1.0  0.15499  0.34619  0.20392  1.0000
  H   H505      1.0  0.13048  0.36901  0.18330  1.0000
  H   H506      1.0  0.13231  0.38668  0.19675  1.0000
  H   H507      1.0  0.16321  0.35255  0.21933  1.0000
  H   H508      1.0  0.16172  0.33503  0.20555  1.0000
  C   C317      1.0  0.10406  0.30098  0.24427  1.0000
  C   C318      1.0  0.09556  0.30580  0.25707  1.0000
  C   C319      1.0  0.10230  0.30467  0.26859  1.0000
  C   C320      1.0  0.11753  0.29841  0.26752  1.0000
  C   C321      1.0  0.12614  0.29381  0.25460  1.0000
  C   C322      1.0  0.11943  0.29520  0.24291  1.0000
  H   H509      1.0  0.08373  0.31047  0.25807  1.0000
  H   H510      1.0  0.09558  0.30834  0.27846  1.0000
  H   H511      1.0  0.13796  0.28901  0.25369  1.0000
  H   H512      1.0  0.12605  0.29140  0.23305  1.0000
  C   C323      1.0  0.14641  0.28807  0.14666  1.0000
  C   C324      1.0  0.14798  0.30244  0.13906  1.0000
  C   C325      1.0  0.15476  0.30526  0.12389  1.0000
  C   C326      1.0  0.15969  0.29378  0.11625  1.0000
  C   C327      1.0  0.15804  0.27950  0.12387  1.0000
  C   C328      1.0  0.15166  0.27662  0.13903  1.0000
  H   H513      1.0  0.14394  0.31138  0.14480  1.0000
  H   H514      1.0  0.15566  0.31640  0.11793  1.0000
  H   H515      1.0  0.16161  0.27064  0.11800  1.0000
  H   H516      1.0  0.15044  0.26551  0.14479  1.0000
  H   H517      1.0  0.08078  0.28921  0.28530  1.0000
  H   H518      1.0  0.11456  0.35945  0.27161  1.0000
  H   H519      1.0  0.01453  0.34581  0.31831  1.0000
  C   C329      1.0  0.22452  0.34036  0.21615  1.0000
  C   C330      1.0  0.22293  0.32869  0.22849  1.0000
  C   C331      1.0  0.11951  0.29472  0.01344  1.0000
  H   H520      1.0  0.14232  0.24420  0.40191  1.0000
  S   S115      1.0  0.14068  0.46340  0.24628  1.0000
  H   H521      1.0  0.21489  0.34872  0.21362  1.0000
  C   C332      1.0  0.17308  0.42457  0.22139  1.0000
  H   H522      1.0  0.10855  0.25530  0.25548  1.0000
  C   C333      1.0  0.23797  0.32681  0.13078  1.0000
  C   C334      1.0  0.23475  0.31735  0.12406  1.0000
  C   C335      1.0  0.22451  0.32283  0.11488  1.0000
  C   C336      1.0  0.21733  0.33777  0.11243  1.0000
  C   C337      1.0  0.22041  0.34725  0.11929  1.0000
  C   C338      1.0  0.23079  0.34178  0.12842  1.0000
  H   H523      1.0  0.22211  0.31545  0.10979  1.0000
  H   H524      1.0  0.21483  0.35882  0.11746  1.0000
  H   H525      1.0  0.24316  0.40921  0.21937  1.0000
  C   C339      1.0  0.16615  0.44175  0.38202  1.0000
  C   C340      1.0  0.15216  0.44873  0.37870  1.0000
  C   C341      1.0  0.14444  0.44102  0.37404  1.0000
  C   C342      1.0  0.15060  0.42628  0.37282  1.0000
  C   C343      1.0  0.16477  0.41952  0.37571  1.0000
  C   C344      1.0  0.17251  0.42722  0.38028  1.0000
  H   H526      1.0  0.14713  0.45994  0.38008  1.0000
  H   H527      1.0  0.13350  0.44638  0.37175  1.0000
  H   H528      1.0  0.16982  0.40836  0.37443  1.0000
  H   H529      1.0  0.18342  0.42186  0.38263  1.0000
  C   C345      1.0  0.19823  0.41902  0.27218  1.0000
  C   C346      1.0  0.20687  0.42469  0.25856  1.0000
  C   C347      1.0  0.21022  0.41773  0.24676  1.0000
  C   C348      1.0  0.20450  0.40539  0.24842  1.0000
  C   C349      1.0  0.19654  0.39925  0.26225  1.0000
  C   C350      1.0  0.19373  0.40585  0.27423  1.0000
  H   H530      1.0  0.21067  0.43467  0.25706  1.0000
  H   H531      1.0  0.21672  0.42225  0.23623  1.0000
  H   H532      1.0  0.19221  0.38963  0.26371  1.0000
  H   H533      1.0  0.18755  0.40108  0.28484  1.0000
  H   H534      1.0  0.10404  0.24381  0.44626  1.0000
  H   H535      1.0  0.13481  0.33068  0.27560  1.0000
  H   H536      1.0  0.19582  0.32495  0.28393  1.0000
  C   C351      1.0  0.23895  0.46698  0.19874  1.0000
  H   H537      1.0  0.14709  0.29802  0.98203  1.0000
  C   C352      1.0  0.18119  0.31780  0.01016  1.0000
  C   C353      1.0  0.19334  0.32422  0.00216  1.0000
  C   C354      1.0  0.20138  0.32883  0.00959  1.0000
  C   C355      1.0  0.19749  0.32676  0.02504  1.0000
  C   C356      1.0  0.18560  0.32000  0.03303  1.0000
  C   C357      1.0  0.17739  0.31568  0.02560  1.0000
  H   H538      1.0  0.23455  0.25814  0.01450  1.0000
  H   H539      1.0  0.21058  0.33405  0.00337  1.0000
  H   H540      1.0  0.18253  0.31834  0.04494  1.0000
  H   H541      1.0  0.16801  0.31072  0.03185  1.0000
  C   C358      1.0  0.10152  0.34629  0.25689  1.0000
  H   H542      1.0  0.10872  0.28605  0.38708  1.0000
  H   H543      1.0  0.14732  0.32599  0.41547  1.0000
  S   S116      1.0  0.00365  0.28870  0.17889  1.0000
  C   C359      1.0  0.03959  0.31586  0.20595  1.0000
  H   H544      1.0  0.18954  0.46851  0.34662  1.0000
  H   H545      1.0  0.09166  0.24722  0.29803  1.0000
  H   H546      1.0  0.22491  0.30493  0.99948  1.0000
  S   S117      1.0  0.24292  0.28297  0.07813  1.0000
  H   H547      1.0  0.04921  0.25066  0.29844  1.0000
  H   H548      1.0  0.06792  0.29280  0.26428  1.0000
  H   H549      1.0  0.24105  0.32653  0.01967  1.0000
  H   H550      1.0  0.24255  0.35283  0.22883  1.0000
  H   H551      1.0  0.06490  0.27193  0.21420  1.0000
  C   C360      1.0  0.13684  0.32771  0.28691  1.0000
  H   H552      1.0  0.11243  0.34224  0.11730  1.0000
  C   C361      1.0  0.15267  0.32923  0.28611  1.0000
  C   C362      1.0  0.10598  0.34063  0.12889  1.0000
  H   H553      1.0  0.11215  0.26037  0.28790  1.0000
  H   H554      1.0  0.08181  0.27843  0.20789  1.0000
  H   H555      1.0  0.12103  0.29216  0.13333  1.0000
  H   H556      1.0  0.19707  0.45590  0.21821  1.0000
  H   H557      1.0  0.16014  0.32460  0.27668  1.0000
  C   C363      1.0  0.16926  0.45983  0.33674  1.0000
  H   H558      1.0  0.20852  0.45882  0.34471  1.0000
  C   C364      1.0  0.22593  0.29569  0.03137  1.0000
  C   C365      1.0  0.10536  0.31889  0.11140  1.0000
  H   H559      1.0  0.09846  0.32369  0.14719  1.0000
  C   C366      1.0  0.10475  0.32439  0.13549  1.0000
  H   H560      1.0  0.15875  0.44802  0.19338  1.0000
  H   H561      1.0  0.24370  0.34150  0.04121  1.0000
  H   H562      1.0  0.16646  0.42074  0.23260  1.0000
  H   H563      1.0  0.24025  0.30576  0.12586  1.0000
  H   H564      1.0  0.21757  0.47199  0.16963  1.0000
  H   H565      1.0  0.21062  0.43810  0.31397  1.0000
  H   H566      1.0  0.06019  0.25310  0.30940  1.0000
  N   N20       1.0  0.15830  0.32262  0.30018  1.0000
  H   H567      1.0  0.15505  0.41182  0.43985  1.0000
  S   S118      1.0  0.15763  0.46227  0.27885  1.0000
  H   H568      1.0  0.03057  0.36395  0.32956  1.0000
  H   H569      1.0  0.11945  0.25417  0.36941  1.0000
  H   H570      1.0  0.20637  0.44798  0.29667  1.0000
  H   H571      1.0  0.19556  0.42238  0.31810  1.0000
  Fe  Fe52      1.0  0.01100  0.31028  0.17022  1.0000
  C   C367      1.0  0.10255  0.26460  0.29632  1.0000
  C   C368      1.0  0.05623  0.25786  0.29897  1.0000
  H   H572      1.0  0.00007  0.32067  0.32833  1.0000
  S   S119      1.0  0.18194  0.45568  0.24868  1.0000
  C   C369      1.0  0.03863  0.28681  0.19969  1.0000
  C   C370      1.0  0.19135  0.42108  0.33022  1.0000
  H   H573      1.0  0.09815  0.31680  0.40822  1.0000
  H   H574      1.0  0.12709  0.29315  0.02095  1.0000
  H   H575      1.0  0.10185  0.29007  0.03263  1.0000
  H   H576      1.0  0.02481  0.26519  0.38097  1.0000
  H   H577      1.0  0.10888  0.28078  0.14556  1.0000
  H   H578      1.0  0.13607  0.30571  0.43853  1.0000
  N   N21       1.0  0.18848  0.44451  0.20726  1.0000
  C   C371      1.0  0.20327  0.43348  0.20500  1.0000
  H   H579      1.0  0.02330  0.29211  0.30636  1.0000
  H   H580      1.0  0.03538  0.35318  0.31554  1.0000
  H   H581      1.0  0.03999  0.27936  0.22266  1.0000
  C   C372      1.0  0.21537  0.43801  0.19123  1.0000
  C   C373      1.0  0.13635  0.27477  0.00158  1.0000
  Fe  Fe53      1.0  0.15829  0.46765  0.25467  1.0000
  H   H582      1.0  0.13818  0.41761  0.42417  1.0000
  H   H583      1.0  0.20842  0.43083  0.21469  1.0000
  H   H584      1.0  0.20170  0.42278  0.20419  1.0000
  C   C374      1.0  0.01318  0.32642  0.35453  1.0000
  H   H585      1.0  0.10083  0.27676  0.29387  1.0000
  C   C375      1.0  0.12382  0.29078  0.43679  1.0000
  H   H586      1.0  0.19964  0.46293  0.19889  1.0000
  H   H587      1.0  0.18781  0.45433  0.18439  1.0000
  H   H588      1.0  0.14458  0.40016  0.39980  1.0000
  H   H589      1.0  0.22504  0.42843  0.19043  1.0000
  H   H590      1.0  0.21148  0.44095  0.18080  1.0000
  H   H591      1.0  0.21990  0.44703  0.19215  1.0000
  H   H592      1.0  0.13025  0.41617  0.40238  1.0000
  H   H593      1.0  0.11207  0.34379  0.13537  1.0000
  H   H594      1.0  0.09732  0.29044  0.98910  1.0000
  H   H595      1.0  0.16915  0.44593  0.22590  1.0000
  H   H596      1.0  0.06850  0.30401  0.20872  1.0000
  H   H597      1.0  0.16392  0.30168  0.31523  1.0000
  H   H598      1.0  0.02752  0.24157  0.35640  1.0000
  C   C376      1.0  0.15559  0.46212  0.33017  1.0000
  N   N22       1.0  0.11004  0.35628  0.24448  1.0000
  C   C377      1.0  0.12411  0.35621  0.24872  1.0000
  C   C378      1.0  0.10018  0.37158  0.24211  1.0000
  C   C379      1.0  0.12191  0.36414  0.26126  1.0000
  C   C380      1.0  0.12345  0.33496  0.23099  1.0000
  C   C381      1.0  0.10727  0.38366  0.23031  1.0000
  H   H599      1.0  0.13217  0.36107  0.23908  1.0000
  H   H600      1.0  0.09019  0.37149  0.23842  1.0000
  H   H601      1.0  0.09533  0.37551  0.25261  1.0000
  H   H602      1.0  0.08249  0.33593  0.26389  1.0000
  S   S120      1.0  0.16224  0.25250  0.45972  1.0000
  H   H603      1.0  0.13290  0.36272  0.26387  1.0000
  H   H604      1.0  0.11755  0.37623  0.25793  1.0000
  H   H605      1.0  0.11742  0.32680  0.23916  1.0000
  H   H606      1.0  0.13453  0.33353  0.23336  1.0000
  H   H607      1.0  0.10663  0.38350  0.21906  1.0000
  H   H608      1.0  0.11902  0.38271  0.23041  1.0000
  H   H609      1.0  0.10135  0.39468  0.23272  1.0000
  N   N23       1.0  0.18697  0.31224  0.14836  1.0000
  C   C382      1.0  0.18180  0.32133  0.13448  1.0000
  C   C383      1.0  0.19673  0.29782  0.14486  1.0000
  C   C384      1.0  0.19585  0.32078  0.15226  1.0000
  C   C385      1.0  0.17330  0.30999  0.16041  1.0000
  C   C386      1.0  0.17337  0.33750  0.13475  1.0000
  C   C387      1.0  0.18888  0.28785  0.14102  1.0000
  C   C388      1.0  0.20752  0.31191  0.16156  1.0000
  C   C389      1.0  0.17585  0.29990  0.17537  1.0000
  H   H610      1.0  0.19145  0.32178  0.12483  1.0000
  H   H611      1.0  0.17420  0.31619  0.13173  1.0000
  H   H612      1.0  0.20198  0.29085  0.15409  1.0000
  H   H613      1.0  0.20631  0.30000  0.13543  1.0000
  H   H614      1.0  0.20231  0.32695  0.14207  1.0000
  H   H615      1.0  0.18823  0.32935  0.15821  1.0000
  H   H616      1.0  0.16662  0.32074  0.16300  1.0000
  H   H617      1.0  0.16537  0.30601  0.15675  1.0000
  H   H618      1.0  0.16289  0.33825  0.14337  1.0000
  H   H619      1.0  0.18051  0.34417  0.13598  1.0000
  H   H620      1.0  0.17019  0.34277  0.12394  1.0000
  H   H621      1.0  0.19707  0.27746  0.13913  1.0000
  H   H622      1.0  0.17954  0.28463  0.15014  1.0000
  H   H623      1.0  0.18484  0.29299  0.13067  1.0000
  H   H624      1.0  0.21717  0.30517  0.15508  1.0000
  H   H625      1.0  0.20279  0.30480  0.17197  1.0000
  H   H626      1.0  0.21214  0.31978  0.16454  1.0000
  H   H627      1.0  0.17717  0.30636  0.18262  1.0000
  H   H628      1.0  0.18539  0.29036  0.17442  1.0000
  H   H629      1.0  0.16598  0.29491  0.18093  1.0000
  C   C390      1.0  0.23867  0.26753  0.00609  1.0000
  C   C391      1.0  0.15628  0.30672  0.39534  1.0000
  H   H630      1.0  0.15494  0.29918  0.41871  1.0000
  H   H631      1.0  0.13681  0.33301  0.40162  1.0000
  H   H632      1.0  0.16065  0.31653  0.39442  1.0000
  H   H633      1.0  0.16621  0.29777  0.39282  1.0000
  H   H634      1.0  0.14978  0.30910  0.38678  1.0000
  C   C392      1.0  0.11270  0.25601  0.39814  1.0000
  C   C393      1.0  0.10416  0.26430  0.41061  1.0000
  C   C394      1.0  0.14253  0.25567  0.40151  1.0000
  H   H635      1.0  0.23619  0.38381  0.23529  1.0000
  H   H636      1.0  0.10418  0.25315  0.39418  1.0000
  H   H637      1.0  0.13072  0.27776  0.39444  1.0000
  H   H638      1.0  0.09501  0.27354  0.40713  1.0000
  H   H639      1.0  0.09875  0.25657  0.42011  1.0000
  H   H640      1.0  0.11164  0.26848  0.41462  1.0000
  H   H641      1.0  0.12953  0.39958  0.41621  1.0000
  H   H642      1.0  0.01655  0.32787  0.36407  1.0000
  H   H643      1.0  0.13768  0.25809  0.41268  1.0000
  C   C395      1.0  0.13511  0.31672  0.99136  1.0000
  H   H644      1.0  0.16336  0.46573  0.18784  1.0000
  H   H645      1.0  0.10588  0.26025  0.30713  1.0000
  H   H646      1.0  0.11739  0.31372  0.43739  1.0000
  C   C396      1.0  0.21824  0.47363  0.21873  1.0000
  H   H647      1.0  0.10879  0.47014  0.25228  1.0000
  H   H648      1.0  0.10013  0.31347  0.10604  1.0000
  C   C397      1.0  0.06922  0.25842  0.28522  1.0000
  C   C398      1.0  0.12217  0.31176  0.10800  1.0000
  H   H649      1.0  0.17316  0.43106  0.34578  1.0000
  H   H650      1.0  0.07117  0.27963  0.22597  1.0000
  C   C399      1.0  0.10616  0.23846  0.35636  1.0000
  C   C400      1.0  0.22753  0.47769  0.20493  1.0000
  H   H651      1.0  0.16290  0.33040  0.32540  1.0000
  H   H652      1.0  0.04008  0.33920  0.19977  1.0000
  H   H653      1.0  0.13924  0.27103  0.97926  1.0000
  H   H654      1.0  0.15572  0.27397  0.98268  1.0000
  H   H655      1.0  0.17923  0.31825  0.30703  1.0000
  H   H656      1.0  0.05223  0.25975  0.35978  1.0000
  H   H657      1.0  0.06379  0.29719  0.19588  1.0000
  H   H658      1.0  0.11918  0.24554  0.33459  1.0000
  H   H659      1.0  0.04733  0.24545  0.38498  1.0000
  H   H660      1.0  0.04274  0.31581  0.19401  1.0000
  S   S121      1.0  0.12030  0.25469  0.46039  1.0000
  H   H661      1.0  0.14714  0.30418  0.31017  1.0000
  H   H662      1.0  0.24061  0.30685  0.09119  1.0000
  C   C401      1.0  0.10580  0.32137  0.41162  1.0000
  C   C402      1.0  0.15233  0.32703  0.32671  1.0000
  H   H663      1.0  0.21186  0.45731  0.30692  1.0000
  H   H664      1.0  0.18540  0.43396  0.23057  1.0000
  N   N24       1.0  0.19193  0.37236  0.17225  1.0000
  C   C403      1.0  0.19232  0.38756  0.17334  1.0000
  C   C404      1.0  0.20520  0.36755  0.16049  1.0000
  C   C405      1.0  0.19318  0.36205  0.18712  1.0000
  C   C406      1.0  0.17728  0.37347  0.16853  1.0000
  C   C407      1.0  0.17993  0.39423  0.18537  1.0000
  C   C408      1.0  0.20589  0.37750  0.14481  1.0000
  C   C409      1.0  0.20025  0.34550  0.18749  1.0000
  C   C410      1.0  0.17565  0.36009  0.16393  1.0000
  H   H665      1.0  0.20326  0.38745  0.17542  1.0000
  H   H666      1.0  0.19131  0.39579  0.16281  1.0000
  H   H667      1.0  0.20588  0.35621  0.15939  1.0000
  H   H668      1.0  0.21572  0.36686  0.16370  1.0000
  H   H669      1.0  0.20024  0.36547  0.19243  1.0000
  H   H670      1.0  0.18209  0.36274  0.19488  1.0000
  H   H671      1.0  0.16779  0.37540  0.17806  1.0000
  H   H672      1.0  0.17509  0.38324  0.15938  1.0000
  H   H673      1.0  0.17982  0.38705  0.19653  1.0000
  H   H674      1.0  0.18197  0.40489  0.18572  1.0000
  H   H675      1.0  0.16870  0.39667  0.18294  1.0000
  H   H676      1.0  0.19570  0.37904  0.14072  1.0000
  H   H677      1.0  0.20809  0.38838  0.14414  1.0000
  H   H678      1.0  0.21547  0.37217  0.13706  1.0000
  H   H679      1.0  0.19534  0.34048  0.18158  1.0000
  H   H680      1.0  0.19865  0.33924  0.19918  1.0000
  H   H681      1.0  0.21248  0.34374  0.18299  1.0000
  H   H682      1.0  0.18415  0.35755  0.15399  1.0000
  H   H683      1.0  0.16457  0.36271  0.16106  1.0000
  H   H684      1.0  0.17574  0.35024  0.17310  1.0000
  H   H685      1.0  0.18317  0.43678  0.19082  1.0000
  C   C411      1.0  0.09119  0.26800  0.26991  1.0000
  H   H686      1.0  0.14546  0.34261  0.30769  1.0000
  H   H687      1.0  0.06432  0.26274  0.27525  1.0000
  H   H688      1.0  0.23322  0.34910  0.13365  1.0000
  H   H689      1.0  0.07482  0.24668  0.28500  1.0000
  H   H690      1.0  0.04875  0.35255  0.32542  1.0000
  H   H691      1.0  0.09909  0.27495  0.26892  1.0000
  H   H692      1.0  0.05219  0.28693  0.27799  1.0000
  C   C412      1.0  0.16485  0.45494  0.19590  1.0000
  C   C413      1.0  0.24269  0.38858  0.20566  1.0000
  H   H693      1.0  0.12672  0.33427  0.43450  1.0000
  H   H694      1.0  0.17396  0.47665  0.20055  1.0000
  C   C414      1.0  0.23861  0.34111  0.20685  1.0000
  C   C415      1.0  0.03210  0.33988  0.33846  1.0000
  H   H695      1.0  0.18212  0.41502  0.21875  1.0000
  N   N25       1.0  0.14342  0.41088  0.30783  1.0000
  C   C416      1.0  0.13879  0.40507  0.29719  1.0000
  C   C417      1.0  0.13651  0.40364  0.32329  1.0000
  C   C418      1.0  0.16028  0.40662  0.30531  1.0000
  C   C419      1.0  0.13799  0.42747  0.30467  1.0000
  C   C420      1.0  0.14680  0.40897  0.28074  1.0000
  C   C421      1.0  0.11934  0.40597  0.32724  1.0000
  C   C422      1.0  0.16732  0.40404  0.31864  1.0000
  C   C423      1.0  0.14134  0.43565  0.31452  1.0000
  H   H696      1.0  0.14058  0.39278  0.30047  1.0000
  H   H697      1.0  0.12663  0.40924  0.29748  1.0000
  H   H698      1.0  0.13945  0.40740  0.33175  1.0000
  H   H699      1.0  0.14109  0.39145  0.32526  1.0000
  H   H700      1.0  0.16466  0.39598  0.30162  1.0000
  H   H701      1.0  0.16534  0.41501  0.29626  1.0000
  H   H702      1.0  0.14308  0.43253  0.29317  1.0000
  H   H703      1.0  0.12574  0.43055  0.30538  1.0000
  H   H704      1.0  0.14451  0.42104  0.27600  1.0000
  H   H705      1.0  0.15904  0.40446  0.27886  1.0000
  H   H706      1.0  0.14253  0.40382  0.27429  1.0000
  H   H707      1.0  0.11529  0.40068  0.32075  1.0000
  H   H708      1.0  0.11581  0.40052  0.33902  1.0000
  H   H709      1.0  0.11372  0.41783  0.32609  1.0000
  H   H710      1.0  0.17959  0.40299  0.31460  1.0000
  H   H711      1.0  0.16567  0.39348  0.32651  1.0000
  H   H712      1.0  0.16301  0.41304  0.32470  1.0000
  H   H713      1.0  0.13670  0.43169  0.32642  1.0000
  H   H714      1.0  0.13608  0.44760  0.31156  1.0000
  H   H715      1.0  0.15351  0.43490  0.31248  1.0000
  C   C424      1.0  0.12551  0.33798  0.42286  1.0000
  C   C425      1.0  0.22078  0.45892  0.22658  1.0000
  H   H716      1.0  0.09733  0.35109  0.26687  1.0000
  C   C426      1.0  0.11428  0.35098  0.23031  1.0000
  H   H717      1.0  0.14361  0.33360  0.33414  1.0000
  N   N26       1.0  0.12264  0.26423  0.38532  1.0000
  H   H718      1.0  0.10261  0.27663  0.37737  1.0000
  Fe  Fe54      1.0  0.18198  0.45227  0.27257  1.0000
  H   H719      1.0  0.16547  0.42760  0.21373  1.0000
  H   H720      1.0  0.03367  0.30923  0.35016  1.0000
  C   C427      1.0  0.08773  0.34329  0.25386  1.0000
  C   C428      1.0  0.04515  0.24079  0.37663  1.0000
  S   S122      1.0  0.18973  0.47299  0.26964  1.0000
  H   H721      1.0  0.04048  0.33122  0.21872  1.0000
  H   H722      1.0  0.16899  0.46897  0.22027  1.0000
  N   N27       1.0  0.09754  0.31796  0.12743  1.0000
  H   H723      1.0  0.17889  0.29224  0.29499  1.0000
  H   H724      1.0  0.03980  0.32989  0.33484  1.0000
  H   H725      1.0  0.13539  0.31626  0.29172  1.0000
  C   C429      1.0  0.03706  0.29009  0.21485  1.0000
  C   C430      1.0  0.21402  0.28267  0.01377  1.0000
  H   H726      1.0  0.05794  0.30297  0.27805  1.0000
  H   H727      1.0  0.10423  0.35209  0.22607  1.0000
  C   C431      1.0  0.16689  0.29621  0.29459  1.0000
  H   H728      1.0  0.12751  0.31737  0.09683  1.0000
  H   H729      1.0  0.17164  0.47098  0.33447  1.0000
  C   C432      1.0  0.11284  0.27865  0.37913  1.0000
  H   H730      1.0  0.21394  0.45582  0.23742  1.0000
  H   H731      1.0  0.00108  0.32655  0.35850  1.0000
  C   C433      1.0  0.03669  0.35325  0.32655  1.0000
  C   C434      1.0  0.14639  0.41146  0.41600  1.0000
  H   H732      1.0  0.06617  0.24306  0.36082  1.0000
  Fe  Fe55      1.0  0.01034  0.26917  0.32291  1.0000
  C   C435      1.0  0.17821  0.47162  0.21078  1.0000
  H   H733      1.0  0.16178  0.28644  0.29760  1.0000
  C   C436      1.0  0.24111  0.45217  0.20633  1.0000
  H   H734      1.0  0.09485  0.34830  0.12975  1.0000
  C   C437      1.0  0.10712  0.28625  0.02214  1.0000
  H   H735      1.0  0.00202  0.27642  0.37240  1.0000
  H   H736      1.0  0.10894  0.33537  0.26036  1.0000
  H   H737      1.0  0.02326  0.24392  0.40118  1.0000
  H   H738      1.0  0.09072  0.33751  0.24467  1.0000
  H   H739      1.0  0.07904  0.35350  0.25174  1.0000
  H   H740      1.0  0.22894  0.36023  0.24325  1.0000
  H   H741      1.0  0.11873  0.28831  0.44880  1.0000
  H   H742      1.0  0.04873  0.29032  0.23703  1.0000
  H   H743      1.0  0.02735  0.26403  0.36239  1.0000
  H   H744      1.0  0.12412  0.29981  0.10818  1.0000
  H   H745      1.0  0.10467  0.33325  0.40598  1.0000
  H   H746      1.0  0.03146  0.27901  0.20106  1.0000
  H   H747      1.0  0.18130  0.33323  0.27413  1.0000
  C   C438      1.0  0.17358  0.32556  0.29810  1.0000
  H   H748      1.0  0.07530  0.31883  0.11180  1.0000
  H   H749      1.0  0.03469  0.29689  0.19165  1.0000
  C   C439      1.0  0.13729  0.40629  0.40826  1.0000
  H   H750      1.0  0.16585  0.30127  0.28307  1.0000
  H   H751      1.0  0.02490  0.29421  0.21903  1.0000
  H   H752      1.0  0.11366  0.30658  0.01177  1.0000
  N   N28       1.0  0.08034  0.26708  0.28470  1.0000
  H   H753      1.0  0.99857  0.26015  0.38584  1.0000
  Fe  Fe56      1.0  0.16331  0.27453  0.46228  1.0000
  C   C440      1.0  0.13505  0.26767  0.38975  1.0000
  S   S123      1.0  0.17029  0.31258  0.00131  1.0000
  C   C441      1.0  0.11580  0.23902  0.44285  1.0000
  C   C442      1.0  0.99835  0.33231  0.32917  1.0000
  H   H754      1.0  0.02856  0.31233  0.24767  1.0000
  H   H755      1.0  0.15838  0.46475  0.31792  1.0000
  H   H756      1.0  0.12855  0.26734  0.00720  1.0000
  S   S124      1.0  0.00298  0.31714  0.19195  1.0000
  H   H757      1.0  0.08533  0.27351  0.26071  1.0000
  H   H758      1.0  0.16777  0.36848  0.43830  1.0000
  H   H759      1.0  0.15263  0.34124  0.28262  1.0000
  H   H760      1.0  0.17801  0.42251  0.42819  1.0000
  H   H761      1.0  0.09468  0.29625  0.12789  1.0000
  C   C443      1.0  0.05402  0.24758  0.36139  1.0000
  C   C444      1.0  0.00540  0.35301  0.34444  1.0000
  H   H762      1.0  0.13403  0.28193  0.43500  1.0000
  C   C445      1.0  0.06212  0.29158  0.27605  1.0000
  H   H763      1.0  0.19562  0.28367  0.00420  1.0000
  C   C446      1.0  0.20530  0.44902  0.30811  1.0000
  C   C447      1.0  0.04436  0.30148  0.23061  1.0000
  H   H764      1.0  0.13971  0.39378  0.44146  1.0000
  C   C448      1.0  0.00524  0.26413  0.37476  1.0000
  H   H765      1.0  0.05161  0.30834  0.23143  1.0000
  H   H766      1.0  0.21128  0.28907  0.99067  1.0000
  H   H767      1.0  0.23759  0.38091  0.20292  1.0000
  H   H768      1.0  0.05021  0.28147  0.19498  1.0000
  H   H769      1.0  0.17256  0.33704  0.29903  1.0000
  C   C449      1.0  0.14051  0.29978  0.99311  1.0000
  H   H770      1.0  0.15031  0.45243  0.33449  1.0000
  C   C450      1.0  0.08174  0.32703  0.12789  1.0000
  H   H771      1.0  0.15323  0.31523  0.33241  1.0000
  H   H772      1.0  0.11140  0.27416  0.02539  1.0000
  C   C451      1.0  0.06211  0.29634  0.20792  1.0000
  H   H773      1.0  0.06014  0.32854  0.12359  1.0000
  H   H774      1.0  0.23435  0.30866  0.24102  1.0000
  H   H775      1.0  0.10378  0.33052  0.10489  1.0000
  H   H776      1.0  0.13643  0.32765  0.31469  1.0000
  C   C452      1.0  0.00715  0.35831  0.35739  1.0000
  H   H777      1.0  0.12130  0.28308  0.35497  1.0000
  H   H778      1.0  0.21070  0.27397  0.02363  1.0000
  C   C453      1.0  0.07019  0.28064  0.21455  1.0000
  C   C454      1.0  0.14727  0.30156  0.41110  1.0000
  H   H779      1.0  0.18672  0.41096  0.33415  1.0000
  C   C455      1.0  0.23417  0.28200  0.02484  1.0000
  C   C456      1.0  0.14974  0.38822  0.43421  1.0000
  C   C457      1.0  0.18470  0.32405  0.28326  1.0000
  H   H780      1.0  0.08716  0.30190  0.14493  1.0000
  H   H781      1.0  0.02716  0.31853  0.20847  1.0000
  H   H782      1.0  0.02335  0.29664  0.24534  1.0000
  C   C458      1.0  0.12877  0.25547  0.37339  1.0000
  C   C459      1.0  0.12008  0.28800  0.36446  1.0000
  H   H783      1.0  0.18621  0.31337  0.28035  1.0000
  H   H784      1.0  0.12867  0.34890  0.41859  1.0000
  H   H785      1.0  0.09104  0.23482  0.37756  1.0000
  C   C460      1.0  0.02831  0.30640  0.23944  1.0000
  C   C461      1.0  0.24266  0.40298  0.14877  1.0000
  H   H786      1.0  0.14474  0.32201  0.98565  1.0000
  H   H787      1.0  0.14402  0.27034  0.37986  1.0000
  H   H788      1.0  0.14552  0.38233  0.42838  1.0000
  H   H789      1.0  0.02244  0.32691  0.32388  1.0000
  C   C462      1.0  0.10058  0.25308  0.26629  1.0000
  C   C463      1.0  0.20803  0.28116  0.00113  1.0000
  Fe  Fe57      1.0  0.17235  0.47524  0.38230  1.0000
  C   C464      1.0  0.16954  0.39273  0.41149  1.0000
  H   H790      1.0  0.12823  0.33540  0.29322  1.0000
  H   H791      1.0  0.20486  0.43937  0.33696  1.0000
  H   H792      1.0  0.02068  0.31417  0.23257  1.0000
  H   H793      1.0  0.11254  0.29911  0.36229  1.0000
  H   H794      1.0  0.13099  0.28968  0.36477  1.0000
  C   C465      1.0  0.00149  0.27593  0.24931  1.0000
  H   H795      1.0  0.24408  0.43730  0.15054  1.0000
  H   H796      1.0  0.12589  0.31787  0.39541  1.0000
  H   H797      1.0  0.13585  0.26140  0.36359  1.0000
  H   H798      1.0  0.11893  0.24522  0.40341  1.0000
  C   C466      1.0  0.13617  0.32717  0.41341  1.0000
  H   H799      1.0  0.14522  0.29065  0.41148  1.0000
  H   H800      1.0  0.10729  0.24659  0.27456  1.0000
  H   H801      1.0  0.05129  0.24497  0.35212  1.0000
  C   C467      1.0  0.18461  0.38357  0.41537  1.0000
  H   H802      1.0  0.11112  0.29586  0.15127  1.0000
  H   H803      1.0  0.05704  0.32765  0.20426  1.0000
  H   H804      1.0  0.08080  0.26090  0.30798  1.0000
  H   H805      1.0  0.16559  0.45658  0.34897  1.0000
  C   C468      1.0  0.19428  0.44721  0.34023  1.0000
  H   H806      1.0  0.18689  0.37238  0.41309  1.0000
  H   H807      1.0  0.20146  0.46816  0.32841  1.0000
  H   H808      1.0  0.19390  0.38879  0.40812  1.0000
  H   H809      1.0  0.22690  0.36790  0.22471  1.0000
  C   C469      1.0  0.14759  0.33040  0.31188  1.0000
  H   H810      1.0  0.11620  0.31799  0.13631  1.0000
  H   H811      1.0  0.00621  0.26443  0.24889  1.0000
  H   H812      1.0  0.10159  0.32040  0.42364  1.0000
  C   C470      1.0  0.09677  0.30216  0.13525  1.0000
  H   H813      1.0  0.12152  0.30140  0.40675  1.0000
  C   C471      1.0  0.18168  0.44736  0.19415  1.0000
  C   C472      1.0  0.19860  0.46159  0.33981  1.0000
  N   N29       1.0  0.01602  0.33884  0.34129  1.0000
  H   H814      1.0  0.18540  0.38188  0.42690  1.0000
  H   H815      1.0  0.08167  0.33829  0.12069  1.0000
  H   H816      1.0  0.17236  0.40144  0.40157  1.0000
  H   H817      1.0  0.16498  0.38552  0.40750  1.0000
  H   H818      1.0  0.16415  0.42942  0.41749  1.0000
  C   C473      1.0  0.18861  0.45471  0.31484  1.0000
  H   H819      1.0  0.18990  0.44233  0.35206  1.0000
  H   H820      1.0  0.18688  0.46698  0.31241  1.0000
  H   H821      1.0  0.07623  0.32892  0.13917  1.0000
  H   H822      1.0  0.17214  0.39896  0.43767  1.0000
  C   C474      1.0  0.17218  0.41927  0.42154  1.0000
  N   N30       1.0  0.18310  0.44892  0.33116  1.0000
  C   C475      1.0  0.07112  0.32057  0.12322  1.0000
  N   N31       1.0  0.13283  0.31209  0.41614  1.0000
  H   H823      1.0  0.14701  0.47169  0.33367  1.0000
  C   C476      1.0  0.16413  0.40690  0.43133  1.0000
  H   H824      1.0  0.18073  0.41573  0.41203  1.0000
  H   H825      1.0  0.16293  0.38014  0.45164  1.0000
  C   C477      1.0  0.15866  0.37588  0.44449  1.0000
  N   N32       1.0  0.15785  0.39955  0.42329  1.0000
  C   C478      1.0  0.17875  0.43435  0.33397  1.0000
  C   C479      1.0  0.23552  0.31772  0.23148  1.0000
  H   H826      1.0  0.18191  0.45242  0.30830  1.0000
  H   H827      1.0  0.15175  0.41992  0.40738  1.0000
  H   H828      1.0  0.20062  0.41883  0.33585  1.0000
  C   C480      1.0  0.04472  0.32908  0.20744  1.0000
  H   H829      1.0  0.06881  0.31014  0.13097  1.0000
  H   H830      1.0  0.17048  0.43531  0.32747  1.0000
  H   H831      1.0  0.15107  0.36872  0.45201  1.0000
  C   C481      1.0  0.15859  0.30630  0.30557  1.0000
  C   C482      1.0  0.12750  0.30623  0.43246  1.0000
  H   H832      1.0  0.14874  0.29606  0.00034  1.0000
  H   H833      1.0  0.21161  0.26972  0.99930  1.0000
  C   C483      1.0  0.17901  0.43780  0.22164  1.0000
  C   C484      1.0  0.99905  0.28047  0.26253  1.0000
  H   H834      1.0  0.15006  0.25691  0.99085  1.0000
  H   H835      1.0  0.15451  0.25604  0.39918  1.0000
  C   C485      1.0  0.14580  0.26906  0.98770  1.0000
  H   H836      1.0  0.00152  0.23694  0.37803  1.0000
  H   H837      1.0  0.23452  0.29286  0.98740  1.0000
  H   H838      1.0  0.22904  0.41814  0.16246  1.0000
  C   C486      1.0  0.02138  0.31067  0.35243  1.0000
  H   H839      1.0  0.01824  0.30764  0.34365  1.0000
  N   N33       1.0  0.23061  0.28198  0.01059  1.0000
  H   H840      1.0  0.22732  0.30613  0.02321  1.0000
  H   H841      1.0  0.11556  0.29017  0.43104  1.0000
  C   C487      1.0  0.02217  0.25929  0.37395  1.0000
  S   S125      1.0  0.24387  0.34577  0.16923  1.0000
  C   C488      1.0  0.23218  0.44819  0.22036  1.0000
  H   H842      1.0  0.11370  0.33982  0.42240  1.0000
  S   S126      1.0  0.03518  0.30863  0.15803  1.0000
  H   H843      1.0  0.09807  0.28878  0.01615  1.0000
  N   N34       1.0  0.12848  0.29090  0.99893  1.0000
  H   H844      1.0  0.23151  0.27210  0.03349  1.0000
  C   C489      1.0  0.09485  0.24294  0.36802  1.0000
  H   H845      1.0  0.03506  0.33997  0.34878  1.0000
  N   N35       1.0  0.02853  0.24288  0.37812  1.0000
  H   H846      1.0  0.23050  0.29537  0.04085  1.0000
  H   H847      1.0  0.01844  0.36027  0.35575  1.0000
  H   H848      1.0  0.12660  0.32151  0.98455  1.0000
  H   H849      1.0  0.21388  0.29583  0.03584  1.0000
  H   H850      1.0  0.09354  0.24622  0.26521  1.0000
  H   H851      1.0  0.00220  0.26075  0.36611  1.0000
  C   C490      1.0  0.23413  0.29499  0.99826  1.0000
  H   H852      1.0  0.23977  0.35038  0.19759  1.0000
  C   C491      1.0  0.01351  0.33606  0.32768  1.0000
  C   C492      1.0  0.23526  0.36323  0.23170  1.0000
  S   S127      1.0  0.01125  0.26341  0.30174  1.0000
  Fe  Fe58      1.0  0.13786  0.25889  0.46949  1.0000
  S   S128      1.0  0.23281  0.38896  0.15781  1.0000
  H   H853      1.0  0.20741  0.29340  0.01656  1.0000
  H   H854      1.0  0.00624  0.36220  0.33447  1.0000
  H   H855      1.0  0.13099  0.31991  0.00220  1.0000
  H   H856      1.0  0.24179  0.34553  0.01798  1.0000
  H   H857      1.0  0.11127  0.30614  0.98820  1.0000
  C   C493      1.0  0.12631  0.24249  0.44824  1.0000
  C   C494      1.0  0.11887  0.29510  0.98775  1.0000
  C   C495      1.0  0.13860  0.23991  0.37736  1.0000
  C   C496      1.0  0.10911  0.28430  0.98873  1.0000
  H   H858      1.0  0.00187  0.27246  0.27224  1.0000
  C   C497      1.0  0.23856  0.41631  0.15345  1.0000
  H   H859      1.0  0.23628  0.26727  0.99556  1.0000
  Fe  Fe59      1.0  0.18753  0.47743  0.24612  1.0000
  H   H860      1.0  0.24095  0.40267  0.18407  1.0000
  Fe  Fe60      1.0  0.17990  0.30880  0.97822  1.0000
  H   H861      1.0  0.00437  0.35049  0.36809  1.0000
  C   C498      1.0  0.24433  0.37449  0.23083  1.0000
  S   S129      1.0  0.99912  0.27967  0.22100  1.0000
  H   H862      1.0  0.24379  0.31667  0.04257  1.0000
  C   C499      1.0  0.02192  0.23714  0.39419  1.0000
  C   C500      1.0  0.12783  0.47992  0.24155  1.0000
  H   H863      1.0  0.14961  0.23839  0.44812  1.0000
  H   H864      1.0  0.14099  0.23437  0.36804  1.0000
  C   C501      1.0  0.14143  0.23610  0.44394  1.0000
  C   C502      1.0  0.11255  0.48013  0.24601  1.0000
  H   H865      1.0  0.00970  0.23821  0.39637  1.0000
  S   S130      1.0  0.99533  0.25424  0.33725  1.0000
  H   H866      1.0  0.11273  0.27981  0.97856  1.0000
  H   H867      1.0  0.22838  0.48314  0.17268  1.0000
  Fe  Fe61      1.0  0.16517  0.48343  0.27404  1.0000
  C   C503      1.0  0.21921  0.48340  0.16762  1.0000
  H   H868      1.0  0.18507  0.29184  0.61719  1.0000
  H   H869      1.0  0.13923  0.27481  0.56407  1.0000
  C   C504      1.0  0.11719  0.25875  0.69910  1.0000
  S   S131      1.0  0.16883  0.26521  0.48479  1.0000
  H   H870      1.0  0.07046  0.29066  0.69046  1.0000
  H   H871      1.0  0.20753  0.28393  0.90137  1.0000
  H   H872      1.0  0.19409  0.38478  0.81401  1.0000
  S   S132      1.0  0.12248  0.30236  0.84761  1.0000
  Fe  Fe62      1.0  0.18002  0.34255  0.65613  1.0000
  C   C505      1.0  0.13182  0.32726  0.71015  1.0000
  H   H873      1.0  0.02527  0.32658  0.68530  1.0000
  H   H874      1.0  0.02806  0.24313  0.80375  1.0000
  H   H875      1.0  0.20307  0.43988  0.61766  1.0000
  C   C506      1.0  0.07124  0.29468  0.87342  1.0000
  C   C507      1.0  0.04645  0.29319  0.87245  1.0000
  N   N36       1.0  0.12310  0.24261  0.67962  1.0000
  C   C508      1.0  0.12638  0.35276  0.73715  1.0000
  S   S133      1.0  0.18847  0.48105  0.65919  1.0000
  H   H876      1.0  0.14313  0.32460  0.56665  1.0000
  N   N37       1.0  0.22924  0.35370  0.93917  1.0000
  C   C509      1.0  0.99941  0.35458  0.81502  1.0000
  H   H877      1.0  0.18510  0.26052  0.85886  1.0000
  H   H878      1.0  0.03515  0.26485  0.69807  1.0000
  S   S134      1.0  0.18241  0.28555  0.97643  1.0000
  H   H879      1.0  0.11147  0.25251  0.65246  1.0000
  C   C510      1.0  0.18792  0.30196  0.90294  1.0000
  S   S135      1.0  0.14063  0.24877  0.49269  1.0000
  H   H880      1.0  0.06940  0.30262  0.84053  1.0000
  S   S136      1.0  0.16408  0.35384  0.69325  1.0000
  H   H881      1.0  0.12060  0.35734  0.72782  1.0000
  S   S137      1.0  0.15875  0.35986  0.65998  1.0000
  H   H882      1.0  0.12768  0.23883  0.88413  1.0000
  Fe  Fe63      1.0  0.17116  0.36847  0.67135  1.0000
  S   S138      1.0  0.16418  0.39167  0.67559  1.0000
  Fe  Fe64      1.0  0.15339  0.34418  0.68166  1.0000
  S   S139      1.0  0.13097  0.33883  0.69271  1.0000
  S   S140      1.0  0.14320  0.27863  0.60094  1.0000
  H   H883      1.0  0.13436  0.30986  0.80771  1.0000
  H   H884      1.0  0.01052  0.38352  0.79706  1.0000
  S   S141      1.0  0.16702  0.28409  0.55897  1.0000
  S   S142      1.0  0.12231  0.30239  0.88197  1.0000
  Fe  Fe65      1.0  0.13730  0.30668  0.85952  1.0000
  S   S143      1.0  0.15117  0.32378  0.85229  1.0000
  S   S144      1.0  0.08356  0.30564  0.87253  1.0000
  C   C511      1.0  0.16694  0.24014  0.54104  1.0000
  H   H885      1.0  0.17992  0.32672  0.76145  1.0000
  S   S145      1.0  0.15098  0.28368  0.86193  1.0000
  C   C512      1.0  0.00102  0.24587  0.68549  1.0000
  S   S146      1.0  0.20913  0.47070  0.79004  1.0000
  S   S147      1.0  0.15160  0.29208  0.95233  1.0000
  H   H886      1.0  0.14271  0.48216  0.72120  1.0000
  S   S148      1.0  0.16823  0.31872  0.95943  1.0000
  Fe  Fe66      1.0  0.14395  0.27064  0.49327  1.0000
  H   H887      1.0  0.17054  0.29039  0.89194  1.0000
  C   C513      1.0  0.02478  0.27936  0.71394  1.0000
  H   H888      1.0  0.15490  0.32696  0.70841  1.0000
  H   H889      1.0  0.16916  0.30317  0.57863  1.0000
  C   C514      1.0  0.14978  0.27362  0.91423  1.0000
  H   H890      1.0  0.16269  0.26645  0.78150  1.0000
  C   C515      1.0  0.20226  0.39882  0.69494  1.0000
  C   C516      1.0  0.15175  0.28566  0.93690  1.0000
  C   C517      1.0  0.16352  0.27470  0.93163  1.0000
  C   C518      1.0  0.16242  0.26855  0.92048  1.0000
  H   H891      1.0  0.12852  0.28897  0.91438  1.0000
  H   H892      1.0  0.20130  0.32464  0.86972  1.0000
  H   H893      1.0  0.17314  0.27050  0.93660  1.0000
  H   H894      1.0  0.17128  0.25967  0.91684  1.0000
  C   C519      1.0  0.17112  0.33962  0.81030  1.0000
  C   C520      1.0  0.16833  0.33395  0.82558  1.0000
  C   C521      1.0  0.15456  0.33038  0.83308  1.0000
  H   H895      1.0  0.18190  0.34207  0.80457  1.0000
  H   H896      1.0  0.17692  0.33217  0.83156  1.0000
  C   C522      1.0  0.15755  0.28152  0.54693  1.0000
  C   C523      1.0  0.16361  0.28428  0.53165  1.0000
  C   C524      1.0  0.15620  0.28245  0.52181  1.0000
  C   C525      1.0  0.14242  0.27831  0.52717  1.0000
  C   C526      1.0  0.02458  0.30426  0.69822  1.0000
  C   C527      1.0  0.14402  0.27691  0.55233  1.0000
  H   H897      1.0  0.17405  0.28791  0.52741  1.0000
  H   H898      1.0  0.16086  0.28475  0.51005  1.0000
  Fe  Fe67      1.0  0.01661  0.24287  0.74476  1.0000
  H   H899      1.0  0.99521  0.26066  0.90196  1.0000
  C   C528      1.0  0.11933  0.32175  0.71888  1.0000
  H   H900      1.0  0.10905  0.32499  0.71501  1.0000
  C   C529      1.0  0.17983  0.31959  0.63499  1.0000
  C   C530      1.0  0.16564  0.31861  0.64383  1.0000
  C   C531      1.0  0.15839  0.30819  0.64289  1.0000
  C   C532      1.0  0.16528  0.29859  0.63321  1.0000
  C   C533      1.0  0.21262  0.40544  0.72808  1.0000
  C   C534      1.0  0.18678  0.30993  0.62532  1.0000
  H   H901      1.0  0.16010  0.32612  0.65116  1.0000
  H   H902      1.0  0.14726  0.30778  0.64951  1.0000
  H   H903      1.0  0.06064  0.30091  0.70423  1.0000
  C   C535      1.0  0.16755  0.30015  0.88316  1.0000
  C   C536      1.0  0.00127  0.26777  0.81019  1.0000
  H   H904      1.0  0.18212  0.30510  0.80881  1.0000
  H   H905      1.0  0.01621  0.26446  0.70691  1.0000
  C   C537      1.0  0.20367  0.46233  0.61731  1.0000
  Fe  Fe68      1.0  0.11557  0.25211  0.75101  1.0000
  H   H906      1.0  0.10120  0.24471  0.67599  1.0000
  H   H907      1.0  0.12882  0.25588  0.64109  1.0000
  H   H908      1.0  0.21379  0.46697  0.63815  1.0000
  C   C538      1.0  0.16990  0.41811  0.67451  1.0000
  S   S149      1.0  0.01579  0.29204  0.84437  1.0000
  H   H909      1.0  0.17429  0.43890  0.67440  1.0000
  H   H910      1.0  0.15906  0.41994  0.68192  1.0000
  H   H911      1.0  0.20738  0.24355  0.50930  1.0000
  C   C539      1.0  0.23593  0.36660  0.93774  1.0000
  H   H912      1.0  0.01712  0.27628  0.89968  1.0000
  C   C540      1.0  0.17583  0.24225  0.85899  1.0000
  C   C541      1.0  0.03337  0.29657  0.72211  1.0000
  C   C542      1.0  0.99723  0.26488  0.78748  1.0000
  C   C543      1.0  0.01573  0.27635  0.91140  1.0000
  H   H913      1.0  0.04729  0.24524  0.81470  1.0000
  H   H914      1.0  0.07053  0.24587  0.73440  1.0000
  C   C544      1.0  0.99889  0.39018  0.79878  1.0000
  H   H915      1.0  0.19181  0.31390  0.57271  1.0000
  C   C545      1.0  0.15401  0.34800  0.56760  1.0000
  S   S150      1.0  0.00774  0.26011  0.86350  1.0000
  H   H916      1.0  0.17550  0.28935  0.80956  1.0000
  H   H917      1.0  0.13292  0.32969  0.83101  1.0000
  H   H918      1.0  0.17038  0.25700  0.87459  1.0000
  C   C546      1.0  0.00369  0.26823  0.92183  1.0000
  H   H919      1.0  0.12858  0.31735  0.58046  1.0000
  C   C547      1.0  0.20787  0.42076  0.69778  1.0000
  Fe  Fe69      1.0  0.10836  0.29599  0.87032  1.0000
  C   C548      1.0  0.14075  0.31705  0.57757  1.0000
  H   H920      1.0  0.01237  0.30470  0.70190  1.0000
  C   C549      1.0  0.23891  0.29586  0.94878  1.0000
  H   H921      1.0  0.15093  0.34811  0.55730  1.0000
  C   C550      1.0  0.05653  0.30159  0.87196  1.0000
  H   H922      1.0  0.15564  0.34634  0.61128  1.0000
  H   H923      1.0  0.05297  0.31350  0.87037  1.0000
  H   H924      1.0  0.03518  0.29862  0.87122  1.0000
  C   C551      1.0  0.22926  0.34447  0.96721  1.0000
  H   H925      1.0  0.17048  0.32246  0.87408  1.0000
  S   S151      1.0  0.10190  0.24755  0.80752  1.0000
  S   S152      1.0  0.14544  0.26624  0.83413  1.0000
  S   S153      1.0  0.19490  0.32359  0.70627  1.0000
  H   H926      1.0  0.22958  0.38962  0.92582  1.0000
  S   S154      1.0  0.09857  0.28089  0.77572  1.0000
  H   H927      1.0  0.19403  0.28775  0.68337  1.0000
  H   H928      1.0  0.18056  0.29597  0.67230  1.0000
  S   S155      1.0  0.22593  0.27257  0.96425  1.0000
  C   C552      1.0  0.13064  0.24398  0.66344  1.0000
  H   H929      1.0  0.13026  0.31348  0.67772  1.0000
  N   N38       1.0  0.14409  0.37092  0.72963  1.0000
  C   C553      1.0  0.13654  0.37973  0.71707  1.0000
  C   C554      1.0  0.14249  0.35514  0.73264  1.0000
  C   C555      1.0  0.16041  0.37168  0.72477  1.0000
  C   C556      1.0  0.13655  0.37785  0.74277  1.0000
  C   C557      1.0  0.13849  0.39586  0.71086  1.0000
  C   C558      1.0  0.17158  0.35886  0.73221  1.0000
  H   H930      1.0  0.14060  0.37416  0.70759  1.0000
  H   H931      1.0  0.12427  0.38044  0.72040  1.0000
  H   H932      1.0  0.14823  0.34775  0.74137  1.0000
  H   H933      1.0  0.14816  0.35041  0.72273  1.0000
  H   H934      1.0  0.16455  0.37202  0.71271  1.0000
  H   H935      1.0  0.16200  0.38211  0.72631  1.0000
  H   H936      1.0  0.13837  0.38926  0.74033  1.0000
  H   H937      1.0  0.12417  0.37963  0.74505  1.0000
  H   H938      1.0  0.15038  0.39660  0.70674  1.0000
  H   H939      1.0  0.13320  0.40071  0.70119  1.0000
  H   H940      1.0  0.13286  0.40290  0.71900  1.0000
  H   H941      1.0  0.16840  0.35646  0.74440  1.0000
  H   H942      1.0  0.18267  0.36175  0.72903  1.0000
  H   H943      1.0  0.17315  0.34871  0.72818  1.0000
  H   H944      1.0  0.15931  0.35758  0.56502  1.0000
  C   C559      1.0  0.18366  0.28646  0.68125  1.0000
  H   H945      1.0  0.00116  0.35781  0.79172  1.0000
  C   C560      1.0  0.19957  0.36263  0.83742  1.0000
  H   H946      1.0  0.17009  0.25027  0.85043  1.0000
  C   C561      1.0  0.18779  0.38305  0.85126  1.0000
  H   H947      1.0  0.01807  0.23711  0.78660  1.0000
  C   C562      1.0  0.18575  0.35607  0.84031  1.0000
  H   H948      1.0  0.04240  0.26674  0.79422  1.0000
  C   C563      1.0  0.19086  0.37170  0.86555  1.0000
  H   H949      1.0  0.03614  0.25116  0.78521  1.0000
  H   H950      1.0  0.17511  0.24197  0.51123  1.0000
  H   H951      1.0  0.20603  0.35603  0.84591  1.0000
  H   H952      1.0  0.17196  0.32634  0.74700  1.0000
  Fe  Fe70      1.0  0.16235  0.27167  0.58276  1.0000
  Fe  Fe71      1.0  0.22429  0.45184  0.80192  1.0000
  C   C564      1.0  0.15725  0.27305  0.68704  1.0000
  H   H953      1.0  0.17553  0.38499  0.85218  1.0000
  H   H954      1.0  0.13632  0.27871  0.70964  1.0000
  C   C565      1.0  0.05100  0.27781  0.87460  1.0000
  H   H955      1.0  0.15221  0.24595  0.52530  1.0000
  H   H956      1.0  0.18875  0.34390  0.84451  1.0000
  H   H957      1.0  0.17618  0.36075  0.84847  1.0000
  H   H958      1.0  0.18214  0.35786  0.82985  1.0000
  C   C566      1.0  0.17639  0.31213  0.88065  1.0000
  H   H959      1.0  0.17185  0.47055  0.72240  1.0000
  H   H960      1.0  0.18656  0.27607  0.67727  1.0000
  H   H961      1.0  0.18622  0.36188  0.86731  1.0000
  H   H962      1.0  0.18510  0.37688  0.87515  1.0000
  H   H963      1.0  0.20281  0.36800  0.86590  1.0000
  N   N39       1.0  0.07476  0.29001  0.82366  1.0000
  C   C567      1.0  0.09101  0.29092  0.81897  1.0000
  C   C568      1.0  0.06984  0.28990  0.81017  1.0000
  C   C569      1.0  0.07358  0.27571  0.83508  1.0000
  C   C570      1.0  0.06609  0.30320  0.83019  1.0000
  C   C571      1.0  0.09850  0.29018  0.83150  1.0000
  C   C572      1.0  0.07047  0.30379  0.79749  1.0000
  C   C573      1.0  0.14171  0.37005  0.75732  1.0000
  H   H964      1.0  0.09775  0.28190  0.81317  1.0000
  H   H965      1.0  0.09256  0.30144  0.81092  1.0000
  N   N40       1.0  0.16064  0.32342  0.58684  1.0000
  H   H966      1.0  0.07671  0.28013  0.80554  1.0000
  H   H967      1.0  0.08406  0.26715  0.83323  1.0000
  H   H968      1.0  0.07232  0.27732  0.84633  1.0000
  H   H969      1.0  0.06876  0.31361  0.82258  1.0000
  H   H970      1.0  0.11066  0.28946  0.82692  1.0000
  H   H971      1.0  0.09414  0.30030  0.83604  1.0000
  H   H972      1.0  0.09733  0.28035  0.84065  1.0000
  C   C574      1.0  0.24298  0.44559  0.85595  1.0000
  H   H973      1.0  0.06606  0.30242  0.78856  1.0000
  H   H974      1.0  0.06336  0.31396  0.80105  1.0000
  H   H975      1.0  0.15182  0.37344  0.75758  1.0000
  C   C575      1.0  0.14364  0.33227  0.82522  1.0000
  H   H976      1.0  0.15876  0.26183  0.72106  1.0000
  C   C576      1.0  0.21006  0.46257  0.72836  1.0000
  C   C577      1.0  0.17958  0.29936  0.62452  1.0000
  C   C578      1.0  0.16458  0.25716  0.69396  1.0000
  H   H977      1.0  0.18585  0.33143  0.90039  1.0000
  H   H978      1.0  0.03522  0.28116  0.76372  1.0000
  H   H979      1.0  0.99921  0.40205  0.79412  1.0000
  H   H980      1.0  0.08203  0.30527  0.79242  1.0000
  H   H981      1.0  0.02984  0.27052  0.72249  1.0000
  H   H982      1.0  0.09203  0.24329  0.70119  1.0000
  H   H983      1.0  0.16820  0.32735  0.56309  1.0000
  C   C579      1.0  0.07576  0.27928  0.87559  1.0000
  Fe  Fe72      1.0  0.08858  0.27563  0.75998  1.0000
  H   H984      1.0  0.23305  0.44065  0.86107  1.0000
  H   H985      1.0  0.19660  0.46608  0.60901  1.0000
  H   H986      1.0  0.17720  0.38285  0.82720  1.0000
  C   C580      1.0  0.00329  0.23725  0.90379  1.0000
  H   H987      1.0  0.02782  0.30197  0.68695  1.0000
  H   H988      1.0  0.17389  0.46937  0.85741  1.0000
  H   H989      1.0  0.18099  0.29450  0.91119  1.0000
  N   N41       1.0  0.00523  0.25245  0.92102  1.0000
  H   H990      1.0  0.14305  0.24205  0.54422  1.0000
  S   S156      1.0  0.09439  0.25108  0.76840  1.0000
  H   H991      1.0  0.21410  0.39312  0.69140  1.0000
  Fe  Fe73      1.0  0.17239  0.29561  0.95641  1.0000
  Fe  Fe74      1.0  0.10602  0.25638  0.78285  1.0000
  C   C581      1.0  0.23594  0.37874  0.92328  1.0000
  H   H992      1.0  0.00381  0.26889  0.93309  1.0000
  H   H993      1.0  0.16347  0.30463  0.75920  1.0000
  C   C582      1.0  0.19281  0.25194  0.54065  1.0000
  H   H994      1.0  0.19904  0.40610  0.68472  1.0000
  H   H995      1.0  0.11059  0.30748  0.73916  1.0000
  H   H996      1.0  0.15889  0.32114  0.61008  1.0000
  C   C583      1.0  0.20051  0.32764  0.88020  1.0000
  S   S157      1.0  0.22438  0.34547  0.80458  1.0000
  S   S158      1.0  0.17351  0.32629  0.67706  1.0000
  H   H997      1.0  0.17424  0.32872  0.59850  1.0000
  H   H998      1.0  0.18294  0.41694  0.73378  1.0000
  S   S159      1.0  0.13218  0.27702  0.51514  1.0000
  H   H999      1.0  0.19361  0.29553  0.58353  1.0000
  H   H1000     1.0  0.23118  0.37682  0.91499  1.0000
  H   H1001     1.0  0.17063  0.29565  0.70019  1.0000
  H   H1002     1.0  0.01379  0.29097  0.73917  1.0000
  C   C584      1.0  0.16534  0.33345  0.57212  1.0000
  H   H1003     1.0  0.21928  0.44553  0.60533  1.0000
  C   C585      1.0  0.16005  0.34200  0.80249  1.0000
  H   H1004     1.0  0.16655  0.28004  0.79659  1.0000
  C   C586      1.0  0.13364  0.30207  0.68420  1.0000
  S   S160      1.0  0.15911  0.24965  0.62295  1.0000
  H   H1005     1.0  0.12594  0.29656  0.97633  1.0000
  H   H1006     1.0  0.05812  0.26695  0.80044  1.0000
  Fe  Fe75      1.0  0.16515  0.24384  0.48295  1.0000
  H   H1007     1.0  0.21867  0.39057  0.71357  1.0000
  H   H1008     1.0  0.18479  0.43322  0.71888  1.0000
  H   H1009     1.0  0.19575  0.46193  0.62831  1.0000
  H   H1010     1.0  0.99753  0.48300  0.77098  1.0000
  C   C587      1.0  0.18320  0.24384  0.51646  1.0000
  H   H1011     1.0  0.02656  0.27202  0.91483  1.0000
  H   H1012     1.0  0.07983  0.26382  0.74147  1.0000
  C   C588      1.0  0.23683  0.35383  0.80807  1.0000
  H   H1013     1.0  0.19213  0.37093  0.93622  1.0000
  S   S161      1.0  0.22189  0.42816  0.80924  1.0000
  C   C589      1.0  0.21507  0.46550  0.75059  1.0000
  C   C590      1.0  0.22378  0.48082  0.72686  1.0000
  H   H1014     1.0  0.13324  0.29582  0.79977  1.0000
  H   H1015     1.0  0.15628  0.25169  0.70278  1.0000
  H   H1016     1.0  0.22414  0.40056  0.80230  1.0000
  H   H1017     1.0  0.13245  0.29444  0.67812  1.0000
  H   H1018     1.0  0.12749  0.26067  0.79407  1.0000
  C   C591      1.0  0.02617  0.32019  0.69665  1.0000
  C   C592      1.0  0.22453  0.41673  0.69025  1.0000
  H   H1019     1.0  0.19276  0.47481  0.83406  1.0000
  H   H1020     1.0  0.05570  0.30598  0.68625  1.0000
  H   H1021     1.0  0.17042  0.31529  0.92489  1.0000
  H   H1022     1.0  0.01228  0.28818  0.91209  1.0000
  C   C593      1.0  0.18481  0.32859  0.89039  1.0000
  H   H1023     1.0  0.17398  0.40688  0.83334  1.0000
  H   H1024     1.0  0.20335  0.33865  0.87718  1.0000
  H   H1025     1.0  0.20789  0.41741  0.72707  1.0000
  C   C594      1.0  0.21113  0.38382  0.83161  1.0000
  H   H1026     1.0  0.22943  0.29994  0.94366  1.0000
  C   C595      1.0  0.23284  0.47660  0.62721  1.0000
  H   H1027     1.0  0.18860  0.24494  0.87359  1.0000
  C   C596      1.0  0.20438  0.36979  0.93193  1.0000
  S   S162      1.0  0.20322  0.45273  0.71990  1.0000
  C   C597      1.0  0.20048  0.29185  0.89391  1.0000
  H   H1028     1.0  0.06651  0.24086  0.80574  1.0000
  H   H1029     1.0  0.22479  0.36520  0.84500  1.0000
  C   C598      1.0  0.99950  0.26223  0.67709  1.0000
  H   H1030     1.0  0.20838  0.36192  0.95352  1.0000
  H   H1031     1.0  0.21623  0.31107  0.92473  1.0000
  C   C599      1.0  0.03626  0.24055  0.79354  1.0000
  H   H1032     1.0  0.23966  0.30461  0.90679  1.0000
  H   H1033     1.0  0.24034  0.33698  0.82757  1.0000
  H   H1034     1.0  0.16504  0.25210  0.54071  1.0000
  H   H1035     1.0  0.00110  0.26508  0.77583  1.0000
  H   H1036     1.0  0.20187  0.42778  0.68898  1.0000
  H   H1037     1.0  0.11934  0.26692  0.65422  1.0000
  H   H1038     1.0  0.02418  0.48160  0.77606  1.0000
  H   H1039     1.0  0.20687  0.36008  0.82685  1.0000
  H   H1040     1.0  0.04850  0.28238  0.69091  1.0000
  C   C600      1.0  0.14075  0.48333  0.73280  1.0000
  H   H1041     1.0  0.09608  0.23414  0.74678  1.0000
  H   H1042     1.0  0.17608  0.40834  0.81408  1.0000
  H   H1043     1.0  0.18966  0.39377  0.85179  1.0000
  H   H1044     1.0  0.20890  0.40014  0.73987  1.0000
  H   H1045     1.0  0.00515  0.36300  0.81516  1.0000
  S   S163      1.0  0.20682  0.34432  0.77316  1.0000
  C   C601      1.0  0.13356  0.30753  0.73742  1.0000
  H   H1046     1.0  0.14173  0.24683  0.66119  1.0000
  C   C602      1.0  0.22219  0.37744  0.84188  1.0000
  H   H1047     1.0  0.06158  0.24289  0.77403  1.0000
  H   H1048     1.0  0.18787  0.43870  0.77602  1.0000
  C   C603      1.0  0.21617  0.35012  0.72371  1.0000
  C   C604      1.0  0.21062  0.33365  0.91304  1.0000
  S   S164      1.0  0.00797  0.23707  0.72841  1.0000
  Fe  Fe76      1.0  0.17452  0.48206  0.68187  1.0000
  S   S165      1.0  0.15519  0.28635  0.63203  1.0000
  C   C605      1.0  0.22753  0.41867  0.74923  1.0000
  H   H1049     1.0  0.22612  0.40709  0.75363  1.0000
  H   H1050     1.0  0.17876  0.41971  0.70248  1.0000
  C   C606      1.0  0.17850  0.42888  0.67025  1.0000
  H   H1051     1.0  0.23373  0.46308  0.60080  1.0000
  H   H1052     1.0  0.14879  0.28328  0.77946  1.0000
  S   S166      1.0  0.12684  0.23730  0.73479  1.0000
  H   H1053     1.0  0.23025  0.33125  0.95233  1.0000
  H   H1054     1.0  0.23473  0.40483  0.84022  1.0000
  Fe  Fe77      1.0  0.16071  0.27329  0.61424  1.0000
  C   C607      1.0  0.24043  0.36700  0.79892  1.0000
  H   H1055     1.0  0.06399  0.26276  0.82613  1.0000
  H   H1056     1.0  0.15995  0.27829  0.72588  1.0000
  H   H1057     1.0  0.20676  0.36696  0.92105  1.0000
  N   N42       1.0  0.19644  0.37899  0.83675  1.0000
  H   H1058     1.0  0.22924  0.35483  0.91628  1.0000
  H   H1059     1.0  0.04048  0.28749  0.72875  1.0000
  H   H1060     1.0  0.20273  0.25185  0.54456  1.0000
  H   H1061     1.0  0.14646  0.30557  0.57657  1.0000
  H   H1062     1.0  0.12809  0.25508  0.70245  1.0000
  H   H1063     1.0  0.13644  0.33165  0.59209  1.0000
  H   H1064     1.0  0.16767  0.30053  0.59788  1.0000
  C   C608      1.0  0.00478  0.25212  0.90564  1.0000
  C   C609      1.0  0.12022  0.31182  0.73249  1.0000
  H   H1065     1.0  0.00482  0.24940  0.64670  1.0000
  H   H1066     1.0  0.04426  0.30672  0.82460  1.0000
  C   C610      1.0  0.18769  0.30719  0.58372  1.0000
  H   H1067     1.0  0.16987  0.29635  0.87276  1.0000
  S   S167      1.0  0.01372  0.26981  0.81950  1.0000
  C   C611      1.0  0.20817  0.39791  0.71826  1.0000
  C   C612      1.0  0.04852  0.28602  0.70085  1.0000
  H   H1068     1.0  0.14341  0.27127  0.73279  1.0000
  H   H1069     1.0  0.21430  0.46204  0.76236  1.0000
  C   C613      1.0  0.21947  0.31933  0.91515  1.0000
  H   H1070     1.0  0.17431  0.31851  0.78602  1.0000
  N   N43       1.0  0.16621  0.30171  0.78150  1.0000
  H   H1071     1.0  0.18803  0.30210  0.78370  1.0000
  C   C614      1.0  0.17999  0.42326  0.72310  1.0000
  H   H1072     1.0  0.18143  0.28041  0.78109  1.0000
  H   H1073     1.0  0.21778  0.44037  0.62514  1.0000
  H   H1074     1.0  0.16607  0.23442  0.55290  1.0000
  H   H1075     1.0  0.06914  0.25894  0.87811  1.0000
  H   H1076     1.0  0.16546  0.28029  0.76504  1.0000
  C   C615      1.0  0.14994  0.29969  0.68550  1.0000
  H   H1077     1.0  0.02004  0.28004  0.69257  1.0000
  Fe  Fe78      1.0  0.20431  0.28868  0.96103  1.0000
  H   H1078     1.0  0.15666  0.30150  0.67401  1.0000
  H   H1079     1.0  0.13693  0.47323  0.73969  1.0000
  C   C616      1.0  0.21518  0.34441  0.90071  1.0000
  H   H1080     1.0  0.05388  0.27600  0.70824  1.0000
  H   H1081     1.0  0.11973  0.35730  0.74692  1.0000
  H   H1082     1.0  0.15043  0.24753  0.88039  1.0000
  C   C617      1.0  0.12185  0.25554  0.65244  1.0000
  H   H1083     1.0  0.16282  0.27568  0.67511  1.0000
  H   H1084     1.0  0.01964  0.30641  0.74054  1.0000
  C   C618      1.0  0.18427  0.41342  0.71184  1.0000
  C   C619      1.0  0.18012  0.25160  0.86712  1.0000
  S   S168      1.0  0.20398  0.43941  0.65603  1.0000
  C   C620      1.0  0.04758  0.25339  0.74496  1.0000
  S   S169      1.0  0.18935  0.37051  0.79181  1.0000
  C   C621      1.0  0.06123  0.26790  0.83578  1.0000
  H   H1085     1.0  0.13776  0.33998  0.80393  1.0000
  H   H1086     1.0  0.21622  0.42600  0.75008  1.0000
  H   H1087     1.0  0.23245  0.34930  0.88145  1.0000
  C   C622      1.0  0.17601  0.30628  0.78849  1.0000
  H   H1088     1.0  0.20860  0.41182  0.64773  1.0000
  H   H1089     1.0  0.17992  0.25586  0.51646  1.0000
  C   C623      1.0  0.23428  0.34129  0.95155  1.0000
  N   N44       1.0  0.03280  0.29197  0.70862  1.0000
  H   H1090     1.0  0.16766  0.42730  0.72554  1.0000
  H   H1091     1.0  0.99869  0.24471  0.95218  1.0000
  H   H1092     1.0  0.19116  0.40984  0.82042  1.0000
  C   C624      1.0  0.13636  0.27557  0.54245  1.0000
  H   H1093     1.0  0.22866  0.45615  0.62740  1.0000
  C   C625      1.0  0.21627  0.35333  0.70863  1.0000
  S   S170      1.0  0.10886  0.27640  0.74147  1.0000
  S   S171      1.0  0.20232  0.31146  0.96400  1.0000
  N   N45       1.0  0.21361  0.47293  0.61487  1.0000
  C   C626      1.0  0.16231  0.45568  0.74117  1.0000
  C   C627      1.0  0.11420  0.25221  0.81516  1.0000
  H   H1094     1.0  0.17865  0.40406  0.71762  1.0000
  C   C628      1.0  0.23287  0.31573  0.90505  1.0000
  C   C629      1.0  0.01816  0.30090  0.73254  1.0000
  H   H1095     1.0  0.21715  0.38095  0.82077  1.0000
  H   H1096     1.0  0.20795  0.29793  0.88480  1.0000
  H   H1097     1.0  0.21854  0.47199  0.59193  1.0000
  S   S172      1.0  0.12299  0.24409  0.61794  1.0000
  H   H1098     1.0  0.22901  0.42695  0.68616  1.0000
  C   C630      1.0  0.11904  0.25785  0.68295  1.0000
  H   H1099     1.0  0.01477  0.25509  0.89738  1.0000
  C   C631      1.0  0.24041  0.28219  0.95874  1.0000
  C   C632      1.0  0.05500  0.24469  0.80369  1.0000
  H   H1100     1.0  0.20693  0.42835  0.70484  1.0000
  H   H1101     1.0  0.12775  0.26422  0.67638  1.0000
  Fe  Fe79      1.0  0.13522  0.27887  0.88372  1.0000
  H   H1102     1.0  0.19116  0.31012  0.59234  1.0000
  Fe  Fe80      1.0  0.19096  0.31878  0.94493  1.0000
  C   C633      1.0  0.02417  0.27191  0.70199  1.0000
  H   H1103     1.0  0.14242  0.31305  0.60023  1.0000
  H   H1104     1.0  0.14359  0.35020  0.57597  1.0000
  C   C634      1.0  0.13921  0.29084  0.93053  1.0000
  C   C635      1.0  0.16239  0.32876  0.59940  1.0000
  S   S173      1.0  0.22353  0.36102  0.73044  1.0000
  H   H1105     1.0  0.17586  0.33657  0.57169  1.0000
  C   C636      1.0  0.14481  0.32155  0.58984  1.0000
  C   C637      1.0  0.15380  0.34447  0.60113  1.0000
  H   H1106     1.0  0.14382  0.35787  0.75962  1.0000
  H   H1107     1.0  0.20665  0.38077  0.93067  1.0000
  H   H1108     1.0  0.04401  0.31540  0.83876  1.0000
  H   H1109     1.0  0.15533  0.30475  0.88600  1.0000
  C   C638      1.0  0.23431  0.34750  0.92545  1.0000
  C   C639      1.0  0.20951  0.34539  0.70323  1.0000
  C   C640      1.0  0.17067  0.30818  0.58701  1.0000
  H   H1110     1.0  0.14157  0.34611  0.60267  1.0000
  H   H1111     1.0  0.13265  0.37312  0.76675  1.0000
  H   H1112     1.0  0.19330  0.30581  0.90959  1.0000
  S   S174      1.0  0.18151  0.45772  0.69099  1.0000
  C   C641      1.0  0.17375  0.30149  0.80542  1.0000
  H   H1113     1.0  0.16389  0.33449  0.91631  1.0000
  H   H1114     1.0  0.18106  0.39165  0.70015  1.0000
  H   H1115     1.0  0.24042  0.41671  0.85669  1.0000
  H   H1116     1.0  0.12679  0.34068  0.74021  1.0000
  S   S175      1.0  0.11993  0.27187  0.87413  1.0000
  C   C642      1.0  0.22286  0.47646  0.74214  1.0000
  H   H1117     1.0  0.06062  0.25878  0.84580  1.0000
  C   C643      1.0  0.14511  0.32303  0.71517  1.0000
  S   S176      1.0  0.14814  0.26491  0.90112  1.0000
  C   C644      1.0  0.22186  0.46757  0.62727  1.0000
  C   C645      1.0  0.13834  0.28505  0.91905  1.0000
  C   C646      1.0  0.05920  0.29672  0.69527  1.0000
  Fe  Fe81      1.0  0.17640  0.24451  0.60292  1.0000
  C   C647      1.0  0.17525  0.40499  0.66929  1.0000
  H   H1118     1.0  0.19452  0.37965  0.71087  1.0000
  C   C648      1.0  0.14593  0.31332  0.72888  1.0000
  S   S177      1.0  0.22003  0.37440  0.76595  1.0000
  C   C649      1.0  0.23771  0.32657  0.89302  1.0000
  H   H1119     1.0  0.00794  0.34408  0.81452  1.0000
  S   S178      1.0  0.21605  0.46189  0.67562  1.0000
  H   H1120     1.0  0.20945  0.39601  0.82976  1.0000
  H   H1121     1.0  0.01659  0.32605  0.70403  1.0000
  H   H1122     1.0  0.14877  0.32051  0.78685  1.0000
  H   H1123     1.0  0.19688  0.37957  0.69183  1.0000
  N   N46       1.0  0.17835  0.31502  0.89448  1.0000
  Fe  Fe82      1.0  0.00465  0.27556  0.84189  1.0000
  H   H1124     1.0  0.23295  0.38068  0.83587  1.0000
  C   C650      1.0  0.12140  0.25451  0.83656  1.0000
  H   H1125     1.0  0.23557  0.37227  0.78940  1.0000
  C   C651      1.0  0.22432  0.47298  0.60003  1.0000
  C   C652      1.0  0.04903  0.30526  0.83426  1.0000
  H   H1126     1.0  0.12567  0.27245  0.54664  1.0000
  H   H1127     1.0  0.01296  0.24054  0.68243  1.0000
  H   H1128     1.0  0.16269  0.30712  0.81101  1.0000
  S   S179      1.0  0.12797  0.25492  0.76633  1.0000
  C   C653      1.0  0.24309  0.34716  0.82046  1.0000
  C   C654      1.0  0.21166  0.44621  0.61624  1.0000
  H   H1129     1.0  0.23223  0.35461  0.96766  1.0000
  N   N47       1.0  0.20072  0.40782  0.70603  1.0000
  H   H1130     1.0  0.15820  0.35302  0.59187  1.0000
  C   C655      1.0  0.18755  0.38696  0.82501  1.0000
  H   H1131     1.0  0.13002  0.29924  0.93462  1.0000
  Fe  Fe83      1.0  0.19959  0.46397  0.69703  1.0000
  H   H1132     1.0  0.18293  0.25553  0.54916  1.0000
  H   H1133     1.0  0.10848  0.26438  0.67951  1.0000
  H   H1134     1.0  0.20836  0.35552  0.89901  1.0000
  H   H1135     1.0  0.17643  0.27625  0.70374  1.0000
  C   C656      1.0  0.14636  0.33814  0.80992  1.0000
  C   C657      1.0  0.16693  0.47065  0.73430  1.0000
  H   H1136     1.0  0.00571  0.48171  0.81902  1.0000
  H   H1137     1.0  0.15632  0.30990  0.73257  1.0000
  S   S180      1.0  0.19431  0.33831  0.92616  1.0000
  C   C658      1.0  0.14995  0.30881  0.78643  1.0000
  Fe  Fe84      1.0  0.21270  0.35731  0.78593  1.0000
  C   C659      1.0  0.20861  0.45864  0.74371  1.0000
  H   H1138     1.0  0.10326  0.24465  0.83777  1.0000
  Fe  Fe85      1.0  0.01760  0.27730  0.86659  1.0000
  H   H1139     1.0  0.01630  0.27165  0.78895  1.0000
  H   H1140     1.0  0.04561  0.29596  0.84309  1.0000
  H   H1141     1.0  0.05812  0.28859  0.81295  1.0000
  C   C660      1.0  0.15347  0.23854  0.53617  1.0000
  S   S181      1.0  0.19459  0.29616  0.94077  1.0000
  Fe  Fe86      1.0  0.13488  0.27878  0.85218  1.0000
  C   C661      1.0  0.15264  0.27292  0.72292  1.0000
  H   H1142     1.0  0.08703  0.27386  0.87682  1.0000
  H   H1143     1.0  0.15621  0.45462  0.75280  1.0000
  H   H1144     1.0  0.14097  0.29382  0.71298  1.0000
  S   S182      1.0  0.18877  0.33309  0.63557  1.0000
  C   C662      1.0  0.13540  0.26279  0.81194  1.0000
  C   C663      1.0  0.16226  0.32305  0.91857  1.0000
  Fe  Fe87      1.0  0.18472  0.33721  0.68708  1.0000
  C   C664      1.0  0.21239  0.35775  0.94317  1.0000
  H   H1145     1.0  0.20103  0.39024  0.72566  1.0000
  H   H1146     1.0  0.23654  0.42914  0.83997  1.0000
  C   C665      1.0  0.20280  0.43424  0.79059  1.0000
  H   H1147     1.0  0.02591  0.26301  0.75675  1.0000
  H   H1148     1.0  0.15098  0.32290  0.92586  1.0000
  C   C666      1.0  0.19848  0.24105  0.50573  1.0000
  H   H1149     1.0  0.21833  0.38232  0.85177  1.0000
  C   C667      1.0  0.16099  0.27860  0.77715  1.0000
  C   C668      1.0  0.06559  0.27086  0.87639  1.0000
  H   H1150     1.0  0.15309  0.46888  0.76947  1.0000
  C   C669      1.0  0.18204  0.40391  0.82331  1.0000
  H   H1151     1.0  0.04998  0.27523  0.83649  1.0000
  H   H1152     1.0  0.01294  0.28317  0.71938  1.0000
  S   S183      1.0  0.16001  0.24814  0.58896  1.0000
  C   C670      1.0  0.22884  0.34092  0.89081  1.0000
  H   H1153     1.0  0.06124  0.26148  0.78356  1.0000
  C   C671      1.0  0.00587  0.26851  0.79495  1.0000
  S   S184      1.0  0.18993  0.41098  0.76935  1.0000
  H   H1154     1.0  0.20777  0.34772  0.94539  1.0000
  H   H1155     1.0  0.19781  0.31059  0.61853  1.0000
  C   C672      1.0  0.16925  0.28504  0.78464  1.0000
  H   H1156     1.0  0.11282  0.27046  0.70009  1.0000
  S   S185      1.0  0.03885  0.26691  0.87498  1.0000
  S   S186      1.0  0.13521  0.29423  0.75372  1.0000
  C   C673      1.0  0.14596  0.28298  0.70977  1.0000
  C   C674      1.0  0.19570  0.43033  0.78182  1.0000
  H   H1157     1.0  0.20011  0.44550  0.79176  1.0000
  C   C675      1.0  0.06278  0.25359  0.74076  1.0000
  C   C676      1.0  0.01919  0.24259  0.92581  1.0000
  S   S187      1.0  0.99900  0.26363  0.74647  1.0000
  H   H1158     1.0  0.19768  0.24855  0.49479  1.0000
  C   C677      1.0  0.18921  0.40276  0.65958  1.0000
  S   S188      1.0  0.06488  0.28618  0.75811  1.0000
  H   H1159     1.0  0.17423  0.25656  0.69843  1.0000
  C   C678      1.0  0.04289  0.27353  0.75723  1.0000
  H   H1160     1.0  0.14454  0.26753  0.80478  1.0000
  H   H1161     1.0  0.21255  0.48167  0.92677  1.0000
  H   H1162     1.0  0.13654  0.47333  0.76213  1.0000
  C   C679      1.0  0.15061  0.24026  0.87322  1.0000
  H   H1163     1.0  0.00978  0.30867  0.72649  1.0000
  C   C680      1.0  0.03762  0.26328  0.75329  1.0000
  C   C681      1.0  0.05812  0.27374  0.75294  1.0000
  Fe  Fe88      1.0  0.11956  0.27918  0.75817  1.0000
  S   S189      1.0  0.16334  0.34984  0.78349  1.0000
  C   C682      1.0  0.19862  0.41562  0.78066  1.0000
  C   C683      1.0  0.16298  0.31849  0.90425  1.0000
  H   H1164     1.0  0.21713  0.34503  0.97173  1.0000
  H   H1165     1.0  0.15978  0.33067  0.76371  1.0000
  C   C684      1.0  0.17157  0.28583  0.69576  1.0000
  H   H1166     1.0  0.11965  0.25291  0.84840  1.0000
  C   C685      1.0  0.06806  0.26371  0.74478  1.0000
  C   C686      1.0  0.21739  0.47389  0.71996  1.0000
  H   H1167     1.0  0.18728  0.30892  0.87312  1.0000
  Fe  Fe89      1.0  0.19737  0.45728  0.66899  1.0000
  N   N48       1.0  0.15637  0.28500  0.69467  1.0000
  S   S190      1.0  0.18846  0.37640  0.75688  1.0000
  H   H1168     1.0  0.14362  0.30938  0.77811  1.0000
  S   S191      1.0  0.18009  0.26778  0.59553  1.0000
  H   H1169     1.0  0.14588  0.27251  0.68676  1.0000
  H   H1170     1.0  0.20265  0.45012  0.75028  1.0000
  C   C687      1.0  0.21594  0.40879  0.79689  1.0000
  S   S192      1.0  0.19312  0.35239  0.66582  1.0000
  Fe  Fe90      1.0  0.18401  0.35895  0.77741  1.0000
  Fe  Fe91      1.0  0.19614  0.38655  0.77082  1.0000
  H   H1171     1.0  0.19340  0.39266  0.65551  1.0000
  C   C688      1.0  0.19308  0.38675  0.69997  1.0000
  C   C689      1.0  0.17053  0.32368  0.75919  1.0000
  H   H1172     1.0  0.18239  0.30099  0.76062  1.0000
  C   C690      1.0  0.20338  0.33367  0.71278  1.0000
  H   H1173     1.0  0.14650  0.24796  0.86353  1.0000
  C   C691      1.0  0.20869  0.40481  0.78828  1.0000
  H   H1174     1.0  0.16925  0.25064  0.68524  1.0000
  C   C692      1.0  0.19775  0.41364  0.65515  1.0000
  C   C693      1.0  0.17086  0.30701  0.76494  1.0000
  S   S193      1.0  0.22560  0.46448  0.81765  1.0000
  C   C694      1.0  0.19249  0.42663  0.66062  1.0000
  C   C695      1.0  0.13309  0.26094  0.82720  1.0000
  H   H1175     1.0  0.19593  0.28513  0.88936  1.0000
  H   H1176     1.0  0.15032  0.30895  0.69003  1.0000
  H   H1177     1.0  0.14813  0.29318  0.80889  1.0000
  H   H1178     1.0  0.12569  0.30130  0.69508  1.0000
  H   H1179     1.0  0.10927  0.25234  0.70713  1.0000
  H   H1180     1.0  0.21852  0.47701  0.70811  1.0000
  C   C696      1.0  0.20384  0.33005  0.72775  1.0000
  H   H1181     1.0  0.19934  0.32084  0.73508  1.0000
  H   H1182     1.0  0.03683  0.32110  0.69829  1.0000
  H   H1183     1.0  0.17638  0.47031  0.73910  1.0000
  H   H1184     1.0  0.19288  0.26022  0.53006  1.0000
  H   H1185     1.0  0.17717  0.33837  0.88503  1.0000
  C   C697      1.0  0.11214  0.24986  0.83054  1.0000
  Fe  Fe92      1.0  0.14292  0.25449  0.60853  1.0000
  C   C698      1.0  0.12581  0.25877  0.80590  1.0000
  Fe  Fe93      1.0  0.23009  0.47642  0.77486  1.0000
  C   C699      1.0  0.20990  0.33850  0.73329  1.0000
  H   H1186     1.0  0.21001  0.33583  0.74488  1.0000
  C   C700      1.0  0.21296  0.42350  0.79812  1.0000
  H   H1187     1.0  0.15533  0.32745  0.89802  1.0000
  C   C701      1.0  0.14126  0.30126  0.80149  1.0000
  H   H1188     1.0  0.23043  0.33708  0.92759  1.0000
  H   H1189     1.0  0.20934  0.34809  0.69163  1.0000
  C   C702      1.0  0.14478  0.47801  0.76435  1.0000
  H   H1190     1.0  0.20914  0.32002  0.88606  1.0000
  H   H1191     1.0  0.21106  0.39344  0.78740  1.0000
  Fe  Fe94      1.0  0.21185  0.36275  0.75370  1.0000
  H   H1192     1.0  0.15778  0.30871  0.90791  1.0000
  C   C703      1.0  0.05406  0.26081  0.79478  1.0000
  S   S194      1.0  0.04138  0.24086  0.73937  1.0000
  H   H1193     1.0  0.23012  0.37227  0.94703  1.0000
  H   H1194     1.0  0.15566  0.45357  0.73453  1.0000
  H   H1195     1.0  0.99915  0.24556  0.69748  1.0000
  H   H1196     1.0  0.03889  0.30598  0.71926  1.0000
  H   H1197     1.0  0.22497  0.40349  0.72597  1.0000
  H   H1198     1.0  0.01509  0.23742  0.65998  1.0000
  H   H1199     1.0  0.17259  0.44670  0.74100  1.0000
  H   H1200     1.0  0.00482  0.47530  0.79614  1.0000
  H   H1201     1.0  0.23703  0.47213  0.63757  1.0000
  H   H1202     1.0  0.23258  0.41676  0.76976  1.0000
  H   H1203     1.0  0.23509  0.33510  0.97477  1.0000
  H   H1204     1.0  0.99638  0.38458  0.70895  1.0000
  H   H1205     1.0  0.00597  0.26756  0.68117  1.0000
  H   H1206     1.0  0.99627  0.41088  0.70723  1.0000
  H   H1207     1.0  0.22605  0.41218  0.68045  1.0000
  H   H1208     1.0  0.99726  0.38268  0.78070  1.0000
  S   S195      1.0  0.00047  0.48092  0.69273  1.0000
  H   H1209     1.0  0.23129  0.40886  0.69796  1.0000
  H   H1210     1.0  0.24123  0.45367  0.84559  1.0000
  H   H1211     1.0  0.23158  0.43453  0.75886  1.0000
  N   N49       1.0  0.05163  0.23411  0.79672  1.0000
  C   C704      1.0  0.03371  0.24084  0.91369  1.0000
  C   C705      1.0  0.23618  0.42270  0.75826  1.0000
  H   H1212     1.0  0.22133  0.36216  0.70116  1.0000
  C   C706      1.0  0.18220  0.48260  0.83612  1.0000
  H   H1213     1.0  0.99949  0.38047  0.68690  1.0000
  H   H1214     1.0  0.00642  0.23701  0.89189  1.0000
  C   C707      1.0  0.00509  0.23917  0.65558  1.0000
  H   H1215     1.0  0.00416  0.26328  0.66508  1.0000
  H   H1216     1.0  0.23248  0.42056  0.73727  1.0000
  H   H1217     1.0  0.18640  0.23646  0.85262  1.0000
  H   H1218     1.0  0.03645  0.25148  0.90708  1.0000
  C   C708      1.0  0.19371  0.23622  0.53906  1.0000
  H   H1219     1.0  0.16471  0.23615  0.83823  1.0000
  N   N50       1.0  0.18217  0.23462  0.53199  1.0000
  C   C709      1.0  0.10932  0.23669  0.68227  1.0000
  H   H1220     1.0  0.02162  0.24646  0.93454  1.0000
  H   H1221     1.0  0.24023  0.44602  0.73460  1.0000
  C   C710      1.0  0.17155  0.47954  0.84931  1.0000
  S   S196      1.0  0.99575  0.28937  0.87837  1.0000
  H   H1222     1.0  0.14451  0.23681  0.68566  1.0000
  H   H1223     1.0  0.04325  0.23463  0.91898  1.0000
  H   H1224     1.0  0.03327  0.23436  0.90605  1.0000
  H   H1225     1.0  0.22825  0.47903  0.94299  1.0000
  H   H1226     1.0  0.24276  0.47549  0.61796  1.0000
  H   H1227     1.0  0.24366  0.45191  0.86365  1.0000
  H   H1228     1.0  0.24285  0.48324  0.58676  1.0000
  C   C711      1.0  0.16343  0.59835  0.03124  1.0000
  H   H1229     1.0  0.19882  0.54124  0.04665  1.0000
  C   C712      1.0  0.00964  0.65057  0.29545  1.0000
  H   H1230     1.0  0.17690  0.70758  0.45548  1.0000
  H   H1231     1.0  0.14215  0.69316  0.31625  1.0000
  H   H1232     1.0  0.01314  0.66377  0.43381  1.0000
  H   H1233     1.0  0.16131  0.54588  0.33568  1.0000
  C   C713      1.0  0.18845  0.49757  0.30488  1.0000
  H   H1234     1.0  0.17127  0.52828  0.33096  1.0000
  H   H1235     1.0  0.17458  0.60906  0.00153  1.0000
  Fe  Fe95      1.0  0.09532  0.59508  0.31294  1.0000
  S   S197      1.0  0.10062  0.60794  0.28966  1.0000
  S   S198      1.0  0.07319  0.59001  0.32511  1.0000
  Fe  Fe96      1.0  0.12568  0.59152  0.31842  1.0000
  S   S199      1.0  0.13421  0.60416  0.29561  1.0000
  S   S200      1.0  0.13890  0.58240  0.33617  1.0000
  Fe  Fe97      1.0  0.11175  0.61974  0.29910  1.0000
  S   S201      1.0  0.10764  0.64453  0.29227  1.0000
  Fe  Fe98      1.0  0.12252  0.59139  0.28794  1.0000
  S   S202      1.0  0.13392  0.57854  0.27013  1.0000
  S   S203      1.0  0.10436  0.60834  0.32251  1.0000
  S   S204      1.0  0.11605  0.57735  0.31047  1.0000
  C   C714      1.0  0.12641  0.71712  0.32878  1.0000
  S   S205      1.0  0.05468  0.55304  0.29170  1.0000
  N   N51       1.0  0.16360  0.54948  0.30440  1.0000
  H   H1236     1.0  0.21284  0.61514  0.03796  1.0000
  H   H1237     1.0  0.00111  0.53134  0.14802  1.0000
  H   H1238     1.0  0.06085  0.69041  0.35507  1.0000
  S   S206      1.0  0.01053  0.53386  0.19914  1.0000
  C   C715      1.0  0.05240  0.60128  0.28260  1.0000
  H   H1239     1.0  0.17882  0.72970  0.41116  1.0000
  H   H1240     1.0  0.15925  0.70016  0.30832  1.0000
  Fe  Fe99      1.0  0.09215  0.56245  0.18570  1.0000
  S   S207      1.0  0.11130  0.57361  0.18077  1.0000
  S   S208      1.0  0.07383  0.57117  0.17299  1.0000
  Fe  Fe100     1.0  0.10203  0.54023  0.21206  1.0000
  S   S209      1.0  0.12215  0.54906  0.20947  1.0000
  S   S210      1.0  0.09352  0.52250  0.23045  1.0000
  Fe  Fe101     1.0  0.10675  0.57142  0.20536  1.0000
  S   S211      1.0  0.10418  0.59056  0.21576  1.0000
  Fe  Fe102     1.0  0.12512  0.55044  0.18520  1.0000
  S   S212      1.0  0.14792  0.54216  0.17156  1.0000
  S   S213      1.0  0.08636  0.56241  0.20976  1.0000
  S   S214      1.0  0.10625  0.53944  0.18828  1.0000
  Fe  Fe103     1.0  0.20620  0.56269  0.06125  1.0000
  S   S215      1.0  0.19236  0.58013  0.07362  1.0000
  S   S216      1.0  0.21152  0.56750  0.03636  1.0000
  Fe  Fe104     1.0  0.21400  0.54155  0.08876  1.0000
  S   S217      1.0  0.20117  0.55704  0.10375  1.0000
  S   S218      1.0  0.22563  0.51795  0.09554  1.0000
  Fe  Fe105     1.0  0.18350  0.56184  0.09092  1.0000
  S   S219      1.0  0.15911  0.56638  0.10232  1.0000
  Fe  Fe106     1.0  0.21093  0.57427  0.08554  1.0000
  S   S220      1.0  0.21437  0.59474  0.08962  1.0000
  S   S221      1.0  0.19549  0.54484  0.07732  1.0000
  S   S222      1.0  0.22561  0.55831  0.07174  1.0000
  H   H1241     1.0  0.20730  0.57075  0.46209  1.0000
  Fe  Fe107     1.0  0.16072  0.56357  0.45281  1.0000
  H   H1242     1.0  0.24422  0.51748  0.02838  1.0000
  H   H1243     1.0  0.14903  0.52613  0.43204  1.0000
  Fe  Fe108     1.0  0.14537  0.59426  0.45799  1.0000
  S   S223      1.0  0.12706  0.61406  0.45376  1.0000
  H   H1244     1.0  0.04864  0.59083  0.28829  1.0000
  C   C716      1.0  0.01936  0.70485  0.40941  1.0000
  Fe  Fe109     1.0  0.15254  0.50593  0.37619  1.0000
  S   S224      1.0  0.17195  0.51677  0.36544  1.0000
  S   S225      1.0  0.12947  0.52027  0.37632  1.0000
  C   C717      1.0  0.14914  0.64118  0.46138  1.0000
  H   H1245     1.0  0.09928  0.70052  0.44585  1.0000
  C   C718      1.0  0.17524  0.55336  0.37736  1.0000
  H   H1246     1.0  0.19194  0.61338  0.11244  1.0000
  H   H1247     1.0  0.02613  0.48511  0.11143  1.0000
  H   H1248     1.0  0.14290  0.65285  0.45919  1.0000
  Fe  Fe110     1.0  0.10835  0.67334  0.35748  1.0000
  S   S226      1.0  0.09248  0.65820  0.36668  1.0000
  S   S227      1.0  0.11519  0.68188  0.33307  1.0000
  Fe  Fe111     1.0  0.10947  0.67610  0.38767  1.0000
  S   S228      1.0  0.09330  0.66141  0.39953  1.0000
  S   S229      1.0  0.11980  0.68429  0.40127  1.0000
  Fe  Fe112     1.0  0.10668  0.64726  0.38337  1.0000
  S   S230      1.0  0.11383  0.62269  0.39117  1.0000
  Fe  Fe113     1.0  0.08069  0.67367  0.38195  1.0000
  S   S231      1.0  0.05573  0.68110  0.38693  1.0000
  S   S232      1.0  0.12383  0.66101  0.37270  1.0000
  S   S233      1.0  0.09551  0.68985  0.37142  1.0000
  Fe  Fe114     1.0  0.01399  0.64741  0.35677  1.0000
  S   S234      1.0  0.01165  0.67003  0.34200  1.0000
  S   S235      1.0  0.03450  0.63627  0.36554  1.0000
  N   N52       1.0  0.05385  0.71379  0.34549  1.0000
  C   C719      1.0  0.15408  0.69135  0.31643  1.0000
  C   C720      1.0  0.20623  0.60445  0.44774  1.0000
  H   H1249     1.0  0.23731  0.57762  0.03745  1.0000
  Fe  Fe115     1.0  0.99810  0.57017  0.30741  1.0000
  C   C721      1.0  0.04301  0.62151  0.23608  1.0000
  H   H1250     1.0  0.15044  0.70755  0.35963  1.0000
  C   C722      1.0  0.17964  0.54115  0.30086  1.0000
  H   H1251     1.0  0.17489  0.60763  0.10061  1.0000
  S   S236      1.0  0.22354  0.63241  0.46771  1.0000
  H   H1252     1.0  0.06711  0.53879  0.21766  1.0000
  H   H1253     1.0  0.15580  0.62187  0.41589  1.0000
  H   H1254     1.0  0.06193  0.52395  0.20203  1.0000
  C   C723      1.0  0.14170  0.71928  0.46167  1.0000
  C   C724      1.0  0.00964  0.62938  0.28041  1.0000
  H   H1255     1.0  0.16476  0.59330  0.10600  1.0000
  H   H1256     1.0  0.17857  0.51293  0.17363  1.0000
  C   C725      1.0  0.04889  0.66827  0.38252  1.0000
  C   C726      1.0  0.03552  0.67268  0.37765  1.0000
  C   C727      1.0  0.03079  0.66272  0.37280  1.0000
  C   C728      1.0  0.03948  0.64838  0.37281  1.0000
  C   C729      1.0  0.05248  0.64380  0.37829  1.0000
  C   C730      1.0  0.05713  0.65372  0.38324  1.0000
  H   H1257     1.0  0.02895  0.68383  0.37738  1.0000
  H   H1258     1.0  0.02049  0.66618  0.36901  1.0000
  H   H1259     1.0  0.05904  0.63264  0.37861  1.0000
  H   H1260     1.0  0.06709  0.65008  0.38767  1.0000
  C   C731      1.0  0.12501  0.70133  0.39347  1.0000
  C   C732      1.0  0.13412  0.70563  0.39988  1.0000
  H   H1261     1.0  0.11268  0.70768  0.37634  1.0000
  H   H1262     1.0  0.13784  0.69847  0.40960  1.0000
  C   C733      1.0  0.12393  0.61608  0.43623  1.0000
  C   C734      1.0  0.12230  0.63006  0.42678  1.0000
  C   C735      1.0  0.12012  0.63184  0.41262  1.0000
  C   C736      1.0  0.11856  0.61986  0.40818  1.0000
  C   C737      1.0  0.12027  0.60582  0.41759  1.0000
  C   C738      1.0  0.12331  0.60385  0.43151  1.0000
  H   H1263     1.0  0.12286  0.63952  0.43033  1.0000
  H   H1264     1.0  0.11957  0.64255  0.40521  1.0000
  H   H1265     1.0  0.11892  0.59658  0.41426  1.0000
  H   H1266     1.0  0.12460  0.59300  0.43882  1.0000
  C   C739      1.0  0.16649  0.53641  0.43166  1.0000
  C   C740      1.0  0.16041  0.52728  0.42705  1.0000
  C   C741      1.0  0.16883  0.51983  0.41580  1.0000
  C   C742      1.0  0.18352  0.52126  0.40922  1.0000
  C   C743      1.0  0.18976  0.53017  0.41404  1.0000
  C   C744      1.0  0.18123  0.53782  0.42519  1.0000
  Fe  Fe116     1.0  0.17702  0.67249  0.47004  1.0000
  H   H1267     1.0  0.18524  0.54672  0.31961  1.0000
  H   H1268     1.0  0.20113  0.53128  0.40899  1.0000
  H   H1269     1.0  0.18601  0.54479  0.42874  1.0000
  H   H1270     1.0  0.08099  0.53916  0.17605  1.0000
  C   C745      1.0  0.15061  0.54889  0.15234  1.0000
  C   C746      1.0  0.14064  0.56112  0.14611  1.0000
  C   C747      1.0  0.14338  0.56654  0.13073  1.0000
  C   C748      1.0  0.15600  0.55966  0.12154  1.0000
  C   C749      1.0  0.16594  0.54743  0.12778  1.0000
  C   C750      1.0  0.16323  0.54208  0.14314  1.0000
  H   H1271     1.0  0.13094  0.56652  0.15314  1.0000
  H   H1272     1.0  0.13577  0.57614  0.12596  1.0000
  H   H1273     1.0  0.17561  0.54195  0.12075  1.0000
  H   H1274     1.0  0.17092  0.53262  0.14791  1.0000
  H   H1275     1.0  0.01601  0.51777  0.29550  1.0000
  H   H1276     1.0  0.23928  0.58430  0.05808  1.0000
  C   C751      1.0  0.12221  0.50600  0.22965  1.0000
  C   C752      1.0  0.10691  0.50621  0.23433  1.0000
  Fe  Fe117     1.0  0.00619  0.56384  0.27682  1.0000
  C   C753      1.0  0.13268  0.49287  0.23342  1.0000
  H   H1277     1.0  0.00741  0.51376  0.27614  1.0000
  H   H1278     1.0  0.12597  0.51595  0.22326  1.0000
  H   H1279     1.0  0.01022  0.66347  0.40276  1.0000
  H   H1280     1.0  0.02726  0.51055  0.23872  1.0000
  H   H1281     1.0  0.19761  0.52324  0.03323  1.0000
  C   C754      1.0  0.19051  0.54267  0.30935  1.0000
  C   C755      1.0  0.00313  0.52910  0.12578  1.0000
  C   C756      1.0  0.15670  0.53740  0.28702  1.0000
  C   C757      1.0  0.13338  0.70695  0.34179  1.0000
  C   C758      1.0  0.06798  0.61923  0.24975  1.0000
  C   C759      1.0  0.06556  0.69954  0.34686  1.0000
  H   H1282     1.0  0.19085  0.61553  0.13081  1.0000
  H   H1283     1.0  0.01673  0.70983  0.41914  1.0000
  H   H1284     1.0  0.15248  0.53060  0.34103  1.0000
  C   C760      1.0  0.11003  0.65430  0.30402  1.0000
  C   C761      1.0  0.11185  0.64750  0.31846  1.0000
  C   C762      1.0  0.11324  0.65589  0.32761  1.0000
  C   C763      1.0  0.11314  0.67100  0.32220  1.0000
  C   C764      1.0  0.11140  0.67771  0.30778  1.0000
  C   C765      1.0  0.10966  0.66944  0.29880  1.0000
  H   H1285     1.0  0.11226  0.63580  0.32255  1.0000
  H   H1286     1.0  0.11476  0.65060  0.33870  1.0000
  H   H1287     1.0  0.11132  0.68936  0.30353  1.0000
  H   H1288     1.0  0.10825  0.67475  0.28767  1.0000
  C   C766      1.0  0.06857  0.57884  0.31639  1.0000
  C   C767      1.0  0.05471  0.57490  0.32160  1.0000
  C   C768      1.0  0.05067  0.56644  0.31432  1.0000
  C   C769      1.0  0.06049  0.56193  0.30185  1.0000
  C   C770      1.0  0.07448  0.56564  0.29680  1.0000
  C   C771      1.0  0.07850  0.57417  0.30403  1.0000
  H   H1289     1.0  0.04705  0.57847  0.33118  1.0000
  H   H1290     1.0  0.08197  0.56243  0.28700  1.0000
  H   H1291     1.0  0.08918  0.57728  0.29990  1.0000
  C   C772      1.0  0.12555  0.58211  0.25509  1.0000
  C   C773      1.0  0.12902  0.57129  0.24683  1.0000
  C   C774      1.0  0.12245  0.57372  0.23482  1.0000
  C   C775      1.0  0.11274  0.58720  0.23070  1.0000
  C   C776      1.0  0.10966  0.59822  0.23867  1.0000
  C   C777      1.0  0.11583  0.59560  0.25101  1.0000
  H   H1292     1.0  0.13686  0.56104  0.24974  1.0000
  H   H1293     1.0  0.12515  0.56530  0.22859  1.0000
  H   H1294     1.0  0.10253  0.60883  0.23526  1.0000
  H   H1295     1.0  0.11345  0.60415  0.25708  1.0000
  C   C778      1.0  0.13515  0.56579  0.34820  1.0000
  C   C779      1.0  0.12428  0.55937  0.34691  1.0000
  C   C780      1.0  0.12210  0.54565  0.35600  1.0000
  C   C781      1.0  0.13086  0.53826  0.36639  1.0000
  C   C782      1.0  0.14132  0.54494  0.36812  1.0000
  C   C783      1.0  0.14349  0.55865  0.35898  1.0000
  H   H1296     1.0  0.11755  0.56485  0.33889  1.0000
  H   H1297     1.0  0.11397  0.54053  0.35466  1.0000
  H   H1298     1.0  0.14787  0.53938  0.37637  1.0000
  H   H1299     1.0  0.15197  0.56351  0.35993  1.0000
  H   H1300     1.0  0.02649  0.68294  0.42213  1.0000
  H   H1301     1.0  0.15883  0.64031  0.40958  1.0000
  H   H1302     1.0  0.22291  0.54580  0.99348  1.0000
  C   C784      1.0  0.21149  0.55378  0.02762  1.0000
  H   H1303     1.0  0.04532  0.57633  0.16621  1.0000
  C   C785      1.0  0.18192  0.49960  0.31925  1.0000
  H   H1304     1.0  0.15587  0.59611  0.38324  1.0000
  H   H1305     1.0  0.03995  0.56338  0.31838  1.0000
  H   H1306     1.0  0.23217  0.49815  0.04455  1.0000
  S   S237      1.0  0.02528  0.57531  0.26921  1.0000
  H   H1307     1.0  0.08183  0.62975  0.25607  1.0000
  Fe  Fe118     1.0  0.99571  0.51794  0.20443  1.0000
  H   H1308     1.0  0.07472  0.70062  0.35118  1.0000
  C   C786      1.0  0.20456  0.49340  0.17419  1.0000
  H   H1309     1.0  0.14556  0.50246  0.31927  1.0000
  C   C787      1.0  0.07321  0.69397  0.33249  1.0000
  H   H1310     1.0  0.13737  0.67191  0.43097  1.0000
  H   H1311     1.0  0.23529  0.62101  0.44148  1.0000
  H   H1312     1.0  0.02503  0.68376  0.40404  1.0000
  H   H1313     1.0  0.22596  0.60608  0.43039  1.0000
  C   C788      1.0  0.10764  0.70567  0.43688  1.0000
  C   C789      1.0  0.00416  0.51695  0.29791  1.0000
  H   H1314     1.0  0.23803  0.49889  0.06013  1.0000
  H   H1315     1.0  0.19950  0.49264  0.14770  1.0000
  H   H1316     1.0  0.99607  0.66393  0.43029  1.0000
  H   H1317     1.0  0.16792  0.52997  0.28537  1.0000
  C   C790      1.0  0.00423  0.52742  0.10086  1.0000
  H   H1318     1.0  0.11623  0.49861  0.29566  1.0000
  H   H1319     1.0  0.22071  0.62104  0.09076  1.0000
  H   H1320     1.0  0.99558  0.60108  0.40117  1.0000
  H   H1321     1.0  0.16584  0.56418  0.31681  1.0000
  H   H1322     1.0  0.12851  0.69695  0.34581  1.0000
  H   H1323     1.0  0.20497  0.58696  0.99961  1.0000
  H   H1324     1.0  0.08185  0.68375  0.33499  1.0000
  H   H1325     1.0  0.16831  0.68505  0.33189  1.0000
  H   H1326     1.0  0.19982  0.58592  0.12051  1.0000
  H   H1327     1.0  0.17439  0.62451  0.41170  1.0000
  C   C791      1.0  0.16202  0.56465  0.30686  1.0000
  C   C792      1.0  0.17002  0.57526  0.29391  1.0000
  H   H1328     1.0  0.16232  0.55842  0.28139  1.0000
  H   H1329     1.0  0.15000  0.57030  0.30926  1.0000
  H   H1330     1.0  0.18463  0.54473  0.28890  1.0000
  H   H1331     1.0  0.18169  0.57002  0.28940  1.0000
  H   H1332     1.0  0.16379  0.57974  0.28491  1.0000
  H   H1333     1.0  0.17028  0.58491  0.29788  1.0000
  C   C793      1.0  0.20359  0.51279  0.15095  1.0000
  H   H1334     1.0  0.16566  0.61854  0.43848  1.0000
  H   H1335     1.0  0.20432  0.53829  0.17034  1.0000
  H   H1336     1.0  0.19340  0.71044  0.44223  1.0000
  H   H1337     1.0  0.14473  0.55772  0.29388  1.0000
  H   H1338     1.0  0.19590  0.72503  0.41708  1.0000
  H   H1339     1.0  0.18048  0.54862  0.00734  1.0000
  C   C794      1.0  0.14098  0.58612  0.37889  1.0000
  C   C795      1.0  0.00703  0.65497  0.28117  1.0000
  N   N53       1.0  0.00397  0.68441  0.42011  1.0000
  C   C796      1.0  0.04864  0.56022  0.23305  1.0000
  C   C797      1.0  0.19630  0.59546  0.00478  1.0000
  N   N54       1.0  0.15022  0.70261  0.33908  1.0000
  C   C798      1.0  0.15658  0.55158  0.29155  1.0000
  N   N55       1.0  0.06103  0.64407  0.31706  1.0000
  C   C799      1.0  0.05875  0.62922  0.32674  1.0000
  C   C800      1.0  0.07305  0.64800  0.32163  1.0000
  C   C801      1.0  0.06655  0.64216  0.30134  1.0000
  C   C802      1.0  0.04632  0.65515  0.31897  1.0000
  C   C803      1.0  0.04743  0.62250  0.32349  1.0000
  C   C804      1.0  0.06938  0.64984  0.33772  1.0000
  C   C805      1.0  0.06907  0.65609  0.28928  1.0000
  C   C806      1.0  0.04688  0.67173  0.31492  1.0000
  H   H1340     1.0  0.06955  0.62089  0.32617  1.0000
  H   H1341     1.0  0.05466  0.62991  0.33852  1.0000
  H   H1342     1.0  0.07630  0.65824  0.31443  1.0000
  H   H1343     1.0  0.08356  0.63936  0.32020  1.0000
  H   H1344     1.0  0.07723  0.63368  0.30026  1.0000
  H   H1345     1.0  0.05850  0.63801  0.29804  1.0000
  H   H1346     1.0  0.03905  0.65381  0.31243  1.0000
  H   H1347     1.0  0.04018  0.65285  0.33071  1.0000
  H   H1348     1.0  0.04493  0.61303  0.33276  1.0000
  H   H1349     1.0  0.03667  0.63043  0.32263  1.0000
  H   H1350     1.0  0.05208  0.61794  0.31340  1.0000
  H   H1351     1.0  0.07795  0.65480  0.33912  1.0000
  H   H1352     1.0  0.05833  0.65717  0.34076  1.0000
  H   H1353     1.0  0.06984  0.63901  0.34569  1.0000
  H   H1354     1.0  0.05834  0.66404  0.28805  1.0000
  H   H1355     1.0  0.07416  0.65278  0.27853  1.0000
  H   H1356     1.0  0.07698  0.66156  0.29106  1.0000
  H   H1357     1.0  0.03780  0.67816  0.30904  1.0000
  H   H1358     1.0  0.05737  0.67448  0.30769  1.0000
  H   H1359     1.0  0.04435  0.67602  0.32507  1.0000
  H   H1360     1.0  0.08479  0.61046  0.26374  1.0000
  C   C807      1.0  0.12466  0.72415  0.37475  1.0000
  H   H1361     1.0  0.15537  0.67432  0.36135  1.0000
  C   C808      1.0  0.14227  0.66037  0.42953  1.0000
  H   H1362     1.0  0.02691  0.55574  0.23576  1.0000
  C   C809      1.0  0.23152  0.58239  0.47619  1.0000
  C   C810      1.0  0.19814  0.60838  0.46112  1.0000
  C   C811      1.0  0.20985  0.53354  0.01231  1.0000
  C   C812      1.0  0.16042  0.53635  0.33204  1.0000
  S   S238      1.0  0.19981  0.59426  0.43915  1.0000
  C   C813      1.0  0.04844  0.54002  0.16733  1.0000
  S   S239      1.0  0.20025  0.67276  0.45652  1.0000
  H   H1363     1.0  0.12895  0.71301  0.35082  1.0000
  H   H1364     1.0  0.17001  0.71118  0.32746  1.0000
  C   C814      1.0  0.21755  0.54484  0.00501  1.0000
  C   C815      1.0  0.07971  0.72410  0.40242  1.0000
  C   C816      1.0  0.06675  0.57779  0.25826  1.0000
  H   H1365     1.0  0.13225  0.59304  0.38596  1.0000
  H   H1366     1.0  0.03402  0.52605  0.21614  1.0000
  C   C817      1.0  0.15481  0.69831  0.35374  1.0000
  C   C818      1.0  0.21961  0.60907  0.44071  1.0000
  C   C819      1.0  0.15778  0.59136  0.98824  1.0000
  H   H1367     1.0  0.18435  0.57282  0.99251  1.0000
  C   C820      1.0  0.24040  0.58987  0.01479  1.0000
  H   H1368     1.0  0.18498  0.52945  0.16869  1.0000
  H   H1369     1.0  0.15969  0.68090  0.31261  1.0000
  H   H1370     1.0  0.04902  0.56864  0.22253  1.0000
  C   C821      1.0  0.03057  0.52016  0.24011  1.0000
  H   H1371     1.0  0.13807  0.57534  0.38093  1.0000
  N   N56       1.0  0.11228  0.52429  0.27148  1.0000
  C   C822      1.0  0.11766  0.50796  0.27174  1.0000
  C   C823      1.0  0.11603  0.53266  0.25568  1.0000
  C   C824      1.0  0.09565  0.52837  0.27736  1.0000
  C   C825      1.0  0.11996  0.52813  0.28113  1.0000
  C   C826      1.0  0.11241  0.49733  0.28637  1.0000
  C   C827      1.0  0.13285  0.53112  0.24855  1.0000
  C   C828      1.0  0.08587  0.52472  0.26919  1.0000
  C   C829      1.0  0.11586  0.54454  0.28227  1.0000
  H   H1372     1.0  0.11444  0.50506  0.26287  1.0000
  H   H1373     1.0  0.13010  0.50482  0.26929  1.0000
  H   H1374     1.0  0.11071  0.54463  0.25438  1.0000
  H   H1375     1.0  0.11128  0.52884  0.24850  1.0000
  H   H1376     1.0  0.09257  0.52319  0.28932  1.0000
  H   H1377     1.0  0.09185  0.54048  0.27682  1.0000
  H   H1378     1.0  0.11728  0.52172  0.29267  1.0000
  H   H1379     1.0  0.13231  0.52453  0.27797  1.0000
  C   C830      1.0  0.18092  0.57162  0.00470  1.0000
  C   C831      1.0  0.23110  0.61282  0.09018  1.0000
  C   C832      1.0  0.15370  0.72897  0.33613  1.0000
  H   H1380     1.0  0.13847  0.51953  0.24784  1.0000
  H   H1381     1.0  0.13420  0.53779  0.23706  1.0000
  H   H1382     1.0  0.13869  0.53534  0.25437  1.0000
  H   H1383     1.0  0.08605  0.53217  0.25811  1.0000
  H   H1384     1.0  0.07408  0.52670  0.27548  1.0000
  H   H1385     1.0  0.08914  0.51304  0.26813  1.0000
  H   H1386     1.0  0.10684  0.54625  0.29219  1.0000
  H   H1387     1.0  0.11223  0.55245  0.27254  1.0000
  H   H1388     1.0  0.12577  0.54774  0.28321  1.0000
  C   C833      1.0  0.15735  0.59081  0.00447  1.0000
  H   H1389     1.0  0.03904  0.54171  0.24556  1.0000
  C   C834      1.0  0.07538  0.71918  0.43551  1.0000
  C   C835      1.0  0.05410  0.60700  0.24098  1.0000
  C   C836      1.0  0.99536  0.72649  0.36858  1.0000
  H   H1390     1.0  0.06811  0.71081  0.45917  1.0000
  S   S240      1.0  0.00153  0.54895  0.26517  1.0000
  H   H1391     1.0  0.06316  0.60510  0.23105  1.0000
  H   H1392     1.0  0.07822  0.59057  0.26422  1.0000
  H   H1393     1.0  0.03084  0.70611  0.40335  1.0000
  C   C837      1.0  0.16955  0.58403  0.02533  1.0000
  H   H1394     1.0  0.04620  0.60924  0.28975  1.0000
  H   H1395     1.0  0.19966  0.52482  0.14650  1.0000
  H   H1396     1.0  0.00375  0.52086  0.09336  1.0000
  H   H1397     1.0  0.23748  0.52911  0.06357  1.0000
  H   H1398     1.0  0.11089  0.72665  0.42258  1.0000
  H   H1399     1.0  0.01894  0.55901  0.20783  1.0000
  S   S241      1.0  0.16161  0.49240  0.39611  1.0000
  H   H1400     1.0  0.00464  0.60729  0.32924  1.0000
  C   C838      1.0  0.01270  0.63544  0.30209  1.0000
  H   H1401     1.0  0.18461  0.49593  0.28455  1.0000
  C   C839      1.0  0.99508  0.69067  0.40820  1.0000
  H   H1402     1.0  0.13897  0.72533  0.47030  1.0000
  Fe  Fe119     1.0  0.20683  0.65260  0.47377  1.0000
  C   C840      1.0  0.15659  0.58514  0.38115  1.0000
  H   H1403     1.0  0.23299  0.58619  0.46407  1.0000
  H   H1404     1.0  0.15383  0.53048  0.31576  1.0000
  H   H1405     1.0  0.06495  0.72346  0.43123  1.0000
  H   H1406     1.0  0.05657  0.57758  0.26718  1.0000
  N   N57       1.0  0.08805  0.59401  0.37059  1.0000
  C   C841      1.0  0.09134  0.58645  0.35798  1.0000
  C   C842      1.0  0.09115  0.60934  0.36430  1.0000
  C   C843      1.0  0.07194  0.59536  0.37869  1.0000
  C   C844      1.0  0.09777  0.58491  0.38126  1.0000
  C   C845      1.0  0.08728  0.57119  0.36193  1.0000
  C   C846      1.0  0.10777  0.61015  0.35932  1.0000
  C   C847      1.0  0.06039  0.60266  0.36893  1.0000
  C   C848      1.0  0.09605  0.59123  0.39482  1.0000
  H   H1407     1.0  0.08547  0.59352  0.34915  1.0000
  H   H1408     1.0  0.10340  0.58483  0.35259  1.0000
  H   H1409     1.0  0.08569  0.61671  0.37222  1.0000
  H   H1410     1.0  0.08619  0.61489  0.35448  1.0000
  H   H1411     1.0  0.06965  0.58436  0.38502  1.0000
  H   H1412     1.0  0.06932  0.60202  0.38719  1.0000
  H   H1413     1.0  0.09526  0.57372  0.38589  1.0000
  H   H1414     1.0  0.10981  0.58248  0.37561  1.0000
  H   H1415     1.0  0.09412  0.56276  0.36925  1.0000
  H   H1416     1.0  0.07526  0.57163  0.36691  1.0000
  H   H1417     1.0  0.08967  0.56722  0.35159  1.0000
  H   H1418     1.0  0.10866  0.62170  0.35363  1.0000
  H   H1419     1.0  0.11308  0.60721  0.36888  1.0000
  H   H1420     1.0  0.11422  0.60299  0.35149  1.0000
  H   H1421     1.0  0.06186  0.61380  0.36251  1.0000
  H   H1422     1.0  0.04898  0.60400  0.37613  1.0000
  H   H1423     1.0  0.06073  0.59583  0.36128  1.0000
  H   H1424     1.0  0.08752  0.58684  0.40425  1.0000
  H   H1425     1.0  0.09292  0.60345  0.39264  1.0000
  H   H1426     1.0  0.10689  0.58812  0.39819  1.0000
  N   N58       1.0  0.10587  0.54864  0.13078  1.0000
  C   C849      1.0  0.12079  0.53899  0.13335  1.0000
  C   C850      1.0  0.10732  0.55414  0.11432  1.0000
  C   C851      1.0  0.09463  0.53891  0.13668  1.0000
  C   C852      1.0  0.10170  0.56103  0.13890  1.0000
  C   C853      1.0  0.12153  0.53159  0.14959  1.0000
  C   C854      1.0  0.12030  0.56204  0.10614  1.0000
  C   C855      1.0  0.07874  0.54590  0.13405  1.0000
  C   C856      1.0  0.09149  0.57564  0.13266  1.0000
  H   H1427     1.0  0.12450  0.53008  0.12702  1.0000
  H   H1428     1.0  0.12965  0.54547  0.12925  1.0000
  H   H1429     1.0  0.09695  0.56192  0.11163  1.0000
  H   H1430     1.0  0.10887  0.54477  0.10902  1.0000
  H   H1431     1.0  0.09874  0.52885  0.13191  1.0000
  H   H1432     1.0  0.09316  0.53480  0.14884  1.0000
  H   H1433     1.0  0.09623  0.55725  0.15066  1.0000
  H   H1434     1.0  0.11183  0.56423  0.13941  1.0000
  H   H1435     1.0  0.11512  0.52274  0.15421  1.0000
  H   H1436     1.0  0.13335  0.52625  0.15016  1.0000
  H   H1437     1.0  0.11774  0.53977  0.15666  1.0000
  H   H1438     1.0  0.12126  0.56989  0.11208  1.0000
  H   H1439     1.0  0.13112  0.55392  0.10437  1.0000
  H   H1440     1.0  0.11848  0.56838  0.09502  1.0000
  H   H1441     1.0  0.07273  0.55414  0.14089  1.0000
  H   H1442     1.0  0.07219  0.53712  0.13781  1.0000
  H   H1443     1.0  0.07843  0.55069  0.12229  1.0000
  H   H1444     1.0  0.09740  0.58175  0.12214  1.0000
  H   H1445     1.0  0.08815  0.58295  0.14064  1.0000
  H   H1446     1.0  0.08106  0.57416  0.13104  1.0000
  C   C857      1.0  0.20350  0.53202  0.02748  1.0000
  H   H1447     1.0  0.07802  0.70709  0.43585  1.0000
  N   N59       1.0  0.17799  0.59071  0.13522  1.0000
  C   C858      1.0  0.17219  0.59598  0.14951  1.0000
  C   C859      1.0  0.17756  0.57471  0.13772  1.0000
  C   C860      1.0  0.16814  0.59978  0.12464  1.0000
  C   C861      1.0  0.15679  0.59300  0.15861  1.0000
  C   C862      1.0  0.18655  0.56377  0.14883  1.0000
  C   C863      1.0  0.17340  0.59713  0.10872  1.0000
  H   H1448     1.0  0.18022  0.59101  0.15691  1.0000
  H   H1449     1.0  0.17118  0.60812  0.14739  1.0000
  H   H1450     1.0  0.16588  0.57323  0.14138  1.0000
  H   H1451     1.0  0.18187  0.57084  0.12723  1.0000
  H   H1452     1.0  0.15667  0.59763  0.12883  1.0000
  H   H1453     1.0  0.16660  0.61182  0.12391  1.0000
  H   H1454     1.0  0.14782  0.59829  0.15239  1.0000
  H   H1455     1.0  0.15697  0.58102  0.16277  1.0000
  H   H1456     1.0  0.15361  0.59784  0.16852  1.0000
  H   H1457     1.0  0.18237  0.56605  0.16006  1.0000
  H   H1458     1.0  0.18529  0.55246  0.14972  1.0000
  H   H1459     1.0  0.02640  0.57126  0.21366  1.0000
  C   C864      1.0  0.14022  0.72685  0.44734  1.0000
  H   H1460     1.0  0.14154  0.73263  0.34038  1.0000
  C   C865      1.0  0.22117  0.60669  0.04368  1.0000
  H   H1461     1.0  0.20639  0.72708  0.43303  1.0000
  C   C866      1.0  0.18138  0.71540  0.44548  1.0000
  H   H1462     1.0  0.99565  0.73200  0.37673  1.0000
  C   C867      1.0  0.05510  0.71895  0.36989  1.0000
  C   C868      1.0  0.16259  0.62928  0.41645  1.0000
  H   H1463     1.0  0.01563  0.61320  0.29948  1.0000
  S   S242      1.0  0.01278  0.55095  0.29809  1.0000
  H   H1464     1.0  0.05266  0.55705  0.20392  1.0000
  C   C869      1.0  0.16046  0.62977  0.43274  1.0000
  S   S243      1.0  0.01671  0.58192  0.30279  1.0000
  H   H1465     1.0  0.17368  0.52366  0.19489  1.0000
  H   H1466     1.0  0.13344  0.71673  0.31764  1.0000
  H   H1467     1.0  0.19775  0.53161  0.31262  1.0000
  H   H1468     1.0  0.14993  0.63837  0.47313  1.0000
  H   H1469     1.0  0.15220  0.68386  0.37564  1.0000
  S   S244      1.0  0.19332  0.48395  0.37238  1.0000
  H   H1470     1.0  0.06039  0.52639  0.23375  1.0000
  C   C870      1.0  0.12007  0.71072  0.38105  1.0000
  H   H1471     1.0  0.19866  0.56360  0.14504  1.0000
  H   H1472     1.0  0.20055  0.58760  0.13790  1.0000
  H   H1473     1.0  0.20829  0.60817  0.11969  1.0000
  H   H1474     1.0  0.06461  0.57636  0.24810  1.0000
  H   H1475     1.0  0.24363  0.62774  0.09110  1.0000
  H   H1476     1.0  0.04396  0.56626  0.24211  1.0000
  H   H1477     1.0  0.18397  0.58886  0.10671  1.0000
  C   C871      1.0  0.14365  0.71899  0.43622  1.0000
  C   C872      1.0  0.19396  0.59238  0.12917  1.0000
  C   C873      1.0  0.99614  0.49860  0.26359  1.0000
  H   H1478     1.0  0.19684  0.62035  0.47745  1.0000
  H   H1479     1.0  0.08458  0.71984  0.39214  1.0000
  H   H1480     1.0  0.01016  0.49700  0.28977  1.0000
  H   H1481     1.0  0.02552  0.50898  0.11520  1.0000
  H   H1482     1.0  0.24032  0.57656  0.98038  1.0000
  N   N60       1.0  0.20272  0.50969  0.16734  1.0000
  C   C874      1.0  0.23441  0.51386  0.11030  1.0000
  C   C875      1.0  0.19613  0.60837  0.12274  1.0000
  H   H1483     1.0  0.00123  0.51149  0.30974  1.0000
  S   S245      1.0  0.15492  0.54630  0.44503  1.0000
  H   H1484     1.0  0.18011  0.52914  0.30270  1.0000
  H   H1485     1.0  0.15061  0.68007  0.33890  1.0000
  C   C876      1.0  0.04216  0.55515  0.16597  1.0000
  S   S246      1.0  0.19316  0.50024  0.33049  1.0000
  H   H1486     1.0  0.06014  0.55415  0.23415  1.0000
  H   H1487     1.0  0.16391  0.51303  0.41220  1.0000
  C   C877      1.0  0.15761  0.71508  0.32964  1.0000
  C   C878      1.0  0.24410  0.61663  0.09034  1.0000
  C   C879      1.0  0.07022  0.54366  0.17319  1.0000
  C   C880      1.0  0.15754  0.50099  0.31525  1.0000
  H   H1488     1.0  0.06801  0.62306  0.27116  1.0000
  H   H1489     1.0  0.13596  0.65325  0.43873  1.0000
  H   H1490     1.0  0.18493  0.64091  0.41601  1.0000
  H   H1491     1.0  0.16446  0.65977  0.41651  1.0000
  C   C881      1.0  0.15613  0.68930  0.33217  1.0000
  H   H1492     1.0  0.13205  0.56993  0.42440  1.0000
  H   H1493     1.0  0.18694  0.65989  0.42954  1.0000
  S   S247      1.0  0.19399  0.51263  0.39454  1.0000
  H   H1494     1.0  0.18851  0.62684  0.43169  1.0000
  C   C882      1.0  0.15457  0.54094  0.31779  1.0000
  H   H1495     1.0  0.14281  0.54731  0.32032  1.0000
  S   S248      1.0  0.00941  0.66435  0.30432  1.0000
  H   H1496     1.0  0.16472  0.58505  0.37036  1.0000
  C   C883      1.0  0.20420  0.54220  0.03510  1.0000
  H   H1497     1.0  0.16721  0.69599  0.35206  1.0000
  C   C884      1.0  0.14716  0.70395  0.46481  1.0000
  C   C885      1.0  0.13871  0.71906  0.39357  1.0000
  H   H1498     1.0  0.06531  0.69090  0.32798  1.0000
  C   C886      1.0  0.05011  0.56457  0.16765  1.0000
  H   H1499     1.0  0.14058  0.59127  0.36713  1.0000
  C   C887      1.0  0.14893  0.70355  0.43944  1.0000
  H   H1500     1.0  0.17448  0.56192  0.36707  1.0000
  H   H1501     1.0  0.03746  0.61983  0.22818  1.0000
  H   H1502     1.0  0.17356  0.54308  0.37565  1.0000
  H   H1503     1.0  0.08137  0.59217  0.24514  1.0000
  C   C888      1.0  0.15931  0.65698  0.42853  1.0000
  S   S249      1.0  0.00878  0.61679  0.27066  1.0000
  H   H1504     1.0  0.09602  0.70847  0.41332  1.0000
  N   N61       1.0  0.16658  0.64142  0.43530  1.0000
  S   S250      1.0  0.16199  0.58629  0.43889  1.0000
  H   H1505     1.0  0.07550  0.56806  0.26173  1.0000
  C   C889      1.0  0.18308  0.63869  0.42825  1.0000
  C   C890      1.0  0.01916  0.68822  0.41405  1.0000
  N   N62       1.0  0.17225  0.58605  0.00881  1.0000
  H   H1506     1.0  0.16151  0.66512  0.43337  1.0000
  C   C891      1.0  0.15101  0.69609  0.45368  1.0000
  H   H1507     1.0  0.22953  0.53632  0.11285  1.0000
  Fe  Fe120     1.0  0.03065  0.56374  0.29127  1.0000
  S   S251      1.0  0.17950  0.56190  0.46335  1.0000
  H   H1508     1.0  0.15186  0.69747  0.43081  1.0000
  H   H1509     1.0  0.20347  0.64659  0.42394  1.0000
  H   H1510     1.0  0.14846  0.69821  0.47587  1.0000
  C   C892      1.0  0.06411  0.55888  0.17134  1.0000
  C   C893      1.0  0.19222  0.64792  0.43142  1.0000
  Fe  Fe121     1.0  0.17903  0.58557  0.45117  1.0000
  H   H1511     1.0  0.16122  0.50362  0.33518  1.0000
  H   H1512     1.0  0.16626  0.54927  0.40064  1.0000
  H   H1513     1.0  0.15852  0.56949  0.41713  1.0000
  H   H1514     1.0  0.18398  0.59823  0.98863  1.0000
  H   H1515     1.0  0.14280  0.63364  0.46037  1.0000
  C   C894      1.0  0.16644  0.50143  0.32436  1.0000
  H   H1516     1.0  0.14849  0.53124  0.29499  1.0000
  C   C895      1.0  0.22145  0.55168  0.45412  1.0000
  H   H1517     1.0  0.19411  0.64390  0.44283  1.0000
  H   H1518     1.0  0.18240  0.56453  0.40164  1.0000
  H   H1519     1.0  0.04126  0.70612  0.36745  1.0000
  H   H1520     1.0  0.21576  0.51170  0.18157  1.0000
  H   H1521     1.0  0.17693  0.59801  0.38755  1.0000
  H   H1522     1.0  0.14165  0.55521  0.41536  1.0000
  H   H1523     1.0  0.15249  0.60441  0.02855  1.0000
  H   H1524     1.0  0.07622  0.61923  0.23898  1.0000
  H   H1525     1.0  0.23965  0.61645  0.04021  1.0000
  H   H1526     1.0  0.07087  0.72614  0.34177  1.0000
  H   H1527     1.0  0.03131  0.55966  0.16320  1.0000
  C   C896      1.0  0.21841  0.55489  0.01263  1.0000
  C   C897      1.0  0.16506  0.63935  0.45168  1.0000
  H   H1528     1.0  0.17001  0.64736  0.45398  1.0000
  H   H1529     1.0  0.21276  0.54505  0.45887  1.0000
  H   H1530     1.0  0.04118  0.51563  0.24389  1.0000
  C   C898      1.0  0.03872  0.54947  0.23462  1.0000
  C   C899      1.0  0.05871  0.53175  0.22236  1.0000
  H   H1531     1.0  0.01177  0.71125  0.40190  1.0000
  H   H1532     1.0  0.22420  0.56372  0.00679  1.0000
  C   C900      1.0  0.15210  0.57457  0.40825  1.0000
  H   H1533     1.0  0.14793  0.58645  0.40873  1.0000
  H   H1534     1.0  0.17071  0.59091  0.40711  1.0000
  C   C901      1.0  0.13836  0.56745  0.41350  1.0000
  H   H1535     1.0  0.04471  0.54516  0.19899  1.0000
  H   H1536     1.0  0.19003  0.58701  0.39848  1.0000
  H   H1537     1.0  0.07565  0.51460  0.21281  1.0000
  H   H1538     1.0  0.13729  0.68619  0.36698  1.0000
  C   C902      1.0  0.23142  0.59850  0.08941  1.0000
  H   H1539     1.0  0.11166  0.69946  0.42796  1.0000
  H   H1540     1.0  0.03999  0.60070  0.26754  1.0000
  S   S252      1.0  0.20771  0.52153  0.00261  1.0000
  H   H1541     1.0  0.17139  0.62817  0.45619  1.0000
  C   C903      1.0  0.17861  0.58838  0.39687  1.0000
  H   H1542     1.0  0.06741  0.52259  0.17199  1.0000
  H   H1543     1.0  0.19563  0.59236  0.01680  1.0000
  H   H1544     1.0  0.22589  0.57202  0.45485  1.0000
  H   H1545     1.0  0.14840  0.63095  0.43761  1.0000
  C   C904      1.0  0.17752  0.57404  0.39345  1.0000
  Fe  Fe122     1.0  0.18145  0.49764  0.35447  1.0000
  C   C905      1.0  0.06252  0.53430  0.17090  1.0000
  H   H1546     1.0  0.13998  0.66012  0.41897  1.0000
  C   C906      1.0  0.14954  0.68485  0.36487  1.0000
  C   C907      1.0  0.00689  0.64446  0.27375  1.0000
  H   H1547     1.0  0.06087  0.73028  0.45309  1.0000
  H   H1548     1.0  0.16232  0.58036  0.98539  1.0000
  H   H1549     1.0  0.00641  0.48845  0.11403  1.0000
  H   H1550     1.0  0.23266  0.54428  0.45385  1.0000
  H   H1551     1.0  0.13058  0.57178  0.40597  1.0000
  N   N63       1.0  0.16209  0.57292  0.39332  1.0000
  C   C908      1.0  0.06355  0.51955  0.21348  1.0000
  N   N64       1.0  0.04312  0.54109  0.22250  1.0000
  H   H1552     1.0  0.12080  0.73148  0.36518  1.0000
  H   H1553     1.0  0.24230  0.52977  0.13373  1.0000
  C   C909      1.0  0.21656  0.62191  0.46006  1.0000
  C   C910      1.0  0.16341  0.55780  0.39087  1.0000
  H   H1554     1.0  0.18530  0.57336  0.38256  1.0000
  C   C911      1.0  0.02879  0.56366  0.20615  1.0000
  H   H1555     1.0  0.15161  0.60209  0.00634  1.0000
  C   C912      1.0  0.22800  0.70696  0.46122  1.0000
  C   C913      1.0  0.19453  0.50468  0.14617  1.0000
  S   S253      1.0  0.03915  0.52839  0.16381  1.0000
  H   H1556     1.0  0.15267  0.55621  0.39006  1.0000
  H   H1557     1.0  0.18671  0.55058  0.37935  1.0000
  H   H1558     1.0  0.06672  0.72510  0.32543  1.0000
  H   H1559     1.0  0.05753  0.51047  0.21898  1.0000
  C   C914      1.0  0.03199  0.53171  0.22532  1.0000
  H   H1560     1.0  0.04788  0.59807  0.24364  1.0000
  H   H1561     1.0  0.04162  0.61868  0.26693  1.0000
  S   S254      1.0  0.20884  0.70730  0.46584  1.0000
  C   C915      1.0  0.04309  0.55146  0.20755  1.0000
  H   H1562     1.0  0.17989  0.57794  0.02943  1.0000
  C   C916      1.0  0.22487  0.61757  0.44695  1.0000
  S   S255      1.0  0.15910  0.67711  0.45741  1.0000
  Fe  Fe123     1.0  0.20169  0.68563  0.47193  1.0000
  C   C917      1.0  0.21891  0.56424  0.46214  1.0000
  S   S256      1.0  0.16123  0.48780  0.36361  1.0000
  C   C918      1.0  0.00658  0.66778  0.42502  1.0000
  H   H1563     1.0  0.04227  0.68937  0.34565  1.0000
  H   H1564     1.0  0.01348  0.49948  0.13016  1.0000
  H   H1565     1.0  0.18606  0.50604  0.19805  1.0000
  C   C919      1.0  0.16410  0.49871  0.30099  1.0000
  C   C920      1.0  0.07237  0.59204  0.25536  1.0000
  H   H1566     1.0  0.02777  0.70034  0.33645  1.0000
  C   C921      1.0  0.99561  0.55627  0.24843  1.0000
  H   H1567     1.0  0.19157  0.56809  0.00838  1.0000
  H   H1568     1.0  0.23686  0.61478  0.02368  1.0000
  S   S257      1.0  0.15280  0.49833  0.28970  1.0000
  C   C922      1.0  0.01295  0.62484  0.29446  1.0000
  H   H1569     1.0  0.19823  0.54977  0.30202  1.0000
  S   S258      1.0  0.00656  0.63718  0.34279  1.0000
  C   C923      1.0  0.17817  0.73063  0.44928  1.0000
  H   H1570     1.0  0.14450  0.49270  0.22977  1.0000
  C   C924      1.0  0.18758  0.51765  0.17452  1.0000
  H   H1571     1.0  0.15330  0.54061  0.27626  1.0000
  Fe  Fe124     1.0  0.00995  0.59263  0.28124  1.0000
  C   C925      1.0  0.04814  0.60708  0.26736  1.0000
  H   H1572     1.0  0.15501  0.71892  0.31855  1.0000
  C   C926      1.0  0.23470  0.52493  0.11691  1.0000
  H   H1573     1.0  0.04883  0.63067  0.23011  1.0000
  C   C927      1.0  0.01601  0.49394  0.10975  1.0000
  C   C928      1.0  0.10211  0.49331  0.24260  1.0000
  H   H1574     1.0  0.02063  0.53877  0.22534  1.0000
  C   C929      1.0  0.17955  0.49713  0.29575  1.0000
  C   C930      1.0  0.03456  0.70036  0.34408  1.0000
  N   N65       1.0  0.06064  0.60627  0.25379  1.0000
  H   H1575     1.0  0.16138  0.57689  0.03112  1.0000
  C   C931      1.0  0.07604  0.62042  0.26099  1.0000
  C   C932      1.0  0.21514  0.51493  0.16972  1.0000
  H   H1576     1.0  0.03031  0.57058  0.19476  1.0000
  H   H1577     1.0  0.03405  0.62485  0.24542  1.0000
  C   C933      1.0  0.00133  0.73188  0.35375  1.0000
  H   H1578     1.0  0.02702  0.65907  0.40976  1.0000
  H   H1579     1.0  0.19491  0.48907  0.17420  1.0000
  H   H1580     1.0  0.02200  0.52503  0.24892  1.0000
  H   H1581     1.0  0.05962  0.62987  0.24818  1.0000
  H   H1582     1.0  0.03369  0.72354  0.33709  1.0000
  S   S259      1.0  0.14276  0.57177  0.47123  1.0000
  H   H1583     1.0  0.06433  0.59952  0.28253  1.0000
  H   H1584     1.0  0.18266  0.50645  0.15210  1.0000
  H   H1585     1.0  0.01401  0.64737  0.41695  1.0000
  H   H1586     1.0  0.16248  0.56057  0.00772  1.0000
  C   C934      1.0  0.23246  0.72012  0.45933  1.0000
  H   H1587     1.0  0.17111  0.55546  0.02352  1.0000
  H   H1588     1.0  0.21523  0.53536  0.15227  1.0000
  H   H1589     1.0  0.01566  0.52977  0.09692  1.0000
  H   H1590     1.0  0.00809  0.49855  0.26205  1.0000
  Fe  Fe125     1.0  0.01493  0.53179  0.17580  1.0000
  H   H1591     1.0  0.17140  0.60578  0.02716  1.0000
  H   H1592     1.0  0.21903  0.59587  0.04412  1.0000
  C   C935      1.0  0.18519  0.51739  0.19106  1.0000
  H   H1593     1.0  0.11742  0.70428  0.44160  1.0000
  C   C936      1.0  0.17307  0.55851  0.01130  1.0000
  C   C937      1.0  0.01491  0.65912  0.41279  1.0000
  Fe  Fe126     1.0  0.18172  0.50227  0.38452  1.0000
  C   C938      1.0  0.21446  0.53168  0.16435  1.0000
  Fe  Fe127     1.0  0.00225  0.66015  0.32908  1.0000
  H   H1594     1.0  0.23042  0.52385  0.04325  1.0000
  H   H1595     1.0  0.20002  0.60609  0.00096  1.0000
  C   C939      1.0  0.01459  0.50561  0.11843  1.0000
  H   H1596     1.0  0.14967  0.58353  0.01157  1.0000
  C   C940      1.0  0.13427  0.72814  0.38078  1.0000
  C   C941      1.0  0.18118  0.59770  0.00069  1.0000
  H   H1597     1.0  0.18800  0.60466  0.46681  1.0000
  S   S260      1.0  0.00188  0.51409  0.18151  1.0000
  H   H1598     1.0  0.16169  0.59536  0.04348  1.0000
  H   H1599     1.0  0.22590  0.48913  0.19903  1.0000
  H   H1600     1.0  0.01505  0.63188  0.31297  1.0000
  C   C942      1.0  0.00253  0.52233  0.14236  1.0000
  H   H1601     1.0  0.20450  0.49128  0.18613  1.0000
  H   H1602     1.0  0.21898  0.60799  0.05522  1.0000
  C   C943      1.0  0.09206  0.72070  0.41108  1.0000
  H   H1603     1.0  0.02667  0.70178  0.35470  1.0000
  H   H1604     1.0  0.09028  0.49346  0.24625  1.0000
  H   H1605     1.0  0.23935  0.54552  0.03980  1.0000
  H   H1606     1.0  0.22427  0.53408  0.16653  1.0000
  C   C944      1.0  0.04572  0.71600  0.36077  1.0000
  C   C945      1.0  0.00258  0.50811  0.28753  1.0000
  H   H1607     1.0  0.22416  0.73017  0.46065  1.0000
  H   H1608     1.0  0.10012  0.49850  0.28923  1.0000
  S   S261      1.0  0.16361  0.48981  0.25032  1.0000
  H   H1609     1.0  0.21535  0.51015  0.14468  1.0000
  H   H1610     1.0  0.10156  0.72532  0.40331  1.0000
  H   H1611     1.0  0.00387  0.68752  0.44146  1.0000
  H   H1612     1.0  0.11601  0.71384  0.32920  1.0000
  H   H1613     1.0  0.18188  0.72889  0.45971  1.0000
  S   S262      1.0  0.20312  0.48695  0.22562  1.0000
  H   H1614     1.0  0.07045  0.71847  0.40869  1.0000
  H   H1615     1.0  0.99670  0.57879  0.24639  1.0000
  H   H1616     1.0  0.22619  0.50936  0.16388  1.0000
  H   H1617     1.0  0.22055  0.55673  0.44247  1.0000
  H   H1618     1.0  0.99586  0.48973  0.25847  1.0000
  N   N66       1.0  0.00201  0.51907  0.11678  1.0000
  H   H1619     1.0  0.01313  0.51446  0.14428  1.0000
  H   H1620     1.0  0.17548  0.71583  0.43696  1.0000
  H   H1621     1.0  0.14246  0.72482  0.42515  1.0000
  H   H1622     1.0  0.99745  0.52844  0.29615  1.0000
  H   H1623     1.0  0.07899  0.70208  0.32390  1.0000
  C   C946      1.0  0.20316  0.61730  0.46715  1.0000
  C   C947      1.0  0.23878  0.69397  0.45956  1.0000
  H   H1624     1.0  0.01363  0.53329  0.12114  1.0000
  C   C948      1.0  0.99655  0.69124  0.43334  1.0000
  H   H1625     1.0  0.19484  0.50901  0.13417  1.0000
  H   H1626     1.0  0.00451  0.64807  0.26283  1.0000
  H   H1627     1.0  0.20040  0.49638  0.30078  1.0000
  S   S263      1.0  0.16238  0.59558  0.46908  1.0000
  H   H1628     1.0  0.19294  0.52285  0.19315  1.0000
  C   C949      1.0  0.07090  0.72117  0.45159  1.0000
  H   H1629     1.0  0.11745  0.48578  0.28504  1.0000
  C   C950      1.0  0.10164  0.72235  0.43116  1.0000
  H   H1630     1.0  0.04795  0.71310  0.32562  1.0000
  H   H1631     1.0  0.01752  0.49846  0.09769  1.0000
  Fe  Fe128     1.0  0.20479  0.53235  0.97926  1.0000
  S   S264      1.0  0.99586  0.55043  0.16959  1.0000
  N   N67       1.0  0.08770  0.72633  0.42513  1.0000
  H   H1632     1.0  0.12279  0.72875  0.33011  1.0000
  H   H1633     1.0  0.99557  0.55106  0.10140  1.0000
  H   H1634     1.0  0.05808  0.72991  0.36541  1.0000
  H   H1635     1.0  0.00580  0.72879  0.33156  1.0000
  H   H1636     1.0  0.14620  0.59507  0.98644  1.0000
  C   C951      1.0  0.04267  0.71329  0.33741  1.0000
  H   H1637     1.0  0.03564  0.72520  0.36035  1.0000
  H   H1638     1.0  0.00482  0.66660  0.27589  1.0000
  C   C952      1.0  0.24113  0.50086  0.04791  1.0000
  C   C953      1.0  0.00121  0.72462  0.34310  1.0000
  H   H1639     1.0  0.24111  0.49059  0.11035  1.0000
  C   C954      1.0  0.24191  0.51704  0.04040  1.0000
  H   H1640     1.0  0.16419  0.59940  0.98036  1.0000
  C   C955      1.0  0.24128  0.49917  0.11547  1.0000
  H   H1641     1.0  0.00255  0.68971  0.39718  1.0000
  H   H1642     1.0  0.14605  0.72218  0.39833  1.0000
  H   H1643     1.0  0.22295  0.48690  0.15551  1.0000
  C   C956      1.0  0.06148  0.72633  0.33696  1.0000
  H   H1644     1.0  0.99639  0.54893  0.37102  1.0000
  C   C957      1.0  0.24493  0.58790  0.08872  1.0000
  H   H1645     1.0  0.23538  0.68378  0.46093  1.0000
  H   H1646     1.0  0.15961  0.72714  0.34509  1.0000
  H   H1647     1.0  0.06533  0.71022  0.37089  1.0000
  H   H1648     1.0  0.22906  0.59713  0.01637  1.0000
  H   H1649     1.0  0.10017  0.72765  0.44040  1.0000
  C   C958      1.0  0.24194  0.52123  0.12868  1.0000
  H   H1650     1.0  0.07982  0.72324  0.45544  1.0000
  C   C959      1.0  0.23712  0.60858  0.03525  1.0000
  H   H1651     1.0  0.04846  0.71892  0.38133  1.0000
  H   H1652     1.0  0.23959  0.58063  0.01054  1.0000
  Fe  Fe129     1.0  0.01946  0.54876  0.72381  1.0000
  S   S265      1.0  0.01034  0.56646  0.73672  1.0000
  S   S266      1.0  0.04002  0.55215  0.70623  1.0000
  C   C960      1.0  0.99969  0.60171  0.59886  1.0000
  H   H1653     1.0  0.18754  0.56325  0.54178  1.0000
  S   S267      1.0  0.01871  0.53014  0.74373  1.0000
  H   H1654     1.0  0.05858  0.54298  0.80976  1.0000
  C   C961      1.0  0.17606  0.62402  0.53377  1.0000
  S   S268      1.0  0.00621  0.51008  0.84895  1.0000
  H   H1655     1.0  0.02419  0.52815  0.89838  1.0000
  C   C962      1.0  0.05428  0.53754  0.82132  1.0000
  Fe  Fe130     1.0  0.01808  0.50942  0.86628  1.0000
  S   S269      1.0  0.04345  0.50473  0.86141  1.0000
  C   C963      1.0  0.15264  0.48807  0.75070  1.0000
  H   H1656     1.0  0.01787  0.57265  0.49740  1.0000
  H   H1657     1.0  0.22801  0.59257  0.48067  1.0000
  H   H1658     1.0  0.16356  0.48751  0.75302  1.0000
  C   C964      1.0  0.99886  0.51316  0.78238  1.0000
  H   H1659     1.0  0.12389  0.49764  0.74682  1.0000
  S   S270      1.0  0.02122  0.64405  0.65981  1.0000
  H   H1660     1.0  0.08368  0.56372  0.79758  1.0000
  H   H1661     1.0  0.14893  0.68093  0.66964  1.0000
  S   S271      1.0  0.12978  0.53239  0.74010  1.0000
  S   S272      1.0  0.18221  0.57244  0.56975  1.0000
  H   H1662     1.0  0.00805  0.50068  0.92846  1.0000
  H   H1663     1.0  0.02397  0.48677  0.91293  1.0000
  Fe  Fe131     1.0  0.18006  0.59108  0.58023  1.0000
  S   S273      1.0  0.15749  0.60558  0.58687  1.0000
  H   H1664     1.0  0.01403  0.67615  0.64796  1.0000
  H   H1665     1.0  0.22380  0.62176  0.96014  1.0000
  H   H1666     1.0  0.15130  0.59378  0.52259  1.0000
  H   H1667     1.0  0.07656  0.56252  0.83765  1.0000
  S   S274      1.0  0.10085  0.55159  0.75902  1.0000
  H   H1668     1.0  0.07751  0.73107  0.65983  1.0000
  S   S275      1.0  0.13096  0.56541  0.74234  1.0000
  Fe  Fe132     1.0  0.12536  0.54457  0.75794  1.0000
  H   H1669     1.0  0.99911  0.55536  0.60607  1.0000
  Fe  Fe133     1.0  0.10651  0.57159  0.74189  1.0000
  S   S276      1.0  0.09008  0.59282  0.74489  1.0000
  S   S277      1.0  0.10911  0.56180  0.72269  1.0000
  Fe  Fe134     1.0  0.10199  0.52870  0.88438  1.0000
  S   S278      1.0  0.11011  0.54994  0.87634  1.0000
  S   S279      1.0  0.07712  0.53017  0.89353  1.0000
  Fe  Fe135     1.0  0.13213  0.51064  0.87255  1.0000
  S   S280      1.0  0.14222  0.53056  0.86291  1.0000
  H   H1670     1.0  0.06867  0.51347  0.73887  1.0000
  Fe  Fe136     1.0  0.13093  0.53697  0.88459  1.0000
  S   S281      1.0  0.14625  0.54695  0.89157  1.0000
  Fe  Fe137     1.0  0.12085  0.54173  0.85553  1.0000
  S   S282      1.0  0.11826  0.55789  0.83393  1.0000
  S   S283      1.0  0.12179  0.51632  0.89476  1.0000
  S   S284      1.0  0.11177  0.52120  0.86309  1.0000
  Fe  Fe138     1.0  0.18576  0.53852  0.95639  1.0000
  S   S285      1.0  0.20648  0.52144  0.96089  1.0000
  S   S286      1.0  0.16816  0.52956  0.95198  1.0000
  Fe  Fe139     1.0  0.19767  0.56311  0.96077  1.0000
  S   S287      1.0  0.21916  0.54785  0.96479  1.0000
  S   S288      1.0  0.19458  0.58692  0.96162  1.0000
  Fe  Fe140     1.0  0.21846  0.53899  0.94616  1.0000
  H   H1671     1.0  0.13946  0.59002  0.54637  1.0000
  H   H1672     1.0  0.05859  0.60578  0.76672  1.0000
  H   H1673     1.0  0.00614  0.52122  0.77824  1.0000
  S   S289      1.0  0.19799  0.55550  0.94070  1.0000
  H   H1674     1.0  0.03560  0.53211  0.91523  1.0000
  Fe  Fe141     1.0  0.09831  0.65517  0.64059  1.0000
  S   S290      1.0  0.09275  0.67216  0.65408  1.0000
  S   S291      1.0  0.08452  0.65658  0.62471  1.0000
  Fe  Fe142     1.0  0.12675  0.63924  0.65141  1.0000
  S   S292      1.0  0.12369  0.65477  0.66595  1.0000
  S   S293      1.0  0.14753  0.62153  0.64836  1.0000
  Fe  Fe143     1.0  0.09977  0.65267  0.67187  1.0000
  S   S294      1.0  0.08495  0.65122  0.69450  1.0000
  Fe  Fe144     1.0  0.11708  0.67261  0.64684  1.0000
  S   S295      1.0  0.12738  0.69222  0.63489  1.0000
  S   S296      1.0  0.10340  0.63556  0.65887  1.0000
  S   S297      1.0  0.12205  0.65714  0.63184  1.0000
  C   C965      1.0  0.21999  0.58095  0.97271  1.0000
  H   H1675     1.0  0.23164  0.49322  0.60036  1.0000
  H   H1676     1.0  0.04034  0.57669  0.72838  1.0000
  C   C966      1.0  0.13467  0.58556  0.64816  1.0000
  H   H1677     1.0  0.16122  0.49553  0.71291  1.0000
  H   H1678     1.0  0.11164  0.55595  0.69276  1.0000
  H   H1679     1.0  0.03247  0.48691  0.94064  1.0000
  N   N68       1.0  0.15167  0.61476  0.53942  1.0000
  C   C967      1.0  0.21081  0.60634  0.96120  1.0000
  H   H1680     1.0  0.21267  0.54184  0.91087  1.0000
  H   H1681     1.0  0.17833  0.50906  0.71492  1.0000
  H   H1682     1.0  0.24290  0.51346  0.95264  1.0000
  H   H1683     1.0  0.23760  0.50778  0.90307  1.0000
  H   H1684     1.0  0.21441  0.61064  0.52987  1.0000
  H   H1685     1.0  0.23746  0.50377  0.88652  1.0000
  C   C968      1.0  0.17576  0.56368  0.52560  1.0000
  C   C969      1.0  0.15800  0.59955  0.54776  1.0000
  H   H1686     1.0  0.01522  0.68781  0.69173  1.0000
  C   C970      1.0  0.99803  0.48656  0.79258  1.0000
  H   H1687     1.0  0.23989  0.70882  0.53716  1.0000
  H   H1688     1.0  0.15238  0.50789  0.72492  1.0000
  H   H1689     1.0  0.11807  0.62330  0.56505  1.0000
  H   H1690     1.0  0.17583  0.50222  0.73438  1.0000
  C   C971      1.0  0.01272  0.68127  0.68528  1.0000
  H   H1691     1.0  0.17660  0.53168  0.79589  1.0000
  H   H1692     1.0  0.06548  0.58667  0.77390  1.0000
  H   H1693     1.0  0.16348  0.51657  0.82096  1.0000
  C   C972      1.0  0.12401  0.70682  0.64369  1.0000
  C   C973      1.0  0.11554  0.70640  0.65812  1.0000
  C   C974      1.0  0.11269  0.71862  0.66453  1.0000
  Fe  Fe145     1.0  0.00799  0.54785  0.75659  1.0000
  Fe  Fe146     1.0  0.21244  0.48386  0.80407  1.0000
  C   C975      1.0  0.12986  0.71927  0.63582  1.0000
  H   H1694     1.0  0.11103  0.69678  0.66428  1.0000
  H   H1695     1.0  0.10591  0.71843  0.67559  1.0000
  C   C976      1.0  0.00787  0.54604  0.79328  1.0000
  H   H1696     1.0  0.13639  0.71969  0.62464  1.0000
  C   C977      1.0  0.21260  0.51388  0.63813  1.0000
  H   H1697     1.0  0.10422  0.51290  0.83732  1.0000
  H   H1698     1.0  0.16316  0.70989  0.62558  1.0000
  H   H1699     1.0  0.03907  0.56510  0.55438  1.0000
  C   C978      1.0  0.14406  0.68390  0.56356  1.0000
  H   H1700     1.0  0.12767  0.53695  0.70904  1.0000
  S   S298      1.0  0.13439  0.53069  0.77766  1.0000
  H   H1701     1.0  0.19939  0.49352  0.59336  1.0000
  C   C979      1.0  0.02022  0.56669  0.50843  1.0000
  S   S299      1.0  0.23788  0.53688  0.92698  1.0000
  C   C980      1.0  0.17292  0.50950  0.76804  1.0000
  H   H1702     1.0  0.01590  0.57958  0.70154  1.0000
  C   C981      1.0  0.14835  0.58782  0.55241  1.0000
  H   H1703     1.0  0.15862  0.62486  0.55315  1.0000
  N   N69       1.0  0.23307  0.62134  0.52472  1.0000
  C   C982      1.0  0.21124  0.55540  0.64211  1.0000
  H   H1704     1.0  0.05524  0.52560  0.82222  1.0000
  C   C983      1.0  0.17119  0.53352  0.73968  1.0000
  H   H1705     1.0  0.13537  0.68672  0.57324  1.0000
  C   C984      1.0  0.00172  0.50616  0.71937  1.0000
  H   H1706     1.0  0.99761  0.67005  0.67203  1.0000
  Fe  Fe147     1.0  0.10565  0.54118  0.73977  1.0000
  H   H1707     1.0  0.04552  0.50818  0.90292  1.0000
  C   C985      1.0  0.14995  0.51218  0.68869  1.0000
  C   C986      1.0  0.03004  0.56068  0.55311  1.0000
  H   H1708     1.0  0.15401  0.63839  0.57804  1.0000
  C   C987      1.0  0.08631  0.73092  0.63656  1.0000
  C   C988      1.0  0.15201  0.54196  0.90855  1.0000
  C   C989      1.0  0.16143  0.54984  0.91050  1.0000
  C   C990      1.0  0.16642  0.54622  0.92373  1.0000
  C   C991      1.0  0.16193  0.53475  0.93523  1.0000
  C   C992      1.0  0.15259  0.52681  0.93327  1.0000
  C   C993      1.0  0.14769  0.53034  0.91997  1.0000
  H   H1709     1.0  0.16473  0.55891  0.90176  1.0000
  H   H1710     1.0  0.17356  0.55245  0.92510  1.0000
  H   H1711     1.0  0.14908  0.51789  0.94210  1.0000
  H   H1712     1.0  0.14045  0.52420  0.91862  1.0000
  H   H1713     1.0  0.15375  0.63729  0.53688  1.0000
  C   C994      1.0  0.16378  0.68443  0.64808  1.0000
  H   H1714     1.0  0.14269  0.65355  0.60359  1.0000
  C   C995      1.0  0.00502  0.49914  0.70755  1.0000
  C   C996      1.0  0.08922  0.60848  0.73019  1.0000
  C   C997      1.0  0.09965  0.60905  0.71662  1.0000
  C   C998      1.0  0.09854  0.62213  0.70542  1.0000
  C   C999      1.0  0.08694  0.63448  0.70781  1.0000
  C   C1000     1.0  0.07655  0.63371  0.72129  1.0000
  C   C1001     1.0  0.07770  0.62082  0.73241  1.0000
  H   H1715     1.0  0.10870  0.59960  0.71494  1.0000
  H   H1716     1.0  0.10677  0.62284  0.69512  1.0000
  H   H1717     1.0  0.06764  0.64322  0.72322  1.0000
  H   H1718     1.0  0.06969  0.62052  0.74285  1.0000
  C   C1002     1.0  0.12994  0.53848  0.79312  1.0000
  C   C1003     1.0  0.13246  0.52931  0.80666  1.0000
  C   C1004     1.0  0.12881  0.53522  0.81924  1.0000
  C   C1005     1.0  0.12304  0.55036  0.81825  1.0000
  C   C1006     1.0  0.12072  0.55958  0.80464  1.0000
  C   C1007     1.0  0.12400  0.55363  0.79211  1.0000
  H   H1719     1.0  0.08416  0.53871  0.80502  1.0000
  H   H1720     1.0  0.13043  0.52809  0.82973  1.0000
  H   H1721     1.0  0.11625  0.57133  0.80384  1.0000
  H   H1722     1.0  0.12207  0.56077  0.78166  1.0000
  C   C1008     1.0  0.15476  0.60977  0.60408  1.0000
  C   C1009     1.0  0.16680  0.60699  0.61074  1.0000
  C   C1010     1.0  0.16455  0.61058  0.62438  1.0000
  C   C1011     1.0  0.15030  0.61726  0.63124  1.0000
  C   C1012     1.0  0.13826  0.62029  0.62449  1.0000
  C   C1013     1.0  0.14049  0.61646  0.61096  1.0000
  H   H1723     1.0  0.17789  0.60241  0.60525  1.0000
  H   H1724     1.0  0.17392  0.60848  0.62944  1.0000
  H   H1725     1.0  0.12717  0.62529  0.62983  1.0000
  H   H1726     1.0  0.13112  0.61859  0.60588  1.0000
  H   H1727     1.0  0.05804  0.57089  0.73329  1.0000
  C   C1014     1.0  0.18948  0.58669  0.50801  1.0000
  H   H1728     1.0  0.21575  0.53202  0.66635  1.0000
  C   C1015     1.0  0.03886  0.64710  0.64980  1.0000
  C   C1016     1.0  0.04242  0.65010  0.63436  1.0000
  C   C1017     1.0  0.05652  0.65294  0.62663  1.0000
  C   C1018     1.0  0.06701  0.65277  0.63435  1.0000
  C   C1019     1.0  0.06341  0.64973  0.64979  1.0000
  C   C1020     1.0  0.04937  0.64685  0.65749  1.0000
  H   H1729     1.0  0.03432  0.65030  0.62837  1.0000
  H   H1730     1.0  0.05929  0.65530  0.61468  1.0000
  H   H1731     1.0  0.07139  0.64969  0.65583  1.0000
  H   H1732     1.0  0.04662  0.64458  0.66944  1.0000
  H   H1733     1.0  0.07670  0.51298  0.84041  1.0000
  S   S300      1.0  0.21934  0.50279  0.65375  1.0000
  C   C1021     1.0  0.08288  0.51893  0.82985  1.0000
  H   H1734     1.0  0.22385  0.50986  0.83706  1.0000
  H   H1735     1.0  0.16728  0.51908  0.79380  1.0000
  C   C1022     1.0  0.05280  0.51231  0.86988  1.0000
  C   C1023     1.0  0.04629  0.52569  0.87437  1.0000
  C   C1024     1.0  0.05394  0.53131  0.88134  1.0000
  C   C1025     1.0  0.06826  0.52372  0.88358  1.0000
  C   C1026     1.0  0.07497  0.51062  0.87861  1.0000
  C   C1027     1.0  0.06726  0.50495  0.87178  1.0000
  H   H1736     1.0  0.03536  0.53170  0.87246  1.0000
  H   H1737     1.0  0.04875  0.54153  0.88503  1.0000
  H   H1738     1.0  0.08596  0.50463  0.88037  1.0000
  H   H1739     1.0  0.24195  0.63223  0.50240  1.0000
  H   H1740     1.0  0.20291  0.53378  0.73637  1.0000
  H   H1741     1.0  0.10646  0.51556  0.81755  1.0000
  H   H1742     1.0  0.10918  0.72509  0.61445  1.0000
  H   H1743     1.0  0.04831  0.59010  0.73122  1.0000
  C   C1028     1.0  0.05538  0.54418  0.71451  1.0000
  C   C1029     1.0  0.05631  0.53021  0.72402  1.0000
  C   C1030     1.0  0.06802  0.52427  0.73149  1.0000
  C   C1031     1.0  0.07873  0.53238  0.72961  1.0000
  C   C1032     1.0  0.07789  0.54629  0.71996  1.0000
  C   C1033     1.0  0.06634  0.55212  0.71225  1.0000
  H   H1744     1.0  0.04811  0.52387  0.72548  1.0000
  H   H1745     1.0  0.04644  0.59580  0.78112  1.0000
  H   H1746     1.0  0.08607  0.55257  0.71850  1.0000
  H   H1747     1.0  0.06562  0.56295  0.70494  1.0000
  H   H1748     1.0  0.13696  0.56934  0.67564  1.0000
  C   C1034     1.0  0.01491  0.54064  0.80523  1.0000
  C   C1035     1.0  0.00667  0.54138  0.81960  1.0000
  H   H1749     1.0  0.02677  0.53580  0.80340  1.0000
  H   H1750     1.0  0.01224  0.53734  0.82873  1.0000
  N   N70       1.0  0.01395  0.69406  0.65745  1.0000
  C   C1036     1.0  0.02534  0.70006  0.64438  1.0000
  S   S301      1.0  0.19132  0.48834  0.68976  1.0000
  H   H1751     1.0  0.23888  0.73227  0.48427  1.0000
  C   C1037     1.0  0.02199  0.68391  0.66919  1.0000
  C   C1038     1.0  0.03729  0.68852  0.63659  1.0000
  C   C1039     1.0  0.13514  0.61999  0.54517  1.0000
  C   C1040     1.0  0.00391  0.61597  0.69385  1.0000
  H   H1752     1.0  0.01971  0.70824  0.63581  1.0000
  H   H1753     1.0  0.03171  0.70617  0.64771  1.0000
  H   H1754     1.0  0.20264  0.61469  0.95579  1.0000
  C   C1041     1.0  0.23372  0.59957  0.97017  1.0000
  H   H1755     1.0  0.03250  0.68365  0.63033  1.0000
  C   C1042     1.0  0.16040  0.49715  0.72409  1.0000
  H   H1756     1.0  0.02709  0.67286  0.66642  1.0000
  H   H1757     1.0  0.03151  0.68831  0.66945  1.0000
  H   H1758     1.0  0.17334  0.49970  0.91831  1.0000
  C   C1043     1.0  0.11829  0.73122  0.65648  1.0000
  H   H1759     1.0  0.04588  0.69407  0.62837  1.0000
  C   C1044     1.0  0.19308  0.52289  0.62422  1.0000
  H   H1760     1.0  0.18185  0.52340  0.62345  1.0000
  S   S302      1.0  0.19467  0.69900  0.58205  1.0000
  H   H1761     1.0  0.06172  0.72803  0.62986  1.0000
  H   H1762     1.0  0.01427  0.58669  0.51623  1.0000
  H   H1763     1.0  0.05786  0.55179  0.83280  1.0000
  C   C1045     1.0  0.20775  0.52468  0.74478  1.0000
  H   H1764     1.0  0.14497  0.51112  0.84422  1.0000
  H   H1765     1.0  0.99700  0.71405  0.65360  1.0000
  H   H1766     1.0  0.19191  0.53362  0.77135  1.0000
  C   C1046     1.0  0.01069  0.57597  0.51985  1.0000
  H   H1767     1.0  0.02817  0.49919  0.89503  1.0000
  H   H1768     1.0  0.18487  0.54001  0.88703  1.0000
  H   H1769     1.0  0.21482  0.49153  0.90179  1.0000
  H   H1770     1.0  0.24174  0.59838  0.93915  1.0000
  H   H1771     1.0  0.19028  0.51019  0.64658  1.0000
  C   C1047     1.0  0.20952  0.59158  0.96542  1.0000
  C   C1048     1.0  0.19338  0.49452  0.60474  1.0000
  H   H1772     1.0  0.01746  0.55573  0.51080  1.0000
  C   C1049     1.0  0.08837  0.70825  0.62875  1.0000
  H   H1773     1.0  0.20262  0.49255  0.94005  1.0000
  S   S303      1.0  0.21071  0.66555  0.48787  1.0000
  H   H1774     1.0  0.01467  0.59119  0.54975  1.0000
  H   H1775     1.0  0.18245  0.49576  0.78711  1.0000
  H   H1776     1.0  0.01482  0.49675  0.76419  1.0000
  H   H1777     1.0  0.00890  0.54365  0.91722  1.0000
  C   C1050     1.0  0.20920  0.54523  0.50347  1.0000
  H   H1778     1.0  0.22490  0.49837  0.94181  1.0000
  H   H1779     1.0  0.02684  0.61577  0.68375  1.0000
  C   C1051     1.0  0.03323  0.50108  0.76976  1.0000
  C   C1052     1.0  0.17264  0.52851  0.78769  1.0000
  N   N71       1.0  0.15497  0.48456  0.73585  1.0000
  H   H1780     1.0  0.19033  0.54128  0.64619  1.0000
  H   H1781     1.0  0.24223  0.62373  0.57130  1.0000
  H   H1782     1.0  0.14340  0.58601  0.56446  1.0000
  H   H1783     1.0  0.22521  0.49432  0.58415  1.0000
  C   C1053     1.0  0.99636  0.48954  0.70762  1.0000
  N   N72       1.0  0.08582  0.72492  0.62388  1.0000
  H   H1784     1.0  0.20983  0.57428  0.62273  1.0000
  C   C1054     1.0  0.23602  0.54899  0.47919  1.0000
  H   H1785     1.0  0.11744  0.49407  0.73282  1.0000
  S   S304      1.0  0.15153  0.55200  0.70429  1.0000
  H   H1786     1.0  0.18240  0.61243  0.53596  1.0000
  C   C1055     1.0  0.22711  0.62425  0.54007  1.0000
  H   H1787     1.0  0.17052  0.55470  0.53240  1.0000
  H   H1788     1.0  0.18104  0.62795  0.57269  1.0000
  H   H1789     1.0  0.99580  0.56385  0.62865  1.0000
  H   H1790     1.0  0.15570  0.57699  0.55067  1.0000
  H   H1791     1.0  0.15315  0.68911  0.58468  1.0000
  C   C1056     1.0  0.07064  0.73147  0.62030  1.0000
  H   H1792     1.0  0.16016  0.69842  0.61508  1.0000
  N   N73       1.0  0.24009  0.70530  0.50596  1.0000
  H   H1793     1.0  0.22324  0.61452  0.54795  1.0000
  N   N74       1.0  0.20836  0.50538  0.91768  1.0000
  H   H1794     1.0  0.14214  0.59518  0.67114  1.0000
  C   C1057     1.0  0.21154  0.51884  0.92018  1.0000
  H   H1795     1.0  0.23175  0.59304  0.92036  1.0000
  H   H1796     1.0  0.23589  0.58976  0.53215  1.0000
  H   H1797     1.0  0.12725  0.51475  0.70130  1.0000
  S   S305      1.0  0.00002  0.64454  0.59499  1.0000
  S   S306      1.0  0.99698  0.66266  0.62831  1.0000
  H   H1798     1.0  0.10678  0.69940  0.61177  1.0000
  H   H1799     1.0  0.20830  0.55356  0.50970  1.0000
  H   H1800     1.0  0.14656  0.58275  0.68756  1.0000
  C   C1058     1.0  0.00771  0.55403  0.54055  1.0000
  H   H1801     1.0  0.20454  0.52136  0.93091  1.0000
  H   H1802     1.0  0.22892  0.73106  0.58800  1.0000
  H   H1803     1.0  0.23627  0.49039  0.92636  1.0000
  H   H1804     1.0  0.21191  0.51043  0.89371  1.0000
  C   C1059     1.0  0.16593  0.65347  0.63840  1.0000
  H   H1805     1.0  0.16885  0.69137  0.65192  1.0000
  H   H1806     1.0  0.11782  0.65646  0.59914  1.0000
  H   H1807     1.0  0.19472  0.59567  0.50121  1.0000
  H   H1808     1.0  0.18847  0.49478  0.87951  1.0000
  H   H1809     1.0  0.21850  0.56981  0.97705  1.0000
  H   H1810     1.0  0.17493  0.66781  0.61852  1.0000
  H   H1811     1.0  0.22775  0.64414  0.51256  1.0000
  Fe  Fe148     1.0  0.99613  0.64395  0.61912  1.0000
  H   H1812     1.0  0.20515  0.63734  0.51574  1.0000
  H   H1813     1.0  0.00735  0.60020  0.53323  1.0000
  H   H1814     1.0  0.21802  0.63209  0.49942  1.0000
  C   C1060     1.0  0.23115  0.48680  0.59274  1.0000
  N   N75       1.0  0.19590  0.55892  0.65184  1.0000
  C   C1061     1.0  0.19718  0.51407  0.75312  1.0000
  H   H1815     1.0  0.13489  0.61068  0.56893  1.0000
  C   C1062     1.0  0.17771  0.56147  0.63500  1.0000
  H   H1816     1.0  0.08851  0.70276  0.60781  1.0000
  S   S307      1.0  0.22484  0.68320  0.56078  1.0000
  H   H1817     1.0  0.24233  0.57637  0.47921  1.0000
  H   H1818     1.0  0.01861  0.58274  0.79301  1.0000
  C   C1063     1.0  0.00674  0.49344  0.81562  1.0000
  H   H1819     1.0  0.06570  0.55184  0.85341  1.0000
  H   H1820     1.0  0.18624  0.55380  0.67538  1.0000
  N   N76       1.0  0.18878  0.52300  0.85799  1.0000
  C   C1064     1.0  0.18495  0.52542  0.87352  1.0000
  C   C1065     1.0  0.18301  0.50969  0.85877  1.0000
  C   C1066     1.0  0.18098  0.53674  0.84857  1.0000
  C   C1067     1.0  0.20551  0.52059  0.85247  1.0000
  H   H1821     1.0  0.01094  0.51682  0.90470  1.0000
  H   H1822     1.0  0.21623  0.72987  0.63727  1.0000
  S   S308      1.0  0.09281  0.52503  0.73970  1.0000
  C   C1068     1.0  0.21209  0.51608  0.83745  1.0000
  H   H1823     1.0  0.17284  0.52572  0.87856  1.0000
  H   H1824     1.0  0.19116  0.51614  0.88079  1.0000
  H   H1825     1.0  0.18405  0.50788  0.84770  1.0000
  H   H1826     1.0  0.17080  0.51146  0.86368  1.0000
  H   H1827     1.0  0.16989  0.54155  0.85505  1.0000
  H   H1828     1.0  0.18744  0.54558  0.84511  1.0000
  H   H1829     1.0  0.20931  0.53086  0.85117  1.0000
  H   H1830     1.0  0.21152  0.51241  0.86074  1.0000
  C   C1069     1.0  0.20876  0.55196  0.48704  1.0000
  C   C1070     1.0  0.01500  0.50575  0.93230  1.0000
  C   C1071     1.0  0.00286  0.70723  0.66251  1.0000
  H   H1831     1.0  0.09441  0.68740  0.62171  1.0000
  H   H1832     1.0  0.01869  0.50786  0.79768  1.0000
  H   H1833     1.0  0.03524  0.55942  0.53053  1.0000
  C   C1072     1.0  0.12769  0.65530  0.58979  1.0000
  H   H1834     1.0  0.19026  0.66395  0.54956  1.0000
  H   H1835     1.0  0.20453  0.55702  0.67100  1.0000
  H   H1836     1.0  0.03340  0.54840  0.55531  1.0000
  H   H1837     1.0  0.20651  0.50839  0.83555  1.0000
  C   C1073     1.0  0.22667  0.71643  0.50128  1.0000
  N   N77       1.0  0.02303  0.59537  0.68163  1.0000
  H   H1838     1.0  0.22635  0.69587  0.52645  1.0000
  C   C1074     1.0  0.03920  0.58750  0.68073  1.0000
  C   C1075     1.0  0.01323  0.58466  0.69045  1.0000
  C   C1076     1.0  0.01927  0.60254  0.66671  1.0000
  H   H1839     1.0  0.16819  0.52956  0.83739  1.0000
  C   C1077     1.0  0.05073  0.59703  0.67193  1.0000
  C   C1078     1.0  0.01368  0.57206  0.68334  1.0000
  C   C1079     1.0  0.02623  0.59372  0.65433  1.0000
  H   H1840     1.0  0.18354  0.48940  0.60807  1.0000
  H   H1841     1.0  0.17035  0.50696  0.75867  1.0000
  H   H1842     1.0  0.04212  0.57754  0.67609  1.0000
  H   H1843     1.0  0.04145  0.58294  0.69204  1.0000
  H   H1844     1.0  0.08092  0.71321  0.65619  1.0000
  H   H1845     1.0  0.00131  0.59045  0.69254  1.0000
  H   H1846     1.0  0.00692  0.60537  0.66781  1.0000
  H   H1847     1.0  0.02272  0.61334  0.66232  1.0000
  C   C1080     1.0  0.09482  0.69917  0.61664  1.0000
  H   H1848     1.0  0.20269  0.49178  0.86292  1.0000
  C   C1081     1.0  0.03246  0.49260  0.90497  1.0000
  H   H1849     1.0  0.06201  0.58967  0.67004  1.0000
  H   H1850     1.0  0.04852  0.60328  0.66096  1.0000
  H   H1851     1.0  0.05118  0.60487  0.67820  1.0000
  H   H1852     1.0  0.02499  0.56500  0.68078  1.0000
  H   H1853     1.0  0.00878  0.57634  0.67343  1.0000
  H   H1854     1.0  0.00657  0.56470  0.69124  1.0000
  H   H1855     1.0  0.01726  0.59332  0.64929  1.0000
  H   H1856     1.0  0.03207  0.58215  0.65780  1.0000
  H   H1857     1.0  0.03411  0.59953  0.64531  1.0000
  S   S309      1.0  0.18150  0.66243  0.52389  1.0000
  Fe  Fe149     1.0  0.23739  0.69386  0.56984  1.0000
  H   H1858     1.0  0.21524  0.54326  0.64300  1.0000
  H   H1859     1.0  0.21822  0.51837  0.73882  1.0000
  H   H1860     1.0  0.18823  0.68516  0.61451  1.0000
  H   H1861     1.0  0.03007  0.51295  0.77010  1.0000
  H   H1862     1.0  0.16476  0.66599  0.66790  1.0000
  H   H1863     1.0  0.21200  0.52596  0.82818  1.0000
  H   H1864     1.0  0.01309  0.49488  0.82295  1.0000
  C   C1082     1.0  0.21723  0.52906  0.61318  1.0000
  H   H1865     1.0  0.09731  0.55538  0.68465  1.0000
  H   H1866     1.0  0.05716  0.53390  0.84345  1.0000
  S   S310      1.0  0.00647  0.62601  0.63608  1.0000
  C   C1083     1.0  0.18070  0.68958  0.62411  1.0000
  H   H1867     1.0  0.22740  0.60779  0.51325  1.0000
  S   S311      1.0  0.22609  0.68605  0.59348  1.0000
  N   N78       1.0  0.01156  0.56904  0.53574  1.0000
  C   C1084     1.0  0.20093  0.65960  0.63162  1.0000
  H   H1868     1.0  0.09952  0.72442  0.60167  1.0000
  H   H1869     1.0  0.19607  0.48743  0.62718  1.0000
  H   H1870     1.0  0.13692  0.57335  0.65136  1.0000
  H   H1871     1.0  0.20186  0.60835  0.59319  1.0000
  H   H1872     1.0  0.17583  0.64370  0.55875  1.0000
  H   H1873     1.0  0.16417  0.53813  0.78360  1.0000
  H   H1874     1.0  0.20214  0.53086  0.68325  1.0000
  N   N79       1.0  0.04697  0.57603  0.76250  1.0000
  C   C1085     1.0  0.06171  0.56491  0.76148  1.0000
  C   C1086     1.0  0.05004  0.59128  0.75907  1.0000
  C   C1087     1.0  0.03863  0.57551  0.75160  1.0000
  C   C1088     1.0  0.03766  0.57233  0.77790  1.0000
  C   C1089     1.0  0.06112  0.54896  0.76184  1.0000
  C   C1090     1.0  0.05541  0.59488  0.77104  1.0000
  C   C1091     1.0  0.04697  0.57850  0.73525  1.0000
  H   H1875     1.0  0.04318  0.67963  0.64439  1.0000
  H   H1876     1.0  0.06996  0.56854  0.75128  1.0000
  H   H1877     1.0  0.06692  0.56411  0.77070  1.0000
  H   H1878     1.0  0.04007  0.60005  0.75670  1.0000
  H   H1879     1.0  0.05875  0.59302  0.74871  1.0000
  H   H1880     1.0  0.03542  0.56469  0.75426  1.0000
  H   H1881     1.0  0.02783  0.58380  0.75233  1.0000
  H   H1882     1.0  0.03571  0.56103  0.78041  1.0000
  H   H1883     1.0  0.04367  0.57160  0.78650  1.0000
  H   H1884     1.0  0.05783  0.54826  0.75198  1.0000
  H   H1885     1.0  0.07245  0.54177  0.76175  1.0000
  H   H1886     1.0  0.05365  0.54405  0.77194  1.0000
  C   C1092     1.0  0.01668  0.52318  0.90845  1.0000
  C   C1093     1.0  0.01961  0.49379  0.77419  1.0000
  C   C1094     1.0  0.12711  0.73137  0.64223  1.0000
  S   S312      1.0  0.21876  0.56717  0.56535  1.0000
  H   H1887     1.0  0.15228  0.69105  0.56039  1.0000
  H   H1888     1.0  0.16687  0.61144  0.51863  1.0000
  C   C1095     1.0  0.19054  0.49486  0.86764  1.0000
  H   H1889     1.0  0.23350  0.52026  0.62685  1.0000
  H   H1890     1.0  0.13473  0.60876  0.52162  1.0000
  H   H1891     1.0  0.18759  0.69473  0.62796  1.0000
  H   H1892     1.0  0.06997  0.56479  0.81395  1.0000
  H   H1893     1.0  0.17139  0.65736  0.59326  1.0000
  C   C1096     1.0  0.19729  0.55186  0.66761  1.0000
  S   S313      1.0  0.16181  0.56333  0.50469  1.0000
  H   H1894     1.0  0.16284  0.63730  0.59236  1.0000
  H   H1895     1.0  0.99926  0.54286  0.90420  1.0000
  Fe  Fe150     1.0  0.13305  0.55375  0.72447  1.0000
  C   C1097     1.0  0.22619  0.49003  0.93537  1.0000
  C   C1098     1.0  0.08470  0.53815  0.84078  1.0000
  C   C1099     1.0  0.16563  0.66585  0.58495  1.0000
  N   N80       1.0  0.18270  0.52061  0.76259  1.0000
  H   H1896     1.0  0.18520  0.64495  0.57215  1.0000
  C   C1100     1.0  0.17327  0.57010  0.51135  1.0000
  H   H1897     1.0  0.08200  0.60935  0.68440  1.0000
  H   H1898     1.0  0.21915  0.57050  0.49527  1.0000
  H   H1899     1.0  0.00705  0.54967  0.55263  1.0000
  C   C1101     1.0  0.16142  0.64357  0.58107  1.0000
  C   C1102     1.0  0.17674  0.64011  0.57047  1.0000
  H   H1900     1.0  0.17231  0.51319  0.67621  1.0000
  H   H1901     1.0  0.15246  0.67716  0.60295  1.0000
  H   H1902     1.0  0.22318  0.51695  0.92126  1.0000
  S   S314      1.0  0.01875  0.54486  0.77551  1.0000
  C   C1103     1.0  0.17933  0.49451  0.77740  1.0000
  C   C1104     1.0  0.23486  0.69221  0.51690  1.0000
  C   C1105     1.0  0.14032  0.66037  0.59276  1.0000
  Fe  Fe151     1.0  0.00505  0.64448  0.64663  1.0000
  H   H1903     1.0  0.17291  0.64503  0.63202  1.0000
  C   C1106     1.0  0.17560  0.58068  0.66055  1.0000
  N   N81       1.0  0.15464  0.65972  0.58105  1.0000
  H   H1904     1.0  0.13531  0.67169  0.59467  1.0000
  H   H1905     1.0  0.13074  0.64350  0.58924  1.0000
  C   C1107     1.0  0.13045  0.62109  0.56154  1.0000
  H   H1906     1.0  0.00309  0.70492  0.58056  1.0000
  C   C1108     1.0  0.18531  0.56857  0.53095  1.0000
  C   C1109     1.0  0.09965  0.51152  0.82856  1.0000
  H   H1907     1.0  0.13398  0.63039  0.56326  1.0000
  H   H1908     1.0  0.19934  0.54016  0.50884  1.0000
  H   H1909     1.0  0.23948  0.71864  0.62568  1.0000
  C   C1110     1.0  0.16812  0.66913  0.62968  1.0000
  H   H1910     1.0  0.17209  0.59292  0.65721  1.0000
  H   H1911     1.0  0.16557  0.56571  0.63890  1.0000
  H   H1912     1.0  0.21950  0.55896  0.64578  1.0000
  C   C1111     1.0  0.06193  0.53998  0.83227  1.0000
  C   C1112     1.0  0.03248  0.52283  0.92455  1.0000
  C   C1113     1.0  0.15204  0.66744  0.56583  1.0000
  H   H1913     1.0  0.16283  0.66710  0.55760  1.0000
  H   H1914     1.0  0.14608  0.66144  0.56184  1.0000
  C   C1114     1.0  0.01533  0.49721  0.79941  1.0000
  C   C1115     1.0  0.15529  0.50315  0.84194  1.0000
  H   H1915     1.0  0.01360  0.57821  0.77838  1.0000
  H   H1916     1.0  0.18734  0.48606  0.92651  1.0000
  H   H1917     1.0  0.16824  0.65000  0.64957  1.0000
  H   H1918     1.0  0.19019  0.63222  0.60075  1.0000
  H   H1919     1.0  0.22756  0.48838  0.62707  1.0000
  C   C1116     1.0  0.22177  0.61624  0.52007  1.0000
  H   H1920     1.0  0.12401  0.66227  0.57965  1.0000
  H   H1921     1.0  0.19597  0.68433  0.55630  1.0000
  C   C1117     1.0  0.15945  0.67970  0.59164  1.0000
  S   S315      1.0  0.19734  0.60081  0.56227  1.0000
  H   H1922     1.0  0.17401  0.70926  0.60755  1.0000
  S   S316      1.0  0.20091  0.71925  0.60865  1.0000
  S   S317      1.0  0.18348  0.65133  0.48633  1.0000
  H   H1923     1.0  0.01537  0.72476  0.65734  1.0000
  Fe  Fe152     1.0  0.20584  0.48587  0.66756  1.0000
  H   H1924     1.0  0.13804  0.68667  0.55449  1.0000
  H   H1925     1.0  0.21686  0.64818  0.53524  1.0000
  C   C1118     1.0  0.14708  0.60575  0.51844  1.0000
  H   H1926     1.0  0.24411  0.68446  0.52189  1.0000
  H   H1927     1.0  0.24040  0.48798  0.85079  1.0000
  H   H1928     1.0  0.02148  0.59407  0.77501  1.0000
  C   C1119     1.0  0.18494  0.55253  0.64826  1.0000
  H   H1929     1.0  0.17757  0.62857  0.52168  1.0000
  C   C1120     1.0  0.16577  0.50615  0.82875  1.0000
  H   H1930     1.0  0.06413  0.71693  0.61049  1.0000
  Fe  Fe153     1.0  0.16162  0.57209  0.48057  1.0000
  C   C1121     1.0  0.22214  0.52115  0.62620  1.0000
  H   H1931     1.0  0.17466  0.66854  0.57513  1.0000
  C   C1122     1.0  0.18972  0.67462  0.54205  1.0000
  H   H1932     1.0  0.13824  0.48469  0.77268  1.0000
  H   H1933     1.0  0.04212  0.54246  0.82417  1.0000
  H   H1934     1.0  0.07955  0.51629  0.82091  1.0000
  H   H1935     1.0  0.18874  0.71282  0.51479  1.0000
  C   C1123     1.0  0.24439  0.59379  0.53483  1.0000
  H   H1936     1.0  0.00051  0.68338  0.68653  1.0000
  C   C1124     1.0  0.13715  0.51933  0.69739  1.0000
  H   H1937     1.0  0.04979  0.52330  0.93491  1.0000
  H   H1938     1.0  0.18263  0.57081  0.62788  1.0000
  H   H1939     1.0  0.09415  0.56960  0.69432  1.0000
  C   C1125     1.0  0.17768  0.53505  0.83448  1.0000
  C   C1126     1.0  0.19317  0.68613  0.54578  1.0000
  H   H1940     1.0  0.17064  0.48782  0.78172  1.0000
  C   C1127     1.0  0.07673  0.72515  0.65182  1.0000
  H   H1941     1.0  0.10203  0.58978  0.69427  1.0000
  H   H1942     1.0  0.21069  0.63840  0.55361  1.0000
  H   H1943     1.0  0.10064  0.57722  0.66557  1.0000
  H   H1944     1.0  0.00377  0.59108  0.60556  1.0000
  H   H1945     1.0  0.12478  0.57219  0.69250  1.0000
  H   H1946     1.0  0.00162  0.69322  0.59906  1.0000
  C   C1128     1.0  0.16865  0.70236  0.61785  1.0000
  H   H1947     1.0  0.15703  0.67580  0.62776  1.0000
  C   C1129     1.0  0.20358  0.53495  0.67110  1.0000
  H   H1948     1.0  0.20653  0.66740  0.62239  1.0000
  C   C1130     1.0  0.18585  0.67688  0.52853  1.0000
  C   C1131     1.0  0.19225  0.58001  0.52209  1.0000
  H   H1949     1.0  0.23954  0.48880  0.90231  1.0000
  C   C1132     1.0  0.10941  0.57266  0.67217  1.0000
  C   C1133     1.0  0.13718  0.58901  0.68209  1.0000
  C   C1134     1.0  0.10421  0.59510  0.68228  1.0000
  C   C1135     1.0  0.08900  0.60113  0.67776  1.0000
  Fe  Fe154     1.0  0.20111  0.58099  0.55300  1.0000
  H   H1950     1.0  0.10841  0.60499  0.68151  1.0000
  H   H1951     1.0  0.09016  0.60696  0.66599  1.0000
  C   C1136     1.0  0.12869  0.57804  0.68096  1.0000
  C   C1137     1.0  0.21285  0.56203  0.62545  1.0000
  H   H1952     1.0  0.22686  0.72184  0.52689  1.0000
  H   H1953     1.0  0.15419  0.69206  0.64365  1.0000
  H   H1954     1.0  0.16900  0.68342  0.59275  1.0000
  C   C1138     1.0  0.21393  0.63756  0.54184  1.0000
  H   H1955     1.0  0.07784  0.70485  0.63548  1.0000
  N   N82       1.0  0.11578  0.58482  0.67337  1.0000
  H   H1956     1.0  0.16283  0.52672  0.74204  1.0000
  H   H1957     1.0  0.11806  0.56482  0.66605  1.0000
  H   H1958     1.0  0.00009  0.72540  0.67288  1.0000
  C   C1139     1.0  0.20277  0.52968  0.61209  1.0000
  H   H1959     1.0  0.24284  0.72714  0.52756  1.0000
  H   H1960     1.0  0.18891  0.50650  0.60450  1.0000
  C   C1140     1.0  0.23081  0.62566  0.57755  1.0000
  H   H1961     1.0  0.99859  0.61992  0.68424  1.0000
  H   H1962     1.0  0.08280  0.59231  0.68011  1.0000
  H   H1963     1.0  0.21817  0.69024  0.50607  1.0000
  H   H1964     1.0  0.13000  0.59689  0.68899  1.0000
  S   S318      1.0  0.00521  0.49365  0.88332  1.0000
  S   S319      1.0  0.00282  0.52968  0.87351  1.0000
  C   C1141     1.0  0.12079  0.59363  0.65801  1.0000
  S   S320      1.0  0.19590  0.57818  0.59496  1.0000
  S   S321      1.0  0.20461  0.58598  0.52829  1.0000
  C   C1142     1.0  0.19290  0.69991  0.53592  1.0000
  S   S322      1.0  0.99734  0.54844  0.72033  1.0000
  C   C1143     1.0  0.22906  0.73217  0.49367  1.0000
  C   C1144     1.0  0.10278  0.56302  0.68692  1.0000
  S   S323      1.0  0.19722  0.53695  0.59518  1.0000
  C   C1145     1.0  0.19794  0.51514  0.63724  1.0000
  H   H1965     1.0  0.12341  0.60397  0.65858  1.0000
  H   H1966     1.0  0.03928  0.50023  0.75829  1.0000
  C   C1146     1.0  0.23223  0.58486  0.97487  1.0000
  Fe  Fe155     1.0  0.19951  0.56012  0.58314  1.0000
  H   H1967     1.0  0.11162  0.59735  0.65192  1.0000
  C   C1147     1.0  0.19178  0.50863  0.91840  1.0000
  C   C1148     1.0  0.15472  0.61526  0.52312  1.0000
  H   H1968     1.0  0.18136  0.52926  0.73183  1.0000
  H   H1969     1.0  0.23827  0.54804  0.49017  1.0000
  Fe  Fe156     1.0  0.20980  0.70778  0.58969  1.0000
  H   H1970     1.0  0.13320  0.58876  0.63660  1.0000
  H   H1971     1.0  0.18125  0.54981  0.86947  1.0000
  C   C1149     1.0  0.20148  0.63049  0.59415  1.0000
  H   H1972     1.0  0.01628  0.66948  0.69077  1.0000
  S   S324      1.0  0.20069  0.65861  0.59515  1.0000
  H   H1973     1.0  0.14476  0.58934  0.64775  1.0000
  C   C1150     1.0  0.04691  0.51535  0.93033  1.0000
  C   C1151     1.0  0.18556  0.69067  0.51874  1.0000
  C   C1152     1.0  0.15657  0.67410  0.66184  1.0000
  N   N83       1.0  0.17507  0.67732  0.63625  1.0000
  H   H1974     1.0  0.14945  0.66849  0.65901  1.0000
  H   H1975     1.0  0.15416  0.65287  0.63974  1.0000
  H   H1976     1.0  0.13708  0.51758  0.80749  1.0000
  H   H1977     1.0  0.99562  0.60036  0.55117  1.0000
  C   C1153     1.0  0.20806  0.61697  0.58989  1.0000
  H   H1978     1.0  0.22475  0.55883  0.61982  1.0000
  H   H1979     1.0  0.09796  0.72851  0.63803  1.0000
  C   C1154     1.0  0.23370  0.50046  0.89872  1.0000
  H   H1980     1.0  0.16615  0.54476  0.73393  1.0000
  H   H1981     1.0  0.08365  0.55352  0.85386  1.0000
  H   H1982     1.0  0.09641  0.70399  0.63616  1.0000
  H   H1983     1.0  0.18509  0.65903  0.65224  1.0000
  C   C1155     1.0  0.20940  0.64177  0.58979  1.0000
  Fe  Fe157     1.0  0.21352  0.58649  0.57598  1.0000
  Fe  Fe158     1.0  0.21184  0.67778  0.58407  1.0000
  C   C1156     1.0  0.07707  0.55241  0.84654  1.0000
  C   C1157     1.0  0.22279  0.61033  0.96366  1.0000
  C   C1158     1.0  0.21153  0.62794  0.51057  1.0000
  H   H1984     1.0  0.20377  0.50464  0.75999  1.0000
  H   H1985     1.0  0.16026  0.60033  0.55816  1.0000
  C   C1159     1.0  0.21659  0.50209  0.90277  1.0000
  H   H1986     1.0  0.20964  0.65231  0.63757  1.0000
  H   H1987     1.0  0.13098  0.63113  0.53850  1.0000
  C   C1160     1.0  0.18830  0.66766  0.64245  1.0000
  H   H1988     1.0  0.21097  0.52933  0.75239  1.0000
  C   C1161     1.0  0.99702  0.62838  0.59232  1.0000
  S   S325      1.0  0.18304  0.54801  0.97609  1.0000
  H   H1989     1.0  0.18254  0.69262  0.50835  1.0000
  H   H1990     1.0  0.19688  0.65243  0.62715  1.0000
  H   H1991     1.0  0.19337  0.67435  0.64661  1.0000
  C   C1162     1.0  0.15043  0.53744  0.69737  1.0000
  C   C1163     1.0  0.13743  0.53188  0.70184  1.0000
  C   C1164     1.0  0.99777  0.70437  0.59240  1.0000
  H   H1992     1.0  0.07245  0.49467  0.86819  1.0000
  H   H1993     1.0  0.19934  0.57954  0.65364  1.0000
  S   S326      1.0  0.23110  0.59737  0.57678  1.0000
  C   C1165     1.0  0.09821  0.72939  0.61110  1.0000
  C   C1166     1.0  0.22278  0.61446  0.58177  1.0000
  H   H1994     1.0  0.02426  0.52817  0.93329  1.0000
  C   C1167     1.0  0.18008  0.58168  0.50260  1.0000
  H   H1995     1.0  0.02391  0.60252  0.70072  1.0000
  H   H1996     1.0  0.22482  0.53415  0.60379  1.0000
  H   H1997     1.0  0.12848  0.61290  0.54393  1.0000
  C   C1168     1.0  0.22404  0.63942  0.58138  1.0000
  H   H1998     1.0  0.16197  0.51403  0.77464  1.0000
  H   H1999     1.0  0.19054  0.58171  0.63933  1.0000
  Fe  Fe159     1.0  0.20861  0.70508  0.55953  1.0000
  C   C1169     1.0  0.08184  0.55998  0.80979  1.0000
  H   H2000     1.0  0.18536  0.51194  0.92895  1.0000
  H   H2001     1.0  0.08380  0.52902  0.85081  1.0000
  S   S327      1.0  0.23187  0.48459  0.75031  1.0000
  C   C1170     1.0  0.19097  0.57542  0.65073  1.0000
  H   H2002     1.0  0.23602  0.67759  0.50242  1.0000
  H   H2003     1.0  0.00834  0.51369  0.71917  1.0000
  H   H2004     1.0  0.21925  0.53628  0.50484  1.0000
  H   H2005     1.0  0.00710  0.61390  0.61000  1.0000
  H   H2006     1.0  0.16345  0.53884  0.76090  1.0000
  H   H2007     1.0  0.17866  0.55401  0.62771  1.0000
  C   C1171     1.0  0.17450  0.53466  0.75402  1.0000
  H   H2008     1.0  0.18063  0.54370  0.75116  1.0000
  H   H2009     1.0  0.09683  0.53816  0.83688  1.0000
  H   H2010     1.0  0.15005  0.60756  0.50619  1.0000
  H   H2011     1.0  0.23594  0.57640  0.91327  1.0000
  H   H2012     1.0  0.17552  0.55084  0.65799  1.0000
  H   H2013     1.0  0.04492  0.49463  0.91927  1.0000
  H   H2014     1.0  0.23024  0.64807  0.57808  1.0000
  H   H2015     1.0  0.20011  0.53999  0.87137  1.0000
  H   H2016     1.0  0.17821  0.58670  0.49164  1.0000
  H   H2017     1.0  0.01697  0.71170  0.67476  1.0000
  H   H2018     1.0  0.24129  0.59399  0.54671  1.0000
  H   H2019     1.0  0.03134  0.57760  0.53262  1.0000
  H   H2020     1.0  0.04583  0.50535  0.93920  1.0000
  S   S328      1.0  0.19805  0.71413  0.54001  1.0000
  C   C1172     1.0  0.00499  0.59347  0.54462  1.0000
  H   H2021     1.0  0.17287  0.53509  0.68443  1.0000
  H   H2022     1.0  0.12910  0.50690  0.72772  1.0000
  H   H2023     1.0  0.08900  0.56473  0.81366  1.0000
  H   H2024     1.0  0.23610  0.62573  0.54440  1.0000
  H   H2025     1.0  0.09831  0.54002  0.81234  1.0000
  H   H2026     1.0  0.99708  0.60933  0.70320  1.0000
  Fe  Fe160     1.0  0.18670  0.66601  0.49909  1.0000
  H   H2027     1.0  0.19707  0.53748  0.90787  1.0000
  H   H2028     1.0  0.00653  0.51408  0.93799  1.0000
  C   C1173     1.0  0.18811  0.53966  0.87516  1.0000
  C   C1174     1.0  0.23835  0.72307  0.61401  1.0000
  C   C1175     1.0  0.16285  0.53087  0.68786  1.0000
  C   C1176     1.0  0.18898  0.70219  0.52245  1.0000
  H   H2029     1.0  0.16678  0.57594  0.65943  1.0000
  H   H2030     1.0  0.20401  0.63613  0.53911  1.0000
  H   H2031     1.0  0.16908  0.59481  0.54133  1.0000
  S   S329      1.0  0.19357  0.50191  0.81130  1.0000
  H   H2032     1.0  0.21990  0.58015  0.92764  1.0000
  H   H2033     1.0  0.18845  0.51812  0.90945  1.0000
  C   C1177     1.0  0.22779  0.68325  0.51083  1.0000
  H   H2034     1.0  0.21695  0.71744  0.51076  1.0000
  H   H2035     1.0  0.03236  0.56531  0.50741  1.0000
  H   H2036     1.0  0.20342  0.62264  0.50884  1.0000
  C   C1178     1.0  0.15935  0.62568  0.54125  1.0000
  H   H2037     1.0  0.18104  0.63057  0.53810  1.0000
  S   S330      1.0  0.14656  0.48821  0.87007  1.0000
  H   H2038     1.0  0.19035  0.49264  0.90657  1.0000
  N   N84       1.0  0.07876  0.53540  0.82906  1.0000
  C   C1179     1.0  0.08595  0.54294  0.81385  1.0000
  S   S331      1.0  0.22213  0.71633  0.56674  1.0000
  H   H2039     1.0  0.01670  0.54575  0.53522  1.0000
  H   H2040     1.0  0.22346  0.67458  0.52006  1.0000
  C   C1180     1.0  0.17948  0.49618  0.82610  1.0000
  H   H2041     1.0  0.23507  0.57711  0.94532  1.0000
  H   H2042     1.0  0.22264  0.71267  0.49348  1.0000
  H   H2043     1.0  0.20856  0.58088  0.48180  1.0000
  H   H2044     1.0  0.19511  0.50924  0.74489  1.0000
  H   H2045     1.0  0.10107  0.49943  0.82987  1.0000
  H   H2046     1.0  0.15151  0.62687  0.51689  1.0000
  H   H2047     1.0  0.19425  0.51484  0.78053  1.0000
  C   C1181     1.0  0.02196  0.58245  0.78110  1.0000
  H   H2048     1.0  0.00185  0.71228  0.59592  1.0000
  C   C1182     1.0  0.21184  0.49212  0.92997  1.0000
  C   C1183     1.0  0.16260  0.51831  0.68344  1.0000
  C   C1184     1.0  0.18618  0.52421  0.77531  1.0000
  H   H2049     1.0  0.07753  0.72723  0.59765  1.0000
  C   C1185     1.0  0.02020  0.60728  0.69007  1.0000
  H   H2050     1.0  0.19767  0.55968  0.48668  1.0000
  H   H2051     1.0  0.01410  0.48651  0.95044  1.0000
  C   C1186     1.0  0.03771  0.50229  0.91189  1.0000
  H   H2052     1.0  0.18898  0.48811  0.77062  1.0000
  S   S332      1.0  0.17780  0.68701  0.48409  1.0000
  H   H2053     1.0  0.23847  0.56112  0.93860  1.0000
  C   C1187     1.0  0.15837  0.49015  0.85246  1.0000
  H   H2054     1.0  0.18558  0.48595  0.86714  1.0000
  H   H2055     1.0  0.18736  0.52894  0.82754  1.0000
  H   H2056     1.0  0.02309  0.49957  0.95283  1.0000
  H   H2057     1.0  0.17411  0.54619  0.82761  1.0000
  C   C1188     1.0  0.00051  0.57910  0.54522  1.0000
  H   H2058     1.0  0.05654  0.51258  0.92119  1.0000
  N   N85       1.0  0.02560  0.51323  0.91957  1.0000
  C   C1189     1.0  0.00160  0.61463  0.60137  1.0000
  H   H2059     1.0  0.17613  0.57808  0.67235  1.0000
  C   C1190     1.0  0.00441  0.53614  0.91363  1.0000
  C   C1191     1.0  0.23884  0.71760  0.52699  1.0000
  C   C1192     1.0  0.00607  0.68575  0.65205  1.0000
  C   C1193     1.0  0.18562  0.49586  0.91735  1.0000
  H   H2060     1.0  0.99893  0.57887  0.51852  1.0000
  C   C1194     1.0  0.20903  0.53312  0.90817  1.0000
  C   C1195     1.0  0.23754  0.63474  0.51361  1.0000
  S   S333      1.0  0.15073  0.49465  0.68618  1.0000
  H   H2061     1.0  0.01418  0.50127  0.69827  1.0000
  H   H2062     1.0  0.21578  0.53166  0.89710  1.0000
  C   C1196     1.0  0.02728  0.56712  0.53730  1.0000
  S   S334      1.0  0.23239  0.49113  0.78801  1.0000
  C   C1197     1.0  0.00942  0.71771  0.66713  1.0000
  H   H2063     1.0  0.19767  0.52877  0.66735  1.0000
  H   H2064     1.0  0.20648  0.55732  0.62064  1.0000
  C   C1198     1.0  0.02175  0.49417  0.94467  1.0000
  C   C1199     1.0  0.06780  0.72757  0.60708  1.0000
  H   H2065     1.0  0.06475  0.72728  0.65170  1.0000
  C   C1200     1.0  0.21944  0.57323  0.48328  1.0000
  H   H2066     1.0  0.04131  0.49530  0.77694  1.0000
  H   H2067     1.0  0.20854  0.54259  0.48263  1.0000
  N   N86       1.0  0.00771  0.49778  0.78740  1.0000
  H   H2068     1.0  0.18493  0.48983  0.72194  1.0000
  H   H2069     1.0  0.99886  0.53683  0.60646  1.0000
  H   H2070     1.0  0.00141  0.69298  0.64244  1.0000
  C   C1201     1.0  0.12721  0.49630  0.73524  1.0000
  H   H2071     1.0  0.99805  0.57328  0.55703  1.0000
  H   H2072     1.0  0.00378  0.62594  0.69753  1.0000
  C   C1202     1.0  0.23177  0.58107  0.92329  1.0000
  H   H2073     1.0  0.23543  0.53762  0.47915  1.0000
  C   C1203     1.0  0.24057  0.57246  0.93537  1.0000
  H   H2074     1.0  0.22978  0.48932  0.72029  1.0000
  H   H2075     1.0  0.02027  0.56383  0.56188  1.0000
  H   H2076     1.0  0.22838  0.71973  0.61332  1.0000
  H   H2077     1.0  0.02584  0.48850  0.79902  1.0000
  C   C1204     1.0  0.17576  0.49951  0.72404  1.0000
  H   H2078     1.0  0.14652  0.49974  0.75076  1.0000
  H   H2079     1.0  0.20986  0.49629  0.61488  1.0000
  C   C1205     1.0  0.20353  0.48791  0.61599  1.0000
  H   H2080     1.0  0.04220  0.48405  0.90110  1.0000
  Fe  Fe161     1.0  0.99560  0.53160  0.74171  1.0000
  H   H2081     1.0  0.99553  0.50061  0.81782  1.0000
  H   H2082     1.0  0.99521  0.53223  0.92247  1.0000
  H   H2083     1.0  0.24227  0.48356  0.82614  1.0000
  N   N87       1.0  0.22127  0.55955  0.47772  1.0000
  H   H2084     1.0  0.24477  0.69729  0.48598  1.0000
  Fe  Fe162     1.0  0.13410  0.75796  0.42026  1.0000
  S   S335      1.0  0.15381  0.75808  0.40105  1.0000
  S   S336      1.0  0.13483  0.74620  0.44365  1.0000
  Fe  Fe163     1.0  0.11273  0.77995  0.40237  1.0000
  S   S337      1.0  0.13065  0.78253  0.38173  1.0000
  S   S338      1.0  0.08843  0.79109  0.40358  1.0000
  Fe  Fe164     1.0  0.13764  0.75784  0.38826  1.0000
  H   H2085     1.0  0.20088  0.90321  0.40912  1.0000
  Fe  Fe165     1.0  0.14524  0.78273  0.39640  1.0000
  S   S339      1.0  0.16163  0.79790  0.38846  1.0000
  S   S340      1.0  0.11879  0.75527  0.40797  1.0000
  S   S341      1.0  0.12648  0.78263  0.41650  1.0000
  N   N88       1.0  0.11976  0.83003  0.39014  1.0000
  S   S342      1.0  0.18908  0.89193  0.44009  1.0000
  C   C1206     1.0  0.19540  0.90822  0.43060  1.0000
  H   H2086     1.0  0.08962  0.82046  0.38364  1.0000
  H   H2087     1.0  0.23905  0.92376  0.40296  1.0000
  H   H2088     1.0  0.15680  0.98063  0.46082  1.0000
  Fe  Fe166     1.0  0.03030  0.76228  0.38210  1.0000
  S   S343      1.0  0.01825  0.77655  0.36436  1.0000
  S   S344      1.0  0.05546  0.75756  0.37884  1.0000
  Fe  Fe167     1.0  0.00232  0.75158  0.40106  1.0000
  H   H2089     1.0  0.05837  0.75027  0.32986  1.0000
  C   C1207     1.0  0.23396  0.77910  0.47476  1.0000
  Fe  Fe168     1.0  0.00823  0.75703  0.36774  1.0000
  S   S345      1.0  0.00849  0.74794  0.34847  1.0000
  S   S346      1.0  0.24094  0.94847  0.46346  1.0000
  C   C1208     1.0  0.22922  0.79018  0.44320  1.0000
  S   S347      1.0  0.02136  0.74240  0.38429  1.0000
  S   S348      1.0  0.01231  0.77012  0.40057  1.0000
  H   H2090     1.0  0.20088  0.80670  0.44323  1.0000
  H   H2091     1.0  0.17084  0.96515  0.46669  1.0000
  H   H2092     1.0  0.18502  0.82126  0.45983  1.0000
  C   C1209     1.0  0.18727  0.73445  0.41310  1.0000
  Fe  Fe169     1.0  0.21863  0.96343  0.41861  1.0000
  H   H2093     1.0  0.14321  0.95855  0.43652  1.0000
  C   C1210     1.0  0.20574  0.93427  0.41584  1.0000
  H   H2094     1.0  0.07524  0.73611  0.39892  1.0000
  C   C1211     1.0  0.09968  0.82533  0.37967  1.0000
  H   H2095     1.0  0.11004  0.81561  0.42184  1.0000
  H   H2096     1.0  0.23551  0.79899  0.44073  1.0000
  C   C1212     1.0  0.17675  0.81520  0.39432  1.0000
  H   H2097     1.0  0.20784  0.98119  0.46616  1.0000
  C   C1213     1.0  0.14443  0.83469  0.37153  1.0000
  C   C1214     1.0  0.16266  0.76306  0.44663  1.0000
  H   H2098     1.0  0.09288  0.75182  0.43336  1.0000
  H   H2099     1.0  0.09579  0.83738  0.37568  1.0000
  H   H2100     1.0  0.16685  0.93883  0.43657  1.0000
  H   H2101     1.0  0.18457  0.76559  0.43516  1.0000
  H   H2102     1.0  0.20112  0.77917  0.47233  1.0000
  C   C1215     1.0  0.15357  0.96093  0.42835  1.0000
  C   C1216     1.0  0.16689  0.97251  0.45679  1.0000
  S   S349      1.0  0.17801  0.82886  0.43017  1.0000
  H   H2103     1.0  0.09884  0.82358  0.40239  1.0000
  H   H2104     1.0  0.12554  0.83157  0.36645  1.0000
  C   C1217     1.0  0.12107  0.85587  0.39259  1.0000
  C   C1218     1.0  0.08237  0.74294  0.42099  1.0000
  C   C1219     1.0  0.08163  0.75196  0.43217  1.0000
  H   H2105     1.0  0.15096  0.83159  0.38016  1.0000
  S   S350      1.0  0.24220  0.95771  0.42137  1.0000
  S   S351      1.0  0.19349  0.86708  0.41035  1.0000
  C   C1220     1.0  0.22482  0.79093  0.42877  1.0000
  H   H2106     1.0  0.13326  0.85164  0.39125  1.0000
  C   C1221     1.0  0.23111  0.89234  0.43962  1.0000
  H   H2107     1.0  0.20947  0.92645  0.39602  1.0000
  H   H2108     1.0  0.11247  0.80949  0.39464  1.0000
  H   H2109     1.0  0.22853  0.89092  0.42968  1.0000
  Fe  Fe170     1.0  0.24108  0.98205  0.41357  1.0000
  H   H2110     1.0  0.13661  0.82859  0.40213  1.0000
  S   S352      1.0  0.20854  0.96608  0.44189  1.0000
  H   H2111     1.0  0.07102  0.74596  0.41861  1.0000
  C   C1222     1.0  0.12733  0.82343  0.40300  1.0000
  C   C1223     1.0  0.20607  0.80664  0.45222  1.0000
  H   H2112     1.0  0.17842  0.98205  0.42633  1.0000
  H   H2113     1.0  0.22240  0.74376  0.42155  1.0000
  C   C1224     1.0  0.05135  0.74205  0.33576  1.0000
  C   C1225     1.0  0.22223  0.79254  0.46914  1.0000
  C   C1226     1.0  0.20064  0.93134  0.43120  1.0000
  C   C1227     1.0  0.19518  0.91848  0.43851  1.0000
  H   H2114     1.0  0.16691  0.97626  0.40236  1.0000
  H   H2115     1.0  0.18377  0.96394  0.42398  1.0000
  H   H2116     1.0  0.20075  0.93903  0.43740  1.0000
  H   H2117     1.0  0.19107  0.91629  0.45037  1.0000
  C   C1228     1.0  0.07915  0.78228  0.39626  1.0000
  C   C1229     1.0  0.08732  0.77205  0.38755  1.0000
  C   C1230     1.0  0.07988  0.76472  0.38217  1.0000
  C   C1231     1.0  0.06422  0.76755  0.38539  1.0000
  C   C1232     1.0  0.05601  0.77788  0.39397  1.0000
  C   C1233     1.0  0.06347  0.78525  0.39936  1.0000
  H   H2118     1.0  0.09941  0.76977  0.38495  1.0000
  H   H2119     1.0  0.08632  0.75678  0.37550  1.0000
  H   H2120     1.0  0.04393  0.78015  0.39651  1.0000
  H   H2121     1.0  0.05709  0.79316  0.40607  1.0000
  S   S353      1.0  0.19782  0.84969  0.44360  1.0000
  H   H2122     1.0  0.21692  0.78384  0.43041  1.0000
  H   H2123     1.0  0.13535  0.81530  0.37674  1.0000
  Fe  Fe171     1.0  0.22227  0.84365  0.43409  1.0000
  S   S354      1.0  0.23733  0.83142  0.44974  1.0000
  Fe  Fe172     1.0  0.23222  0.96293  0.44366  1.0000
  C   C1234     1.0  0.16665  0.80578  0.40036  1.0000
  H   H2124     1.0  0.15769  0.76514  0.43696  1.0000
  H   H2125     1.0  0.20877  0.75951  0.42630  1.0000
  H   H2126     1.0  0.18161  0.81719  0.38259  1.0000
  Fe  Fe173     1.0  0.99927  0.78274  0.38311  1.0000
  H   H2127     1.0  0.15369  0.95832  0.45559  1.0000
  H   H2128     1.0  0.13282  0.81164  0.40305  1.0000
  H   H2129     1.0  0.24402  0.77644  0.46610  1.0000
  H   H2130     1.0  0.11040  0.85147  0.37774  1.0000
  H   H2131     1.0  0.18026  0.75663  0.41678  1.0000
  H   H2132     1.0  0.10138  0.84757  0.39672  1.0000
  Fe  Fe174     1.0  0.19473  0.84367  0.42392  1.0000
  H   H2133     1.0  0.16062  0.77396  0.44945  1.0000
  C   C1235     1.0  0.13091  0.82740  0.37608  1.0000
  H   H2134     1.0  0.17440  0.94746  0.41762  1.0000
  H   H2135     1.0  0.15831  0.93984  0.42208  1.0000
  S   S355      1.0  0.22362  0.86655  0.42132  1.0000
  H   H2136     1.0  0.17580  0.97847  0.45020  1.0000
  H   H2137     1.0  0.14989  0.96624  0.41785  1.0000
  H   H2138     1.0  0.11944  0.86700  0.38509  1.0000
  H   H2139     1.0  0.14102  0.84689  0.36804  1.0000
  H   H2140     1.0  0.10989  0.83502  0.41904  1.0000
  C   C1236     1.0  0.17967  0.75654  0.44327  1.0000
  H   H2141     1.0  0.15912  0.80855  0.43621  1.0000
  Fe  Fe175     1.0  0.19884  0.87228  0.42934  1.0000
  H   H2142     1.0  0.17297  0.95342  0.44736  1.0000
  H   H2143     1.0  0.15222  0.83074  0.36179  1.0000
  H   H2144     1.0  0.21991  0.80248  0.42368  1.0000
  C   C1237     1.0  0.16044  0.80328  0.41554  1.0000
  S   S356      1.0  0.23175  0.86703  0.38067  1.0000
  N   N89       1.0  0.16002  0.97093  0.43320  1.0000
  Fe  Fe176     1.0  0.21850  0.85958  0.40345  1.0000
  C   C1238     1.0  0.20555  0.92422  0.40791  1.0000
  C   C1239     1.0  0.11256  0.84626  0.38900  1.0000
  S   S357      1.0  0.14123  0.74409  0.37185  1.0000
  H   H2145     1.0  0.18820  0.82956  0.39851  1.0000
  C   C1240     1.0  0.24220  0.91231  0.40942  1.0000
  C   C1241     1.0  0.20160  0.73824  0.43536  1.0000
  H   H2146     1.0  0.12415  0.82093  0.42667  1.0000
  C   C1242     1.0  0.17411  0.81993  0.41843  1.0000
  C   C1243     1.0  0.21688  0.76404  0.45945  1.0000
  C   C1244     1.0  0.16405  0.94598  0.42611  1.0000
  C   C1245     1.0  0.16412  0.81037  0.42451  1.0000
  C   C1246     1.0  0.21026  0.74891  0.42317  1.0000
  H   H2147     1.0  0.15266  0.79605  0.42033  1.0000
  C   C1247     1.0  0.11709  0.82391  0.41843  1.0000
  H   H2148     1.0  0.16728  0.74532  0.42635  1.0000
  H   H2149     1.0  0.23896  0.86806  0.44638  1.0000
  C   C1248     1.0  0.18050  0.82223  0.40330  1.0000
  H   H2150     1.0  0.22132  0.90047  0.44420  1.0000
  H   H2151     1.0  0.18593  0.97580  0.39984  1.0000
  N   N90       1.0  0.21644  0.79187  0.45639  1.0000
  H   H2152     1.0  0.08975  0.74762  0.41058  1.0000
  H   H2153     1.0  0.18360  0.75488  0.45358  1.0000
  C   C1249     1.0  0.10778  0.82165  0.39245  1.0000
  H   H2154     1.0  0.19684  0.81514  0.47262  1.0000
  C   C1250     1.0  0.19296  0.81150  0.46470  1.0000
  H   H2155     1.0  0.23305  0.87755  0.46155  1.0000
  H   H2156     1.0  0.04568  0.74477  0.34666  1.0000
  S   S358      1.0  0.21222  0.95045  0.40620  1.0000
  S   S359      1.0  0.21942  0.83583  0.41549  1.0000
  H   H2157     1.0  0.21969  0.87498  0.45334  1.0000
  H   H2158     1.0  0.23201  0.92022  0.42962  1.0000
  C   C1251     1.0  0.20071  0.91106  0.41530  1.0000
  H   H2159     1.0  0.10681  0.82020  0.37039  1.0000
  H   H2160     1.0  0.11619  0.85783  0.40392  1.0000
  H   H2161     1.0  0.19247  0.74050  0.40211  1.0000
  C   C1252     1.0  0.17452  0.97394  0.42296  1.0000
  H   H2162     1.0  0.07449  0.74853  0.44309  1.0000
  H   H2163     1.0  0.22848  0.76146  0.46085  1.0000
  H   H2164     1.0  0.07663  0.76375  0.42786  1.0000
  C   C1253     1.0  0.17942  0.74531  0.42353  1.0000
  H   H2165     1.0  0.22709  0.80249  0.46627  1.0000
  H   H2166     1.0  0.23402  0.90626  0.40925  1.0000
  H   H2167     1.0  0.21115  0.75591  0.46812  1.0000
  N   N91       1.0  0.18480  0.74248  0.43752  1.0000
  H   H2168     1.0  0.23505  0.78715  0.42063  1.0000
  H   H2169     1.0  0.19947  0.78262  0.45372  1.0000
  H   H2170     1.0  0.16582  0.73401  0.45213  1.0000
  H   H2171     1.0  0.04288  0.74378  0.32925  1.0000
  H   H2172     1.0  0.21686  0.76172  0.44884  1.0000
  H   H2173     1.0  0.23555  0.89652  0.36665  1.0000
  H   H2174     1.0  0.21240  0.81565  0.44773  1.0000
  C   C1254     1.0  0.23098  0.87738  0.45089  1.0000
  C   C1255     1.0  0.16331  0.96304  0.44823  1.0000
  C   C1256     1.0  0.20776  0.77983  0.46077  1.0000
  H   H2175     1.0  0.23763  0.77973  0.44528  1.0000
  H   H2176     1.0  0.20487  0.73726  0.44585  1.0000
  H   H2177     1.0  0.23655  0.90360  0.45742  1.0000
  H   H2178     1.0  0.15656  0.75609  0.45632  1.0000
  C   C1257     1.0  0.17467  0.97999  0.40636  1.0000
  H   H2179     1.0  0.18658  0.80279  0.47059  1.0000
  H   H2180     1.0  0.15747  0.73827  0.32738  1.0000
  C   C1258     1.0  0.24261  0.91288  0.42509  1.0000
  H   H2181     1.0  0.20719  0.75113  0.41240  1.0000
  C   C1259     1.0  0.24397  0.89127  0.37312  1.0000
  H   H2182     1.0  0.13995  0.98319  0.44532  1.0000
  C   C1260     1.0  0.24428  0.87686  0.38157  1.0000
  H   H2183     1.0  0.20153  0.74596  0.63557  1.0000
  H   H2184     1.0  0.16798  0.79181  0.62606  1.0000
  H   H2185     1.0  0.21905  0.73875  0.48934  1.0000
  Fe  Fe177     1.0  0.00892  0.75678  0.62924  1.0000
  C   C1261     1.0  0.15873  0.96120  0.69485  1.0000
  C   C1262     1.0  0.01962  0.81600  0.64081  1.0000
  S   S360      1.0  0.00065  0.77320  0.61003  1.0000
  C   C1263     1.0  0.18832  0.77903  0.61519  1.0000
  S   S361      1.0  0.07590  0.79439  0.61506  1.0000
  S   S362      1.0  0.11989  0.82004  0.64177  1.0000
  S   S363      1.0  0.11485  0.80157  0.61351  1.0000
  Fe  Fe178     1.0  0.21048  0.85191  0.66696  1.0000
  S   S364      1.0  0.21435  0.86841  0.64572  1.0000
  S   S365      1.0  0.22408  0.85090  0.68304  1.0000
  Fe  Fe179     1.0  0.18752  0.84146  0.65768  1.0000
  S   S366      1.0  0.18962  0.85767  0.63576  1.0000
  H   H2186     1.0  0.06784  0.74373  0.61860  1.0000
  Fe  Fe180     1.0  0.13101  0.77963  0.61489  1.0000
  C   C1264     1.0  0.22581  0.97583  0.51327  1.0000
  Fe  Fe181     1.0  0.18956  0.87398  0.64858  1.0000
  S   S367      1.0  0.18004  0.89859  0.64240  1.0000
  S   S368      1.0  0.21235  0.83363  0.65614  1.0000
  S   S369      1.0  0.18536  0.85839  0.67080  1.0000
  H   H2187     1.0  0.23790  0.78175  0.48331  1.0000
  H   H2188     1.0  0.22906  0.76927  0.48034  1.0000
  H   H2189     1.0  0.16420  0.82851  0.59825  1.0000
  Fe  Fe182     1.0  0.11715  0.79960  0.63648  1.0000
  H   H2190     1.0  0.24400  0.92875  0.62738  1.0000
  H   H2191     1.0  0.01603  0.81155  0.59572  1.0000
  H   H2192     1.0  0.05884  0.73646  0.60270  1.0000
  Fe  Fe183     1.0  0.20413  0.95711  0.66654  1.0000
  H   H2193     1.0  0.21608  0.98258  0.51960  1.0000
  S   S370      1.0  0.19417  0.93717  0.67804  1.0000
  H   H2194     1.0  0.23164  0.89116  0.71384  1.0000
  H   H2195     1.0  0.24429  0.82271  0.64606  1.0000
  Fe  Fe184     1.0  0.22168  0.97497  0.67377  1.0000
  H   H2196     1.0  0.24265  0.74070  0.62945  1.0000
  H   H2197     1.0  0.20833  0.96924  0.49923  1.0000
  S   S371      1.0  0.22851  0.95439  0.66498  1.0000
  C   C1265     1.0  0.18652  0.80770  0.59145  1.0000
  H   H2198     1.0  0.18794  0.81916  0.58592  1.0000
  S   S372      1.0  0.23123  0.84730  0.61443  1.0000
  H   H2199     1.0  0.01973  0.82574  0.61261  1.0000
  H   H2200     1.0  0.19469  0.82813  0.61891  1.0000
  H   H2201     1.0  0.22603  0.88204  0.68165  1.0000
  H   H2202     1.0  0.15057  0.80844  0.59793  1.0000
  H   H2203     1.0  0.19527  0.77808  0.60405  1.0000
  H   H2204     1.0  0.15802  0.98265  0.68006  1.0000
  S   S373      1.0  0.19703  0.97686  0.67684  1.0000
  H   H2205     1.0  0.14513  0.80626  0.61769  1.0000
  C   C1266     1.0  0.18685  0.73503  0.60500  1.0000
  C   C1267     1.0  0.22635  0.80639  0.61650  1.0000
  H   H2206     1.0  0.19808  0.80093  0.59139  1.0000
  H   H2207     1.0  0.04154  0.80890  0.64649  1.0000
  H   H2208     1.0  0.16939  0.81008  0.57923  1.0000
  C   C1268     1.0  0.22387  0.89045  0.67151  1.0000
  H   H2209     1.0  0.24387  0.94114  0.69301  1.0000
  C   C1269     1.0  0.16424  0.76034  0.59944  1.0000
  C   C1270     1.0  0.01730  0.81447  0.61686  1.0000
  C   C1271     1.0  0.14761  0.80808  0.64868  1.0000
  H   H2210     1.0  0.01526  0.81398  0.65294  1.0000
  H   H2211     1.0  0.18805  0.80324  0.57023  1.0000
  C   C1272     1.0  0.21966  0.74630  0.61609  1.0000
  C   C1273     1.0  0.23103  0.83117  0.60965  1.0000
  H   H2212     1.0  0.24225  0.75720  0.61539  1.0000
  S   S374      1.0  0.15038  0.77634  0.59570  1.0000
  C   C1274     1.0  0.16310  0.98294  0.64605  1.0000
  H   H2213     1.0  0.04252  0.81290  0.62711  1.0000
  S   S375      1.0  0.23626  0.78729  0.59785  1.0000
  C   C1275     1.0  0.18417  0.90924  0.65221  1.0000
  C   C1276     1.0  0.18491  0.90374  0.66705  1.0000
  C   C1277     1.0  0.18789  0.91248  0.67485  1.0000
  C   C1278     1.0  0.19073  0.92653  0.66773  1.0000
  C   C1279     1.0  0.19042  0.93191  0.65276  1.0000
  C   C1280     1.0  0.18677  0.92342  0.64513  1.0000
  H   H2214     1.0  0.18289  0.89283  0.67260  1.0000
  H   H2215     1.0  0.18811  0.90823  0.68642  1.0000
  H   H2216     1.0  0.19262  0.94272  0.64716  1.0000
  H   H2217     1.0  0.18622  0.92771  0.63364  1.0000
  C   C1281     1.0  0.18964  0.82637  0.61067  1.0000
  C   C1282     1.0  0.00831  0.79618  0.63876  1.0000
  H   H2218     1.0  0.18448  0.76850  0.62014  1.0000
  H   H2219     1.0  0.21220  0.74297  0.61122  1.0000
  H   H2220     1.0  0.24180  0.83826  0.58694  1.0000
  H   H2221     1.0  0.19520  0.77983  0.62233  1.0000
  H   H2222     1.0  0.22396  0.96642  0.48447  1.0000
  H   H2223     1.0  0.23019  0.73787  0.50166  1.0000
  H   H2224     1.0  0.21839  0.74746  0.63892  1.0000
  C   C1283     1.0  0.13655  0.82083  0.64582  1.0000
  C   C1284     1.0  0.15943  0.97108  0.67918  1.0000
  C   C1285     1.0  0.23200  0.93614  0.72188  1.0000
  C   C1286     1.0  0.18015  0.80267  0.58117  1.0000
  C   C1287     1.0  0.15089  0.83508  0.65153  1.0000
  C   C1288     1.0  0.13834  0.83435  0.64706  1.0000
  H   H2225     1.0  0.15202  0.84551  0.65273  1.0000
  H   H2226     1.0  0.12985  0.84429  0.64480  1.0000
  C   C1289     1.0  0.04317  0.76347  0.62997  1.0000
  C   C1290     1.0  0.04337  0.77409  0.61671  1.0000
  C   C1291     1.0  0.05364  0.78335  0.61213  1.0000
  C   C1292     1.0  0.06384  0.78199  0.62071  1.0000
  C   C1293     1.0  0.06363  0.77136  0.63397  1.0000
  C   C1294     1.0  0.05328  0.76220  0.63860  1.0000
  H   H2227     1.0  0.03578  0.77503  0.60986  1.0000
  H   H2228     1.0  0.05378  0.79154  0.60185  1.0000
  Fe  Fe185     1.0  0.22858  0.96968  0.64288  1.0000
  H   H2229     1.0  0.15335  0.94595  0.67636  1.0000
  H   H2230     1.0  0.23744  0.75837  0.59155  1.0000
  C   C1295     1.0  0.23911  0.74611  0.59377  1.0000
  C   C1296     1.0  0.24393  0.92924  0.69821  1.0000
  H   H2231     1.0  0.23490  0.92431  0.68177  1.0000
  S   S376      1.0  0.09765  0.78851  0.64708  1.0000
  H   H2232     1.0  0.13190  0.74081  0.63613  1.0000
  H   H2233     1.0  0.21966  0.90128  0.67468  1.0000
  H   H2234     1.0  0.24313  0.81500  0.58023  1.0000
  H   H2235     1.0  0.16801  0.79865  0.65660  1.0000
  H   H2236     1.0  0.22552  0.91099  0.73083  1.0000
  H   H2237     1.0  0.17939  0.83523  0.61008  1.0000
  S   S377      1.0  0.17618  0.82209  0.66306  1.0000
  C   C1297     1.0  0.23323  0.80450  0.60215  1.0000
  C   C1298     1.0  0.18629  0.74258  0.59047  1.0000
  H   H2238     1.0  0.13961  0.82370  0.60599  1.0000
  H   H2239     1.0  0.13237  0.96094  0.68963  1.0000
  C   C1299     1.0  0.22963  0.74283  0.58499  1.0000
  C   C1300     1.0  0.23748  0.82939  0.59522  1.0000
  H   H2240     1.0  0.23181  0.93985  0.63950  1.0000
  H   H2241     1.0  0.14643  0.79767  0.64757  1.0000
  C   C1301     1.0  0.09653  0.74618  0.60462  1.0000
  C   C1302     1.0  0.16152  0.82217  0.65522  1.0000
  H   H2242     1.0  0.22311  0.93476  0.73213  1.0000
  H   H2243     1.0  0.15962  0.82296  0.61775  1.0000
  H   H2244     1.0  0.19769  0.80295  0.61515  1.0000
  H   H2245     1.0  0.22017  0.82106  0.63139  1.0000
  H   H2246     1.0  0.00400  0.80231  0.61107  1.0000
  H   H2247     1.0  0.21506  0.88746  0.66821  1.0000
  H   H2248     1.0  0.17476  0.76125  0.57645  1.0000
  H   H2249     1.0  0.23005  0.94826  0.71704  1.0000
  C   C1303     1.0  0.03623  0.80789  0.63806  1.0000
  H   H2250     1.0  0.10657  0.74811  0.59579  1.0000
  S   S378      1.0  0.13443  0.77836  0.63725  1.0000
  C   C1304     1.0  0.22523  0.81975  0.62025  1.0000
  N   N92       1.0  0.23092  0.92779  0.71124  1.0000
  S   S379      1.0  0.03142  0.75075  0.63548  1.0000
  H   H2251     1.0  0.07131  0.77036  0.64074  1.0000
  H   H2252     1.0  0.03763  0.79597  0.63868  1.0000
  C   C1305     1.0  0.22647  0.90250  0.63880  1.0000
  Fe  Fe186     1.0  0.21415  0.85079  0.63509  1.0000
  H   H2253     1.0  0.13951  0.98294  0.65186  1.0000
  H   H2254     1.0  0.21817  0.74989  0.58649  1.0000
  H   H2255     1.0  0.15630  0.75634  0.62306  1.0000
  H   H2256     1.0  0.22393  0.92032  0.65566  1.0000
  H   H2257     1.0  0.16621  0.95346  0.66106  1.0000
  N   N93       1.0  0.17749  0.80711  0.60706  1.0000
  C   C1306     1.0  0.20218  0.93603  0.71835  1.0000
  H   H2258     1.0  0.22230  0.79742  0.62484  1.0000
  H   H2259     1.0  0.15120  0.94146  0.65363  1.0000
  H   H2260     1.0  0.17888  0.79105  0.58527  1.0000
  H   H2261     1.0  0.22401  0.90668  0.70116  1.0000
  S   S380      1.0  0.11296  0.76676  0.62314  1.0000
  C   C1307     1.0  0.16471  0.75266  0.61397  1.0000
  H   H2262     1.0  0.17117  0.96808  0.67299  1.0000
  H   H2263     1.0  0.01987  0.78716  0.65736  1.0000
  H   H2264     1.0  0.17651  0.73426  0.62801  1.0000
  C   C1308     1.0  0.21657  0.93533  0.70609  1.0000
  H   H2265     1.0  0.21549  0.90342  0.64670  1.0000
  H   H2266     1.0  0.09579  0.75242  0.61289  1.0000
  C   C1309     1.0  0.14894  0.81382  0.60713  1.0000
  C   C1310     1.0  0.16293  0.81865  0.60745  1.0000
  H   H2267     1.0  0.13402  0.95266  0.66119  1.0000
  N   N94       1.0  0.12312  0.78888  0.68850  1.0000
  C   C1311     1.0  0.13707  0.77825  0.68264  1.0000
  C   C1312     1.0  0.12777  0.80258  0.68856  1.0000
  C   C1313     1.0  0.11265  0.79272  0.67814  1.0000
  C   C1314     1.0  0.11623  0.78117  0.70375  1.0000
  H   H2268     1.0  0.24086  0.87898  0.65617  1.0000
  C   C1315     1.0  0.13938  0.80023  0.69778  1.0000
  C   C1316     1.0  0.10062  0.80723  0.67825  1.0000
  C   C1317     1.0  0.10259  0.79027  0.71274  1.0000
  H   H2269     1.0  0.14365  0.78397  0.67227  1.0000
  H   H2270     1.0  0.14463  0.77399  0.69052  1.0000
  H   H2271     1.0  0.11815  0.81115  0.69245  1.0000
  H   H2272     1.0  0.13249  0.80806  0.67709  1.0000
  H   H2273     1.0  0.11911  0.79379  0.66646  1.0000
  H   H2274     1.0  0.10672  0.78365  0.68019  1.0000
  H   H2275     1.0  0.11235  0.77156  0.70311  1.0000
  H   H2276     1.0  0.12467  0.77597  0.71069  1.0000
  H   H2277     1.0  0.21963  0.92594  0.62818  1.0000
  H   H2278     1.0  0.14570  0.75767  0.67494  1.0000
  C   C1318     1.0  0.14825  0.98263  0.65758  1.0000
  H   H2279     1.0  0.13568  0.79463  0.70944  1.0000
  H   H2280     1.0  0.15051  0.79411  0.69281  1.0000
  H   H2281     1.0  0.14094  0.81121  0.69782  1.0000
  H   H2282     1.0  0.09337  0.80806  0.67073  1.0000
  H   H2283     1.0  0.10568  0.81709  0.67381  1.0000
  H   H2284     1.0  0.09328  0.80782  0.68923  1.0000
  H   H2285     1.0  0.09204  0.78957  0.71052  1.0000
  H   H2286     1.0  0.10292  0.80199  0.71097  1.0000
  H   H2287     1.0  0.10230  0.78571  0.72471  1.0000
  C   C1319     1.0  0.15984  0.80868  0.65374  1.0000
  H   H2288     1.0  0.18092  0.80906  0.62762  1.0000
  C   C1320     1.0  0.17512  0.75536  0.58771  1.0000
  H   H2289     1.0  0.14700  0.96065  0.64528  1.0000
  H   H2290     1.0  0.01726  0.78873  0.63238  1.0000
  H   H2291     1.0  0.22372  0.96481  0.51432  1.0000
  H   H2292     1.0  0.99919  0.82218  0.60463  1.0000
  H   H2293     1.0  0.22866  0.89190  0.63532  1.0000
  C   C1321     1.0  0.17615  0.74015  0.61676  1.0000
  H   H2294     1.0  0.02829  0.80661  0.61492  1.0000
  Fe  Fe187     1.0  0.09689  0.78856  0.62403  1.0000
  C   C1322     1.0  0.18652  0.81062  0.61570  1.0000
  C   C1323     1.0  0.17448  0.79191  0.61452  1.0000
  C   C1324     1.0  0.24104  0.92987  0.63894  1.0000
  H   H2295     1.0  0.11766  0.98251  0.69686  1.0000
  S   S381      1.0  0.99939  0.73888  0.62695  1.0000
  H   H2296     1.0  0.23992  0.97637  0.49149  1.0000
  H   H2297     1.0  0.20115  0.96573  0.47845  1.0000
  Fe  Fe188     1.0  0.11490  0.76733  0.64554  1.0000
  H   H2298     1.0  0.12533  0.97030  0.67387  1.0000
  H   H2299     1.0  0.16714  0.97306  0.64115  1.0000
  H   H2300     1.0  0.01942  0.82808  0.63731  1.0000
  H   H2301     1.0  0.19782  0.82774  0.59994  1.0000
  C   C1325     1.0  0.14596  0.95262  0.65605  1.0000
  H   H2302     1.0  0.21743  0.75862  0.61283  1.0000
  H   H2303     1.0  0.16740  0.78879  0.60904  1.0000
  N   N95       1.0  0.01001  0.81206  0.63313  1.0000
  C   C1326     1.0  0.21387  0.74202  0.63296  1.0000
  C   C1327     1.0  0.23845  0.81613  0.59146  1.0000
  H   H2304     1.0  0.24331  0.90579  0.71932  1.0000
  C   C1328     1.0  0.13311  0.97078  0.68031  1.0000
  C   C1329     1.0  0.00848  0.81248  0.60665  1.0000
  H   H2305     1.0  0.08269  0.74317  0.63429  1.0000
  H   H2306     1.0  0.99633  0.83432  0.63021  1.0000
  N   N96       1.0  0.23587  0.73975  0.61017  1.0000
  H   H2307     1.0  0.05312  0.75408  0.64892  1.0000
  S   S382      1.0  0.20481  0.97050  0.64345  1.0000
  H   H2308     1.0  0.12928  0.75721  0.68929  1.0000
  H   H2309     1.0  0.19236  0.93944  0.71318  1.0000
  H   H2310     1.0  0.21517  0.91321  0.62080  1.0000
  H   H2311     1.0  0.00602  0.77797  0.65798  1.0000
  H   H2312     1.0  0.14801  0.96465  0.70252  1.0000
  N   N97       1.0  0.14871  0.96995  0.67088  1.0000
  H   H2313     1.0  0.12814  0.76733  0.67066  1.0000
  C   C1330     1.0  0.24307  0.85107  0.67508  1.0000
  C   C1331     1.0  0.23602  0.91658  0.65079  1.0000
  H   H2314     1.0  0.23479  0.74549  0.57300  1.0000
  C   C1332     1.0  0.15414  0.95522  0.66646  1.0000
  H   H2315     1.0  0.21489  0.93016  0.69800  1.0000
  C   C1333     1.0  0.21376  0.97471  0.48804  1.0000
  C   C1334     1.0  0.22397  0.91500  0.62519  1.0000
  H   H2316     1.0  0.08671  0.75091  0.59946  1.0000
  H   H2317     1.0  0.16064  0.94933  0.69486  1.0000
  H   H2318     1.0  0.20105  0.94451  0.72456  1.0000
  H   H2319     1.0  0.21693  0.94694  0.69997  1.0000
  S   S383      1.0  0.23136  0.97299  0.69314  1.0000
  H   H2320     1.0  0.00037  0.79550  0.66288  1.0000
  H   H2321     1.0  0.21300  0.79384  0.47900  1.0000
  H   H2322     1.0  0.20164  0.92520  0.72610  1.0000
  N   N98       1.0  0.23866  0.90231  0.64597  1.0000
  H   H2323     1.0  0.16777  0.96233  0.69933  1.0000
  H   H2324     1.0  0.24289  0.84621  0.65474  1.0000
  H   H2325     1.0  0.99773  0.79503  0.63691  1.0000
  H   H2326     1.0  0.19451  0.73867  0.58135  1.0000
  H   H2327     1.0  0.23538  0.97385  0.51851  1.0000
  C   C1335     1.0  0.23153  0.91176  0.71905  1.0000
  S   S384      1.0  0.11378  0.74701  0.66392  1.0000
  C   C1336     1.0  0.22468  0.90261  0.71287  1.0000
  H   H2328     1.0  0.21343  0.90142  0.71973  1.0000
  H   H2329     1.0  0.23405  0.91508  0.61611  1.0000
  C   C1337     1.0  0.23845  0.88972  0.65946  1.0000
  C   C1338     1.0  0.13466  0.76442  0.67930  1.0000
  C   C1339     1.0  0.00863  0.78907  0.65517  1.0000
  H   H2330     1.0  0.24186  0.91469  0.65983  1.0000
  C   C1340     1.0  0.20305  0.97674  0.47790  1.0000
  H   H2331     1.0  0.47304  0.17751  0.07679  1.0000
  H   H2332     1.0  0.43505  0.11020  0.21532  1.0000
  H   H2333     1.0  0.48898  0.06412  0.08058  1.0000
  S   S385      1.0  0.47480  0.12487  0.14832  1.0000
  H   H2334     1.0  0.41745  0.00066  0.11261  1.0000
  C   C1341     1.0  0.44171  0.10253  0.13023  1.0000
  S   S386      1.0  0.45783  0.11941  0.19066  1.0000
  H   H2335     1.0  0.42465  0.99569  0.34818  1.0000
  H   H2336     1.0  0.45356  0.99673  0.41889  1.0000
  C   C1342     1.0  0.37203  0.21278  0.02842  1.0000
  C   C1343     1.0  0.43962  0.13798  0.01969  1.0000
  C   C1344     1.0  0.43859  0.19628  0.15645  1.0000
  Fe  Fe189     1.0  0.45962  0.21321  0.06495  1.0000
  S   S387      1.0  0.44998  0.20399  0.08853  1.0000
  C   C1345     1.0  0.43622  0.01926  0.25851  1.0000
  Fe  Fe190     1.0  0.43896  0.19175  0.07965  1.0000
  S   S388      1.0  0.44201  0.16733  0.08969  1.0000
  H   H2337     1.0  0.46543  0.98869  0.33543  1.0000
  Fe  Fe191     1.0  0.43754  0.98353  0.17859  1.0000
  S   S389      1.0  0.45003  0.19969  0.05613  1.0000
  H   H2338     1.0  0.38548  0.13229  0.03003  1.0000
  S   S390      1.0  0.44832  0.01531  0.18821  1.0000
  Fe  Fe192     1.0  0.48113  0.04898  0.24560  1.0000
  S   S391      1.0  0.43352  0.03935  0.15502  1.0000
  Fe  Fe193     1.0  0.45983  0.08767  0.03966  1.0000
  S   S392      1.0  0.43784  0.08467  0.05493  1.0000
  S   S393      1.0  0.46457  0.09039  0.01487  1.0000
  Fe  Fe194     1.0  0.47165  0.09267  0.06409  1.0000
  S   S394      1.0  0.45053  0.09016  0.08097  1.0000
  C   C1346     1.0  0.48266  0.17383  0.15068  1.0000
  Fe  Fe195     1.0  0.45175  0.07097  0.07152  1.0000
  S   S395      1.0  0.44963  0.04809  0.08544  1.0000
  Fe  Fe196     1.0  0.43903  0.10404  0.06282  1.0000
  S   S396      1.0  0.42081  0.12440  0.06524  1.0000
  S   S397      1.0  0.47381  0.07262  0.05552  1.0000
  S   S398      1.0  0.46006  0.10793  0.04659  1.0000
  H   H2339     1.0  0.48365  0.06037  0.15863  1.0000
  C   C1347     1.0  0.44518  0.10168  0.21577  1.0000
  Fe  Fe197     1.0  0.40903  0.18368  0.98928  1.0000
  C   C1348     1.0  0.42501  0.22050  0.14392  1.0000
  S   S399      1.0  0.48308  0.02448  0.25189  1.0000
  H   H2340     1.0  0.46693  0.16637  0.06285  1.0000
  H   H2341     1.0  0.46380  0.04357  0.16603  1.0000
  H   H2342     1.0  0.47298  0.16253  0.09194  1.0000
  S   S400      1.0  0.38295  0.01656  0.47238  1.0000
  H   H2343     1.0  0.45038  0.18152  0.99798  1.0000
  S   S401      1.0  0.47877  0.03614  0.34832  1.0000
  H   H2344     1.0  0.41152  0.20836  0.99940  1.0000
  H   H2345     1.0  0.46667  0.17953  0.01050  1.0000
  C   C1349     1.0  0.47587  0.02774  0.13639  1.0000
  H   H2346     1.0  0.44757  0.01457  0.29794  1.0000
  H   H2347     1.0  0.45414  0.21795  0.14227  1.0000
  H   H2348     1.0  0.48484  0.07085  0.18549  1.0000
  H   H2349     1.0  0.43331  0.03744  0.36511  1.0000
  S   S402      1.0  0.35826  0.21292  0.98532  1.0000
  S   S403      1.0  0.41523  0.03247  0.44511  1.0000
  S   S404      1.0  0.47753  0.00650  0.38606  1.0000
  H   H2350     1.0  0.39324  0.02264  0.98300  1.0000
  Fe  Fe198     1.0  0.40496  0.02264  0.46863  1.0000
  C   C1350     1.0  0.43472  0.02720  0.43901  1.0000
  C   C1351     1.0  0.44400  0.01993  0.44897  1.0000
  C   C1352     1.0  0.45948  0.01540  0.44371  1.0000
  C   C1353     1.0  0.46570  0.01804  0.42848  1.0000
  C   C1354     1.0  0.45643  0.02537  0.41854  1.0000
  C   C1355     1.0  0.44100  0.03003  0.42381  1.0000
  H   H2351     1.0  0.43927  0.01787  0.46072  1.0000
  H   H2352     1.0  0.46661  0.00982  0.45145  1.0000
  H   H2353     1.0  0.46116  0.02765  0.40680  1.0000
  H   H2354     1.0  0.43387  0.03578  0.41608  1.0000
  C   C1356     1.0  0.47396  0.06077  0.16809  1.0000
  H   H2355     1.0  0.41386  0.04131  0.29295  1.0000
  C   C1357     1.0  0.39028  0.14228  0.02636  1.0000
  H   H2356     1.0  0.30230  0.01136  0.45804  1.0000
  H   H2357     1.0  0.40175  0.02469  0.28282  1.0000
  H   H2358     1.0  0.38373  0.14978  0.03391  1.0000
  H   H2359     1.0  0.43246  0.00367  0.28612  1.0000
  C   C1358     1.0  0.48739  0.02330  0.10448  1.0000
  C   C1359     1.0  0.46439  0.05477  0.19463  1.0000
  H   H2360     1.0  0.44742  0.02162  0.23535  1.0000
  C   C1360     1.0  0.48719  0.15082  0.06924  1.0000
  H   H2361     1.0  0.45167  0.03580  0.26747  1.0000
  C   C1361     1.0  0.43154  0.01681  0.36145  1.0000
  H   H2362     1.0  0.45501  0.04953  0.21813  1.0000
  H   H2363     1.0  0.46026  0.18609  0.02717  1.0000
  Fe  Fe199     1.0  0.49364  0.10518  0.14540  1.0000
  H   H2364     1.0  0.44503  0.03339  0.34825  1.0000
  C   C1362     1.0  0.40937  0.13700  0.12629  1.0000
  H   H2365     1.0  0.44895  0.20822  0.16603  1.0000
  H   H2366     1.0  0.46196  0.06032  0.15213  1.0000
  C   C1363     1.0  0.41782  0.21371  0.03012  1.0000
  H   H2367     1.0  0.44802  0.98699  0.33277  1.0000
  H   H2368     1.0  0.44352  0.99993  0.38553  1.0000
  C   C1364     1.0  0.46025  0.12359  0.11231  1.0000
  H   H2369     1.0  0.44886  0.18736  0.15506  1.0000
  Fe  Fe200     1.0  0.47776  0.11909  0.17163  1.0000
  C   C1365     1.0  0.44526  0.08904  0.22731  1.0000
  H   H2370     1.0  0.48199  0.11916  0.22252  1.0000
  H   H2371     1.0  0.39674  0.99579  0.45593  1.0000
  H   H2372     1.0  0.45903  0.02779  0.29043  1.0000
  H   H2373     1.0  0.42919  0.19044  0.16066  1.0000
  H   H2374     1.0  0.43521  0.08786  0.23575  1.0000
  C   C1366     1.0  0.37490  0.23277  0.00634  1.0000
  C   C1367     1.0  0.41400  0.21707  0.01645  1.0000
  S   S405      1.0  0.48983  0.09944  0.06970  1.0000
  H   H2375     1.0  0.42774  0.22715  0.15014  1.0000
  H   H2376     1.0  0.43294  0.13932  0.97963  1.0000
  H   H2377     1.0  0.44536  0.20381  0.01160  1.0000
  H   H2378     1.0  0.42165  0.12442  0.14294  1.0000
  H   H2379     1.0  0.29272  0.99165  0.38898  1.0000
  H   H2380     1.0  0.45182  0.09764  0.12264  1.0000
  S   S406      1.0  0.41940  0.99522  0.32110  1.0000
  C   C1368     1.0  0.43737  0.04151  0.13576  1.0000
  C   C1369     1.0  0.43641  0.05581  0.12682  1.0000
  C   C1370     1.0  0.43992  0.05794  0.11139  1.0000
  C   C1371     1.0  0.44443  0.04578  0.10478  1.0000
  C   C1372     1.0  0.44522  0.03146  0.11373  1.0000
  C   C1373     1.0  0.44170  0.02931  0.12920  1.0000
  H   H2381     1.0  0.43295  0.06526  0.13187  1.0000
  H   H2382     1.0  0.43898  0.06899  0.10463  1.0000
  H   H2383     1.0  0.44872  0.02203  0.10865  1.0000
  H   H2384     1.0  0.44238  0.01827  0.13606  1.0000
  H   H2385     1.0  0.43446  0.09445  0.13318  1.0000
  C   C1374     1.0  0.49435  0.03096  0.16940  1.0000
  H   H2386     1.0  0.40508  0.13566  0.11731  1.0000
  H   H2387     1.0  0.41290  0.11382  0.13721  1.0000
  C   C1375     1.0  0.43687  0.15680  0.08051  1.0000
  C   C1376     1.0  0.42307  0.16113  0.07643  1.0000
  C   C1377     1.0  0.41828  0.15135  0.07126  1.0000
  C   C1378     1.0  0.42744  0.13743  0.06984  1.0000
  C   C1379     1.0  0.44159  0.13355  0.07306  1.0000
  C   C1380     1.0  0.44615  0.14308  0.07865  1.0000
  H   H2388     1.0  0.41581  0.17170  0.07788  1.0000
  H   H2389     1.0  0.40736  0.15446  0.06866  1.0000
  H   H2390     1.0  0.44880  0.12291  0.07193  1.0000
  H   H2391     1.0  0.45677  0.13962  0.08181  1.0000
  C   C1381     1.0  0.45814  0.10334  0.20485  1.0000
  C   C1382     1.0  0.47118  0.09229  0.20556  1.0000
  C   C1383     1.0  0.47129  0.07969  0.21711  1.0000
  C   C1384     1.0  0.45837  0.07809  0.22806  1.0000
  H   H2392     1.0  0.48130  0.09358  0.19750  1.0000
  S   S407      1.0  0.38763  0.17703  0.99242  1.0000
  S   S408      1.0  0.44424  0.05211  0.98317  1.0000
  H   H2393     1.0  0.31715  0.99258  0.41772  1.0000
  C   C1385     1.0  0.47994  0.18603  0.15702  1.0000
  C   C1386     1.0  0.48393  0.19924  0.14840  1.0000
  H   H2394     1.0  0.41700  0.09255  0.01687  1.0000
  H   H2395     1.0  0.47470  0.18525  0.16861  1.0000
  Fe  Fe201     1.0  0.48987  0.02014  0.36608  1.0000
  H   H2396     1.0  0.43068  0.09637  0.02367  1.0000
  C   C1387     1.0  0.48095  0.08690  0.09917  1.0000
  H   H2397     1.0  0.36524  0.00078  0.33597  1.0000
  Fe  Fe202     1.0  0.43004  0.22268  0.08580  1.0000
  C   C1388     1.0  0.49234  0.00510  0.21384  1.0000
  H   H2398     1.0  0.47482  0.07658  0.12221  1.0000
  H   H2399     1.0  0.47394  0.08200  0.09587  1.0000
  H   H2400     1.0  0.45849  0.99963  0.31969  1.0000
  H   H2401     1.0  0.41380  0.04114  0.26438  1.0000
  C   C1389     1.0  0.44929  0.06307  0.99215  1.0000
  C   C1390     1.0  0.44848  0.05876  0.00746  1.0000
  C   C1391     1.0  0.45291  0.06712  0.01468  1.0000
  C   C1392     1.0  0.45830  0.07977  0.00657  1.0000
  C   C1393     1.0  0.45878  0.08425  0.99137  1.0000
  H   H2402     1.0  0.47940  0.16376  0.15739  1.0000
  H   H2403     1.0  0.44461  0.04882  0.01371  1.0000
  H   H2404     1.0  0.45243  0.06362  0.02642  1.0000
  H   H2405     1.0  0.46266  0.09417  0.98511  1.0000
  H   H2406     1.0  0.44003  0.20792  0.98843  1.0000
  H   H2407     1.0  0.49294  0.08439  0.22810  1.0000
  H   H2408     1.0  0.45639  0.01609  0.27184  1.0000
  C   C1394     1.0  0.44421  0.02815  0.24401  1.0000
  H   H2409     1.0  0.42976  0.10315  0.00446  1.0000
  H   H2410     1.0  0.48038  0.14408  0.07853  1.0000
  H   H2411     1.0  0.32534  0.02055  0.41991  1.0000
  H   H2412     1.0  0.45909  0.21204  0.01308  1.0000
  S   S409      1.0  0.47948  0.21476  0.15625  1.0000
  S   S410      1.0  0.45841  0.06262  0.24284  1.0000
  C   C1395     1.0  0.48146  0.08385  0.11410  1.0000
  N   N99       1.0  0.41762  0.12885  0.01725  1.0000
  C   C1396     1.0  0.40686  0.13859  0.02725  1.0000
  C   C1397     1.0  0.43251  0.12487  0.02151  1.0000
  C   C1398     1.0  0.41174  0.11509  0.01996  1.0000
  C   C1399     1.0  0.41828  0.13742  0.00149  1.0000
  S   S411      1.0  0.49302  0.15962  0.12750  1.0000
  H   H2413     1.0  0.48945  0.10699  0.21040  1.0000
  C   C1400     1.0  0.38793  0.03946  0.99526  1.0000
  S   S412      1.0  0.42077  0.00408  0.18377  1.0000
  H   H2414     1.0  0.40731  0.13343  0.03903  1.0000
  C   C1401     1.0  0.42991  0.13039  0.98928  1.0000
  H   H2415     1.0  0.44097  0.11713  0.01520  1.0000
  H   H2416     1.0  0.43144  0.11872  0.03326  1.0000
  H   H2417     1.0  0.40665  0.11158  0.03192  1.0000
  H   H2418     1.0  0.40263  0.11737  0.01399  1.0000
  H   H2419     1.0  0.40736  0.13936  0.99853  1.0000
  H   H2420     1.0  0.41970  0.14884  0.00001  1.0000
  H   H2421     1.0  0.46831  0.03426  0.21177  1.0000
  C   C1402     1.0  0.41702  0.04873  0.28214  1.0000
  H   H2422     1.0  0.48279  0.04828  0.12544  1.0000
  H   H2423     1.0  0.41491  0.00775  0.41332  1.0000
  H   H2424     1.0  0.39165  0.00004  0.43132  1.0000
  S   S413      1.0  0.45415  0.99635  0.16256  1.0000
  C   C1403     1.0  0.48749  0.21947  0.08007  1.0000
  H   H2425     1.0  0.24514  0.00063  0.47265  1.0000
  H   H2426     1.0  0.40494  0.21327  0.14432  1.0000
  H   H2427     1.0  0.45156  0.99414  0.21850  1.0000
  H   H2428     1.0  0.39158  0.04951  0.99476  1.0000
  H   H2429     1.0  0.48096  0.19021  0.98834  1.0000
  H   H2430     1.0  0.29653  0.00713  0.44421  1.0000
  C   C1404     1.0  0.29130  0.98441  0.39985  1.0000
  N   N100      1.0  0.43288  0.02547  0.27208  1.0000
  H   H2431     1.0  0.43392  0.00873  0.40990  1.0000
  H   H2432     1.0  0.42196  0.00857  0.42821  1.0000
  C   C1405     1.0  0.48960  0.05898  0.18514  1.0000
  H   H2433     1.0  0.41948  0.10671  0.09872  1.0000
  H   H2434     1.0  0.45455  0.03040  0.24501  1.0000
  S   S414      1.0  0.49010  0.01013  0.29196  1.0000
  C   C1406     1.0  0.39105  0.03497  0.98032  1.0000
  C   C1407     1.0  0.42970  0.99285  0.35796  1.0000
  H   H2435     1.0  0.42888  0.21079  0.17252  1.0000
  N   N101      1.0  0.36535  0.22846  0.02151  1.0000
  H   H2436     1.0  0.49252  0.05347  0.19601  1.0000
  H   H2437     1.0  0.43925  0.13878  0.11088  1.0000
  Fe  Fe203     1.0  0.43826  0.01649  0.16945  1.0000
  C   C1408     1.0  0.45317  0.22218  0.11968  1.0000
  S   S415      1.0  0.30510  0.03449  0.47050  1.0000
  H   H2438     1.0  0.42344  0.01811  0.29546  1.0000
  H   H2439     1.0  0.46133  0.20216  0.13454  1.0000
  H   H2440     1.0  0.48531  0.00605  0.34438  1.0000
  C   C1409     1.0  0.48048  0.16955  0.08389  1.0000
  N   N102      1.0  0.43731  0.20702  0.14189  1.0000
  H   H2441     1.0  0.47915  0.99279  0.27718  1.0000
  H   H2442     1.0  0.38856  0.14819  0.01516  1.0000
  H   H2443     1.0  0.46020  0.06680  0.19466  1.0000
  C   C1410     1.0  0.33077  0.00936  0.44688  1.0000
  H   H2444     1.0  0.34974  0.00665  0.47573  1.0000
  H   H2445     1.0  0.47673  0.05037  0.31836  1.0000
  H   H2446     1.0  0.38000  0.20233  0.00921  1.0000
  C   C1411     1.0  0.47712  0.15889  0.05806  1.0000
  C   C1412     1.0  0.38899  0.99046  0.43970  1.0000
  H   H2447     1.0  0.42406  0.19630  0.04834  1.0000
  H   H2448     1.0  0.31226  0.98513  0.44293  1.0000
  C   C1413     1.0  0.37259  0.20083  0.02038  1.0000
  C   C1414     1.0  0.42139  0.19896  0.03763  1.0000
  H   H2449     1.0  0.49373  0.21031  0.12662  1.0000
  H   H2450     1.0  0.45108  0.13359  0.02172  1.0000
  S   S416      1.0  0.41953  0.17662  0.00889  1.0000
  Fe  Fe204     1.0  0.49389  0.02515  0.26943  1.0000
  C   C1415     1.0  0.42108  0.10591  0.10991  1.0000
  H   H2451     1.0  0.44242  0.18135  0.12032  1.0000
  H   H2452     1.0  0.28928  0.03391  0.44509  1.0000
  H   H2453     1.0  0.44060  0.12421  0.99237  1.0000
  H   H2454     1.0  0.47833  0.10050  0.25372  1.0000
  C   C1416     1.0  0.42326  0.04085  0.26914  1.0000
  H   H2455     1.0  0.41029  0.99341  0.15730  1.0000
  H   H2456     1.0  0.33575  0.03656  0.45928  1.0000
  H   H2457     1.0  0.39947  0.14010  0.13504  1.0000
  C   C1417     1.0  0.49424  0.09035  0.23579  1.0000
  H   H2458     1.0  0.42522  0.12309  0.98556  1.0000
  H   H2459     1.0  0.44067  0.14500  0.00837  1.0000
  C   C1418     1.0  0.45392  0.18685  0.98623  1.0000
  H   H2460     1.0  0.39292  0.03014  0.00345  1.0000
  C   C1419     1.0  0.44762  0.02586  0.27473  1.0000
  C   C1420     1.0  0.44071  0.02826  0.35993  1.0000
  C   C1421     1.0  0.45500  0.99483  0.33166  1.0000
  C   C1422     1.0  0.44641  0.18645  0.12706  1.0000
  H   H2461     1.0  0.42605  0.09413  0.11411  1.0000
  H   H2462     1.0  0.45647  0.19036  0.11997  1.0000
  C   C1423     1.0  0.45744  0.20386  0.00782  1.0000
  H   H2463     1.0  0.44097  0.19374  0.17880  1.0000
  H   H2464     1.0  0.41510  0.14638  0.12213  1.0000
  H   H2465     1.0  0.40892  0.20986  0.16243  1.0000
  H   H2466     1.0  0.46981  0.04459  0.11789  1.0000
  C   C1424     1.0  0.43224  0.99426  0.23647  1.0000
  H   H2467     1.0  0.30833  0.03537  0.43943  1.0000
  C   C1425     1.0  0.41809  0.19092  0.01734  1.0000
  H   H2468     1.0  0.34988  0.22414  0.01138  1.0000
  H   H2469     1.0  0.44273  0.13312  0.12872  1.0000
  H   H2470     1.0  0.44223  0.11205  0.10115  1.0000
  H   H2471     1.0  0.37411  0.22632  0.99880  1.0000
  C   C1426     1.0  0.30046  0.02911  0.43890  1.0000
  H   H2472     1.0  0.31956  0.00874  0.40361  1.0000
  H   H2473     1.0  0.41527  0.99280  0.25660  1.0000
  H   H2474     1.0  0.46218  0.11846  0.10283  1.0000
  H   H2475     1.0  0.45638  0.09349  0.14585  1.0000
  H   H2476     1.0  0.34206  0.21208  0.03814  1.0000
  H   H2477     1.0  0.41429  0.04670  0.98219  1.0000
  H   H2478     1.0  0.45513  0.05114  0.19277  1.0000
  C   C1427     1.0  0.41952  0.12256  0.13292  1.0000
  H   H2479     1.0  0.47136  0.01927  0.13437  1.0000
  H   H2480     1.0  0.46611  0.11575  0.12078  1.0000
  H   H2481     1.0  0.33695  0.00280  0.42016  1.0000
  C   C1428     1.0  0.49061  0.20020  0.13339  1.0000
  C   C1429     1.0  0.46588  0.04643  0.21049  1.0000
  C   C1430     1.0  0.40295  0.99042  0.33262  1.0000
  N   N103      1.0  0.46165  0.20843  0.99113  1.0000
  H   H2482     1.0  0.34977  0.99080  0.44125  1.0000
  H   H2483     1.0  0.47425  0.08453  0.25120  1.0000
  C   C1431     1.0  0.32522  0.00857  0.42397  1.0000
  H   H2484     1.0  0.42509  0.05477  0.28276  1.0000
  S   S417      1.0  0.48772  0.99002  0.18015  1.0000
  C   C1432     1.0  0.43934  0.20286  0.16899  1.0000
  N   N104      1.0  0.32059  0.00461  0.44055  1.0000
  H   H2485     1.0  0.45004  0.02356  0.36576  1.0000
  H   H2486     1.0  0.40981  0.10918  0.11678  1.0000
  H   H2487     1.0  0.42970  0.04837  0.26031  1.0000
  H   H2488     1.0  0.32995  0.02150  0.44314  1.0000
  H   H2489     1.0  0.38583  0.22901  0.03899  1.0000
  N   N105      1.0  0.43406  0.11749  0.12268  1.0000
  C   C1433     1.0  0.48096  0.02890  0.33286  1.0000
  H   H2490     1.0  0.46551  0.13332  0.10823  1.0000
  N   N106      1.0  0.47826  0.05236  0.18254  1.0000
  H   H2491     1.0  0.38863  0.00793  0.32027  1.0000
  H   H2492     1.0  0.37569  0.04159  0.99994  1.0000
  H   H2493     1.0  0.48127  0.04042  0.29607  1.0000
  H   H2494     1.0  0.47330  0.15051  0.05498  1.0000
  C   C1434     1.0  0.30471  0.01242  0.44590  1.0000
  C   C1435     1.0  0.46190  0.05575  0.16405  1.0000
  H   H2495     1.0  0.47754  0.18943  0.01515  1.0000
  H   H2496     1.0  0.37743  0.18981  0.02667  1.0000
  S   S418      1.0  0.48410  0.21255  0.05551  1.0000
  H   H2497     1.0  0.49007  0.99617  0.32211  1.0000
  H   H2498     1.0  0.27035  0.98411  0.46080  1.0000
  C   C1436     1.0  0.44886  0.99031  0.38034  1.0000
  N   N107      1.0  0.44008  0.00294  0.35598  1.0000
  C   C1437     1.0  0.48396  0.03596  0.18342  1.0000
  C   C1438     1.0  0.49417  0.21660  0.06601  1.0000
  H   H2499     1.0  0.47439  0.03041  0.18643  1.0000
  Fe  Fe205     1.0  0.43013  0.21867  0.05630  1.0000
  C   C1439     1.0  0.42165  0.18755  0.03117  1.0000
  S   S419      1.0  0.41798  0.20956  0.07917  1.0000
  C   C1440     1.0  0.48582  0.00110  0.20449  1.0000
  C   C1441     1.0  0.47808  0.20248  0.98554  1.0000
  C   C1442     1.0  0.48553  0.05401  0.08805  1.0000
  H   H2500     1.0  0.44325  0.00783  0.26030  1.0000
  C   C1443     1.0  0.33285  0.03681  0.47086  1.0000
  H   H2501     1.0  0.43147  0.00331  0.11947  1.0000
  H   H2502     1.0  0.40750  0.00347  0.36924  1.0000
  H   H2503     1.0  0.42230  0.02259  0.35555  1.0000
  H   H2504     1.0  0.48536  0.01013  0.22284  1.0000
  C   C1444     1.0  0.44351  0.12880  0.11894  1.0000
  C   C1445     1.0  0.43147  0.11617  0.10847  1.0000
  H   H2505     1.0  0.41041  0.00847  0.27493  1.0000
  H   H2506     1.0  0.31077  0.98764  0.46907  1.0000
  H   H2507     1.0  0.47580  0.17938  0.10279  1.0000
  H   H2508     1.0  0.35498  0.03791  0.47125  1.0000
  H   H2509     1.0  0.43932  0.03418  0.29548  1.0000
  Fe  Fe206     1.0  0.46296  0.99431  0.18251  1.0000
  C   C1446     1.0  0.43390  0.19932  0.13203  1.0000
  C   C1447     1.0  0.38913  0.99861  0.32960  1.0000
  H   H2510     1.0  0.44804  0.11239  0.14530  1.0000
  C   C1448     1.0  0.48926  0.17482  0.13567  1.0000
  C   C1449     1.0  0.42492  0.00393  0.41823  1.0000
  C   C1450     1.0  0.40929  0.21753  0.15146  1.0000
  C   C1451     1.0  0.34759  0.00223  0.44272  1.0000
  H   H2511     1.0  0.42677  0.12720  0.10207  1.0000
  H   H2512     1.0  0.43686  0.09888  0.15446  1.0000
  C   C1452     1.0  0.44586  0.10190  0.14479  1.0000
  C   C1453     1.0  0.48611  0.01764  0.30757  1.0000
  C   C1454     1.0  0.42308  0.10117  0.01588  1.0000
  C   C1455     1.0  0.41406  0.20568  0.01011  1.0000
  C   C1456     1.0  0.41607  0.99306  0.37117  1.0000
  C   C1457     1.0  0.40973  0.01382  0.28390  1.0000
  H   H2513     1.0  0.49315  0.13196  0.09560  1.0000
  H   H2514     1.0  0.40999  0.14941  0.02492  1.0000
  H   H2515     1.0  0.29963  0.03108  0.42727  1.0000
  H   H2516     1.0  0.48482  0.20602  0.99112  1.0000
  H   H2517     1.0  0.42386  0.19458  0.13763  1.0000
  C   C1458     1.0  0.44814  0.02565  0.29061  1.0000
  H   H2518     1.0  0.46683  0.03345  0.14427  1.0000
  H   H2519     1.0  0.43093  0.20730  0.12193  1.0000
  C   C1459     1.0  0.44648  0.00755  0.33964  1.0000
  H   H2520     1.0  0.48523  0.02224  0.14203  1.0000
  C   C1460     1.0  0.45188  0.21189  0.13518  1.0000
  C   C1461     1.0  0.46605  0.18881  0.01536  1.0000
  H   H2521     1.0  0.48914  0.14635  0.10563  1.0000
  H   H2522     1.0  0.43336  0.14482  0.02791  1.0000
  C   C1462     1.0  0.39161  0.98822  0.45377  1.0000
  S   S420      1.0  0.41966  0.00293  0.22494  1.0000
  C   C1463     1.0  0.48456  0.01362  0.33388  1.0000
  C   C1464     1.0  0.37590  0.99458  0.33848  1.0000
  H   H2523     1.0  0.49235  0.01520  0.08432  1.0000
  S   S421      1.0  0.48503  0.01190  0.42213  1.0000
  H   H2524     1.0  0.36609  0.20959  0.04012  1.0000
  C   C1465     1.0  0.45418  0.07603  0.98422  1.0000
  C   C1466     1.0  0.31570  0.00471  0.41568  1.0000
  H   H2525     1.0  0.42467  0.17611  0.03687  1.0000
  C   C1467     1.0  0.44749  0.99066  0.23024  1.0000
  H   H2526     1.0  0.38378  0.21171  0.02894  1.0000
  H   H2527     1.0  0.42583  0.01842  0.25609  1.0000
  C   C1468     1.0  0.47957  0.03854  0.31921  1.0000
  H   H2528     1.0  0.42602  0.01423  0.37332  1.0000
  H   H2529     1.0  0.45089  0.21751  0.11155  1.0000
  H   H2530     1.0  0.47382  0.00325  0.20619  1.0000
  H   H2531     1.0  0.47579  0.21944  0.08465  1.0000
  H   H2532     1.0  0.40647  0.05685  0.28044  1.0000
  H   H2533     1.0  0.46988  0.07281  0.16804  1.0000
  H   H2534     1.0  0.44961  0.17760  0.13650  1.0000
  H   H2535     1.0  0.48314  0.16510  0.04768  1.0000
  C   C1469     1.0  0.42520  0.01504  0.28480  1.0000
  H   H2536     1.0  0.36138  0.20043  0.01956  1.0000
  H   H2537     1.0  0.47398  0.05741  0.09433  1.0000
  H   H2538     1.0  0.45450  0.01468  0.33749  1.0000
  H   H2539     1.0  0.47426  0.04943  0.21434  1.0000
  H   H2540     1.0  0.46701  0.22911  0.99029  1.0000
  H   H2541     1.0  0.46481  0.22378  0.11552  1.0000
  H   H2542     1.0  0.48140  0.07127  0.21753  1.0000
  C   C1470     1.0  0.48222  0.03292  0.30656  1.0000
  H   H2543     1.0  0.43744  0.01431  0.33377  1.0000
  H   H2544     1.0  0.41067  0.98388  0.37220  1.0000
  Fe  Fe207     1.0  0.43231  0.00106  0.20191  1.0000
  H   H2545     1.0  0.32721  0.00779  0.45912  1.0000
  H   H2546     1.0  0.43930  0.99538  0.44348  1.0000
  C   C1471     1.0  0.32152  0.98813  0.44554  1.0000
  H   H2547     1.0  0.42389  0.22808  0.13308  1.0000
  H   H2548     1.0  0.45053  0.06014  0.17018  1.0000
  H   H2549     1.0  0.43670  0.03872  0.23997  1.0000
  H   H2550     1.0  0.40146  0.22815  0.15317  1.0000
  H   H2551     1.0  0.40497  0.00661  0.29433  1.0000
  H   H2552     1.0  0.30365  0.00976  0.41870  1.0000
  H   H2553     1.0  0.48556  0.04680  0.08088  1.0000
  C   C1472     1.0  0.48430  0.17886  0.09235  1.0000
  C   C1473     1.0  0.45207  0.20360  0.98412  1.0000
  C   C1474     1.0  0.49302  0.18812  0.12699  1.0000
  S   S422      1.0  0.49026  0.04982  0.26426  1.0000
  H   H2554     1.0  0.48471  0.01365  0.11340  1.0000
  H   H2555     1.0  0.35320  0.00893  0.43239  1.0000
  H   H2556     1.0  0.35309  0.00138  0.45171  1.0000
  C   C1475     1.0  0.48971  0.09605  0.08858  1.0000
  H   H2557     1.0  0.44641  0.18497  0.98031  1.0000
  H   H2558     1.0  0.47658  0.02869  0.10105  1.0000
  H   H2559     1.0  0.49095  0.22393  0.09928  1.0000
  Fe  Fe208     1.0  0.49235  0.01042  0.39823  1.0000
  H   H2560     1.0  0.38690  0.22989  0.00667  1.0000
  C   C1476     1.0  0.43645  0.98456  0.44507  1.0000
  S   S423      1.0  0.26183  0.98914  0.39865  1.0000
  S   S424      1.0  0.49017  0.08685  0.13741  1.0000
  N   N108      1.0  0.49338  0.16053  0.07478  1.0000
  H   H2561     1.0  0.46543  0.18135  0.98150  1.0000
  C   C1477     1.0  0.42890  0.98685  0.42204  1.0000
  C   C1478     1.0  0.48713  0.00802  0.32127  1.0000
  H   H2562     1.0  0.41218  0.00555  0.13953  1.0000
  C   C1479     1.0  0.42463  0.02402  0.98177  1.0000
  H   H2563     1.0  0.46152  0.00159  0.36035  1.0000
  H   H2564     1.0  0.41651  0.01780  0.98980  1.0000
  C   C1480     1.0  0.45290  0.99489  0.36343  1.0000
  H   H2565     1.0  0.42845  0.99552  0.14707  1.0000
  H   H2566     1.0  0.47039  0.10159  0.23832  1.0000
  C   C1481     1.0  0.49017  0.09053  0.11860  1.0000
  H   H2567     1.0  0.48423  0.19028  0.08572  1.0000
  C   C1482     1.0  0.41748  0.99485  0.14598  1.0000
  H   H2568     1.0  0.41141  0.22847  0.01060  1.0000
  H   H2569     1.0  0.38232  0.98453  0.24571  1.0000
  H   H2570     1.0  0.43235  0.02517  0.98790  1.0000
  C   C1483     1.0  0.47844  0.09475  0.24525  1.0000
  C   C1484     1.0  0.48017  0.03929  0.12213  1.0000
  H   H2571     1.0  0.43917  0.00759  0.09326  1.0000
  C   C1485     1.0  0.45888  0.22512  0.98686  1.0000
  S   S425      1.0  0.41904  0.22803  0.03714  1.0000
  H   H2572     1.0  0.43431  0.23139  0.98922  1.0000
  H   H2573     1.0  0.49179  0.13296  0.19892  1.0000
  H   H2574     1.0  0.41891  0.99161  0.38187  1.0000
  C   C1486     1.0  0.49275  0.11322  0.21658  1.0000
  H   H2575     1.0  0.45931  0.98490  0.38431  1.0000
  Fe  Fe209     1.0  0.49287  0.13740  0.14329  1.0000
  H   H2576     1.0  0.49004  0.03096  0.19254  1.0000
  H   H2577     1.0  0.48848  0.02559  0.16467  1.0000
  H   H2578     1.0  0.46849  0.98354  0.43669  1.0000
  C   C1487     1.0  0.33867  0.22419  0.03401  1.0000
  H   H2579     1.0  0.42408  0.98670  0.44916  1.0000
  H   H2580     1.0  0.44034  0.23122  0.00546  1.0000
  C   C1488     1.0  0.42706  0.98994  0.25174  1.0000
  C   C1489     1.0  0.48915  0.98806  0.26943  1.0000
  H   H2581     1.0  0.45873  0.98451  0.35961  1.0000
  C   C1490     1.0  0.34972  0.22991  0.01989  1.0000
  H   H2582     1.0  0.32756  0.22633  0.03135  1.0000
  H   H2583     1.0  0.45108  0.99254  0.12817  1.0000
  C   C1491     1.0  0.45512  0.98452  0.42117  1.0000
  H   H2584     1.0  0.33709  0.23001  0.04290  1.0000
  C   C1492     1.0  0.42893  0.99547  0.11455  1.0000
  H   H2585     1.0  0.48512  0.98691  0.26025  1.0000
  H   H2586     1.0  0.43680  0.99023  0.09240  1.0000
  H   H2587     1.0  0.49204  0.11829  0.24174  1.0000
  S   S426      1.0  0.27155  0.01699  0.47511  1.0000
  H   H2588     1.0  0.45158  0.99116  0.10033  1.0000
  C   C1493     1.0  0.43981  0.99586  0.09934  1.0000
  H   H2589     1.0  0.49275  0.17988  0.05668  1.0000
  S   S427      1.0  0.49388  0.13361  0.16696  1.0000
  N   N109      1.0  0.49265  0.03349  0.11024  1.0000
  Fe  Fe210     1.0  0.48969  0.23326  0.14067  1.0000
  C   C1494     1.0  0.49494  0.99448  0.19286  1.0000
  S   S428      1.0  0.44073  0.23313  0.06289  1.0000
  Fe  Fe211     1.0  0.38087  0.19912  0.97783  1.0000
  H   H2590     1.0  0.44580  0.23329  0.11999  1.0000
  S   S429      1.0  0.38076  0.98353  0.41823  1.0000
  H   H2591     1.0  0.41828  0.98354  0.42834  1.0000
  Fe  Fe212     1.0  0.39825  0.16911  0.97147  1.0000
  C   C1495     1.0  0.34235  0.00008  0.49951  1.0000
  C   C1496     1.0  0.48062  0.10264  0.82206  1.0000
  N   N110      1.0  0.44487  0.17919  0.90206  1.0000
  H   H2592     1.0  0.36356  0.02906  0.58607  1.0000
  C   C1497     1.0  0.41701  0.03955  0.97421  1.0000
  H   H2593     1.0  0.24581  0.99142  0.59739  1.0000
  H   H2594     1.0  0.36613  0.98860  0.76039  1.0000
  H   H2595     1.0  0.37131  0.04380  0.56205  1.0000
  S   S430      1.0  0.47417  0.07311  0.67511  1.0000
  H   H2596     1.0  0.37288  0.06057  0.53584  1.0000
  Fe  Fe213     1.0  0.48427  0.03134  0.69039  1.0000
  S   S431      1.0  0.46065  0.04376  0.69102  1.0000
  H   H2597     1.0  0.44551  0.00229  0.67189  1.0000
  Fe  Fe214     1.0  0.46922  0.05513  0.66784  1.0000
  S   S432      1.0  0.45268  0.06182  0.65299  1.0000
  Fe  Fe215     1.0  0.46729  0.06057  0.69824  1.0000
  S   S433      1.0  0.45000  0.07291  0.71430  1.0000
  H   H2598     1.0  0.47822  0.20400  0.96214  1.0000
  H   H2599     1.0  0.48109  0.03152  0.77221  1.0000
  Fe  Fe216     1.0  0.39314  0.01961  0.62742  1.0000
  S   S434      1.0  0.40169  0.04049  0.61857  1.0000
  C   C1498     1.0  0.29175  0.00403  0.55660  1.0000
  Fe  Fe217     1.0  0.40567  0.00954  0.59818  1.0000
  S   S435      1.0  0.41601  0.02920  0.58738  1.0000
  C   C1499     1.0  0.34904  0.04835  0.54870  1.0000
  Fe  Fe218     1.0  0.42272  0.02568  0.60890  1.0000
  S   S436      1.0  0.44597  0.02439  0.61146  1.0000
  Fe  Fe219     1.0  0.39400  0.04183  0.59818  1.0000
  S   S437      1.0  0.37975  0.06030  0.58481  1.0000
  C   C1500     1.0  0.37677  0.99871  0.65889  1.0000
  S   S438      1.0  0.38349  0.02229  0.60806  1.0000
  C   C1501     1.0  0.36384  0.99762  0.72434  1.0000
  H   H2600     1.0  0.26862  0.07203  0.53477  1.0000
  C   C1502     1.0  0.32546  0.03794  0.50062  1.0000
  H   H2601     1.0  0.49178  0.10979  0.90494  1.0000
  S   S439      1.0  0.40064  0.00110  0.77031  1.0000
  S   S440      1.0  0.44145  0.00386  0.76242  1.0000
  S   S441      1.0  0.29209  0.99264  0.68357  1.0000
  H   H2602     1.0  0.46476  0.99761  0.58591  1.0000
  H   H2603     1.0  0.24715  0.04121  0.55078  1.0000
  S   S442      1.0  0.38627  0.00148  0.73455  1.0000
  C   C1503     1.0  0.25364  0.98799  0.67702  1.0000
  H   H2604     1.0  0.27084  0.00020  0.66523  1.0000
  H   H2605     1.0  0.25067  0.05568  0.48341  1.0000
  S   S443      1.0  0.48119  0.05958  0.79855  1.0000
  C   C1504     1.0  0.37423  0.03733  0.53516  1.0000
  H   H2606     1.0  0.46357  0.18256  0.88347  1.0000
  S   S444      1.0  0.39547  0.14657  0.97209  1.0000
  Fe  Fe220     1.0  0.29484  0.01781  0.60971  1.0000
  H   H2607     1.0  0.26364  0.08592  0.51336  1.0000
  H   H2608     1.0  0.46516  0.01479  0.53271  1.0000
  Fe  Fe221     1.0  0.48258  0.07714  0.77769  1.0000
  S   S445      1.0  0.46227  0.08852  0.76841  1.0000
  H   H2609     1.0  0.24732  0.99221  0.66846  1.0000
  H   H2610     1.0  0.37687  0.23045  0.96160  1.0000
  C   C1505     1.0  0.36844  0.03335  0.56211  1.0000
  C   C1506     1.0  0.44846  0.16335  0.90058  1.0000
  H   H2611     1.0  0.37921  0.02508  0.56165  1.0000
  Fe  Fe222     1.0  0.46236  0.99084  0.86079  1.0000
  S   S446      1.0  0.44052  0.00620  0.86727  1.0000
  C   C1507     1.0  0.35559  0.23188  0.97709  1.0000
  H   H2612     1.0  0.44920  0.02969  0.53411  1.0000
  S   S447      1.0  0.42888  0.99019  0.90980  1.0000
  Fe  Fe223     1.0  0.43180  0.99537  0.85468  1.0000
  S   S448      1.0  0.41863  0.00948  0.83781  1.0000
  C   C1508     1.0  0.31805  0.02239  0.64148  1.0000
  H   H2613     1.0  0.43707  0.01706  0.55821  1.0000
  Fe  Fe224     1.0  0.47091  0.05786  0.92856  1.0000
  S   S449      1.0  0.45448  0.07330  0.91562  1.0000
  H   H2614     1.0  0.34454  0.99808  0.62032  1.0000
  Fe  Fe225     1.0  0.44884  0.05880  0.95817  1.0000
  S   S450      1.0  0.43046  0.07379  0.94735  1.0000
  Fe  Fe226     1.0  0.43859  0.05940  0.93069  1.0000
  S   S451      1.0  0.42302  0.05373  0.92034  1.0000
  Fe  Fe227     1.0  0.44809  0.08605  0.93348  1.0000
  S   S452      1.0  0.44593  0.11065  0.92913  1.0000
  S   S453      1.0  0.45539  0.04312  0.94279  1.0000
  S   S454      1.0  0.46613  0.07178  0.94506  1.0000
  N   N111      1.0  0.36209  0.03520  0.54891  1.0000
  H   H2615     1.0  0.26713  0.08437  0.61554  1.0000
  C   C1509     1.0  0.48420  0.20712  0.96872  1.0000
  H   H2616     1.0  0.41235  0.05357  0.66524  1.0000
  S   S455      1.0  0.29309  0.05679  0.58411  1.0000
  S   S456      1.0  0.32838  0.98420  0.69845  1.0000
  S   S457      1.0  0.28476  0.02430  0.58998  1.0000
  Fe  Fe228     1.0  0.27284  0.00911  0.51630  1.0000
  H   H2617     1.0  0.39160  0.00624  0.68968  1.0000
  H   H2618     1.0  0.26418  0.12095  0.62360  1.0000
  Fe  Fe229     1.0  0.40656  0.01092  0.50092  1.0000
  S   S458      1.0  0.39750  0.03343  0.48805  1.0000
  H   H2619     1.0  0.34001  0.04552  0.53119  1.0000
  S   S459      1.0  0.49274  0.04141  0.66648  1.0000
  H   H2620     1.0  0.43732  0.00902  0.68875  1.0000
  S   S460      1.0  0.31245  0.05822  0.61556  1.0000
  H   H2621     1.0  0.26173  0.01017  0.58206  1.0000
  H   H2622     1.0  0.43199  0.05308  0.72543  1.0000
  H   H2623     1.0  0.36234  0.99781  0.55293  1.0000
  H   H2624     1.0  0.39781  0.02816  0.73825  1.0000
  C   C1510     1.0  0.34897  0.98484  0.75228  1.0000
  C   C1511     1.0  0.34338  0.05417  0.53422  1.0000
  C   C1512     1.0  0.40644  0.98895  0.55866  1.0000
  C   C1513     1.0  0.28645  0.01001  0.54361  1.0000
  C   C1514     1.0  0.29110  0.02235  0.53368  1.0000
  C   C1515     1.0  0.30040  0.02920  0.53714  1.0000
  H   H2625     1.0  0.49040  0.10899  0.85586  1.0000
  H   H2626     1.0  0.28621  0.07839  0.60809  1.0000
  H   H2627     1.0  0.44749  0.19130  0.91664  1.0000
  C   C1516     1.0  0.42866  0.00796  0.91159  1.0000
  C   C1517     1.0  0.42027  0.02056  0.90391  1.0000
  C   C1518     1.0  0.41882  0.03453  0.90658  1.0000
  C   C1519     1.0  0.42623  0.03612  0.91648  1.0000
  C   C1520     1.0  0.43523  0.02361  0.92366  1.0000
  C   C1521     1.0  0.43613  0.00952  0.92149  1.0000
  H   H2628     1.0  0.41438  0.01946  0.89634  1.0000
  H   H2629     1.0  0.41180  0.04413  0.90102  1.0000
  H   H2630     1.0  0.44116  0.02470  0.93118  1.0000
  H   H2631     1.0  0.44268  0.99981  0.92743  1.0000
  H   H2632     1.0  0.25224  0.06484  0.61843  1.0000
  S   S461      1.0  0.42031  0.01053  0.51665  1.0000
  H   H2633     1.0  0.42941  0.16418  0.89142  1.0000
  S   S462      1.0  0.48630  0.00711  0.70036  1.0000
  H   H2634     1.0  0.33861  0.01802  0.61494  1.0000
  H   H2635     1.0  0.35177  0.05888  0.52488  1.0000
  H   H2636     1.0  0.46441  0.02570  0.82164  1.0000
  H   H2637     1.0  0.48435  0.07788  0.89978  1.0000
  H   H2638     1.0  0.47913  0.11836  0.71572  1.0000
  H   H2639     1.0  0.25907  0.06248  0.51180  1.0000
  H   H2640     1.0  0.28701  0.02701  0.52367  1.0000
  S   S463      1.0  0.28213  0.03825  0.61804  1.0000
  C   C1522     1.0  0.42830  0.18573  0.90542  1.0000
  C   C1523     1.0  0.30546  0.02343  0.55026  1.0000
  H   H2641     1.0  0.46064  0.22914  0.97467  1.0000
  H   H2642     1.0  0.34669  0.02052  0.55900  1.0000
  H   H2643     1.0  0.47419  0.09979  0.94436  1.0000
  H   H2644     1.0  0.35779  0.00945  0.61448  1.0000
  H   H2645     1.0  0.36954  0.00259  0.71351  1.0000
  H   H2646     1.0  0.41398  0.06318  0.73164  1.0000
  H   H2647     1.0  0.46079  0.15921  0.89761  1.0000
  C   C1524     1.0  0.45172  0.20419  0.88702  1.0000
  H   H2648     1.0  0.42235  0.16501  0.92075  1.0000
  C   C1525     1.0  0.41033  0.99970  0.83064  1.0000
  C   C1526     1.0  0.40638  0.00607  0.81698  1.0000
  C   C1527     1.0  0.40004  0.99840  0.81084  1.0000
  H   H2649     1.0  0.42342  0.18787  0.89562  1.0000
  S   S464      1.0  0.27330  0.00263  0.54027  1.0000
  H   H2650     1.0  0.40823  0.01693  0.81110  1.0000
  H   H2651     1.0  0.39712  0.00339  0.80026  1.0000
  S   S465      1.0  0.49426  0.08994  0.78535  1.0000
  C   C1528     1.0  0.40888  0.01294  0.55948  1.0000
  C   C1529     1.0  0.41223  0.01680  0.54399  1.0000
  C   C1530     1.0  0.45263  0.00178  0.58636  1.0000
  H   H2652     1.0  0.43381  0.00752  0.71866  1.0000
  H   H2653     1.0  0.44438  0.14836  0.88982  1.0000
  H   H2654     1.0  0.40861  0.02076  0.56565  1.0000
  H   H2655     1.0  0.41492  0.02744  0.53835  1.0000
  H   H2656     1.0  0.37060  0.03750  0.52510  1.0000
  H   H2657     1.0  0.37700  0.00632  0.54106  1.0000
  S   S466      1.0  0.38952  0.19070  0.95693  1.0000
  H   H2658     1.0  0.37319  0.00444  0.56087  1.0000
  H   H2659     1.0  0.34425  0.02519  0.65792  1.0000
  C   C1531     1.0  0.40751  0.98579  0.83837  1.0000
  S   S467      1.0  0.25684  0.00123  0.50896  1.0000
  C   C1532     1.0  0.36096  0.06010  0.59328  1.0000
  C   C1533     1.0  0.35024  0.06397  0.58469  1.0000
  C   C1534     1.0  0.33536  0.06300  0.59145  1.0000
  C   C1535     1.0  0.33111  0.05873  0.60684  1.0000
  C   C1536     1.0  0.34173  0.05521  0.61542  1.0000
  C   C1537     1.0  0.35669  0.05563  0.60864  1.0000
  H   H2660     1.0  0.35353  0.06748  0.57283  1.0000
  H   H2661     1.0  0.32715  0.06581  0.58479  1.0000
  H   H2662     1.0  0.33990  0.99962  0.66567  1.0000
  H   H2663     1.0  0.36489  0.05274  0.61533  1.0000
  C   C1538     1.0  0.47470  0.00546  0.71810  1.0000
  C   C1539     1.0  0.47072  0.01719  0.72524  1.0000
  C   C1540     1.0  0.46105  0.01631  0.73914  1.0000
  C   C1541     1.0  0.45495  0.00384  0.74585  1.0000
  C   C1542     1.0  0.45887  0.99204  0.73877  1.0000
  C   C1543     1.0  0.46890  0.99278  0.72495  1.0000
  H   H2664     1.0  0.47508  0.02699  0.72008  1.0000
  H   H2665     1.0  0.45793  0.02559  0.74435  1.0000
  S   S468      1.0  0.38511  0.00319  0.50718  1.0000
  C   C1544     1.0  0.48720  0.09058  0.83187  1.0000
  C   C1545     1.0  0.45887  0.08263  0.75426  1.0000
  C   C1546     1.0  0.44697  0.09121  0.74780  1.0000
  C   C1547     1.0  0.44432  0.08778  0.73579  1.0000
  C   C1548     1.0  0.45364  0.07583  0.72996  1.0000
  C   C1549     1.0  0.46533  0.06680  0.73665  1.0000
  C   C1550     1.0  0.46790  0.07017  0.74893  1.0000
  H   H2666     1.0  0.43989  0.10076  0.75195  1.0000
  H   H2667     1.0  0.43518  0.09469  0.73077  1.0000
  H   H2668     1.0  0.47238  0.05736  0.73232  1.0000
  H   H2669     1.0  0.47697  0.06337  0.75406  1.0000
  C   C1551     1.0  0.45146  0.05135  0.64120  1.0000
  C   C1552     1.0  0.46213  0.03852  0.63859  1.0000
  C   C1553     1.0  0.46045  0.03041  0.62931  1.0000
  C   C1554     1.0  0.44801  0.03494  0.62278  1.0000
  C   C1555     1.0  0.43741  0.04777  0.62538  1.0000
  C   C1556     1.0  0.43916  0.05595  0.63450  1.0000
  H   H2670     1.0  0.47168  0.03491  0.64367  1.0000
  H   H2671     1.0  0.46876  0.02054  0.62727  1.0000
  H   H2672     1.0  0.42794  0.05153  0.62020  1.0000
  H   H2673     1.0  0.43092  0.06592  0.63638  1.0000
  H   H2674     1.0  0.40246  0.02118  0.94264  1.0000
  C   C1557     1.0  0.42132  0.14284  0.95077  1.0000
  C   C1558     1.0  0.43251  0.13468  0.94140  1.0000
  C   C1559     1.0  0.43220  0.12018  0.94168  1.0000
  C   C1560     1.0  0.42081  0.11373  0.95164  1.0000
  H   H2675     1.0  0.24649  0.08273  0.48081  1.0000
  H   H2676     1.0  0.42147  0.15408  0.95038  1.0000
  H   H2677     1.0  0.44140  0.13959  0.93390  1.0000
  H   H2678     1.0  0.42042  0.10261  0.95195  1.0000
  S   S469      1.0  0.29264  0.00117  0.49947  1.0000
  H   H2679     1.0  0.46668  0.12638  0.90750  1.0000
  C   C1561     1.0  0.43294  0.22289  0.95056  1.0000
  C   C1562     1.0  0.44932  0.01292  0.55453  1.0000
  C   C1563     1.0  0.25654  0.11635  0.62029  1.0000
  H   H2680     1.0  0.34078  0.01353  0.52225  1.0000
  H   H2681     1.0  0.26286  0.05818  0.56102  1.0000
  C   C1564     1.0  0.47758  0.09851  0.69683  1.0000
  H   H2682     1.0  0.32177  0.03285  0.63957  1.0000
  H   H2683     1.0  0.27573  0.09076  0.57208  1.0000
  C   C1565     1.0  0.47473  0.12725  0.91340  1.0000
  C   C1566     1.0  0.45122  0.16850  0.92810  1.0000
  H   H2684     1.0  0.43972  0.16730  0.93359  1.0000
  H   H2685     1.0  0.45887  0.20472  0.89404  1.0000
  H   H2686     1.0  0.46619  0.11689  0.95013  1.0000
  H   H2687     1.0  0.38871  0.05635  0.95541  1.0000
  C   C1567     1.0  0.41846  0.17715  0.91873  1.0000
  C   C1568     1.0  0.40868  0.03480  0.65884  1.0000
  C   C1569     1.0  0.25028  0.06892  0.51937  1.0000
  H   H2688     1.0  0.26265  0.12302  0.59659  1.0000
  S   S470      1.0  0.31550  0.03306  0.55538  1.0000
  C   C1570     1.0  0.42413  0.04743  0.74880  1.0000
  N   N112      1.0  0.41478  0.04116  0.72908  1.0000
  H   H2689     1.0  0.38382  0.02766  0.53560  1.0000
  H   H2690     1.0  0.45846  0.15767  0.92628  1.0000
  H   H2691     1.0  0.43096  0.03607  0.75121  1.0000
  H   H2692     1.0  0.28010  0.07439  0.63520  1.0000
  H   H2693     1.0  0.45521  0.98680  0.54300  1.0000
  C   C1571     1.0  0.30141  0.01065  0.55984  1.0000
  H   H2694     1.0  0.45590  0.02337  0.89583  1.0000
  C   C1572     1.0  0.33334  0.02282  0.66463  1.0000
  Fe  Fe230     1.0  0.41083  0.19648  0.95670  1.0000
  H   H2695     1.0  0.43755  0.03129  0.71908  1.0000
  C   C1573     1.0  0.45300  0.01749  0.53747  1.0000
  H   H2696     1.0  0.45439  0.07978  0.97258  1.0000
  H   H2697     1.0  0.26799  0.08388  0.59105  1.0000
  H   H2698     1.0  0.35236  0.99672  0.53079  1.0000
  S   S471      1.0  0.41442  0.00461  0.61876  1.0000
  C   C1574     1.0  0.42827  0.00693  0.64907  1.0000
  C   C1575     1.0  0.44687  0.99436  0.57751  1.0000
  H   H2699     1.0  0.41443  0.01179  0.72702  1.0000
  C   C1576     1.0  0.39780  0.03024  0.94876  1.0000
  H   H2700     1.0  0.32034  0.00609  0.67051  1.0000
  S   S472      1.0  0.31554  0.02617  0.59775  1.0000
  H   H2701     1.0  0.30291  0.03946  0.53013  1.0000
  C   C1577     1.0  0.48119  0.11936  0.83655  1.0000
  H   H2702     1.0  0.43041  0.02154  0.73691  1.0000
  S   S473      1.0  0.35372  0.03770  0.50176  1.0000
  N   N113      1.0  0.27805  0.10226  0.60266  1.0000
  C   C1578     1.0  0.28184  0.10015  0.58701  1.0000
  C   C1579     1.0  0.28937  0.10979  0.60391  1.0000
  Fe  Fe231     1.0  0.25360  0.02387  0.49415  1.0000
  H   H2703     1.0  0.47238  0.12630  0.81687  1.0000
  C   C1580     1.0  0.27810  0.08734  0.61319  1.0000
  C   C1581     1.0  0.30591  0.10208  0.59912  1.0000
  H   H2704     1.0  0.44589  0.18875  0.87865  1.0000
  C   C1582     1.0  0.42004  0.05384  0.70144  1.0000
  H   H2705     1.0  0.28306  0.11078  0.57891  1.0000
  C   C1583     1.0  0.34458  0.01020  0.63670  1.0000
  H   H2706     1.0  0.28773  0.11107  0.61535  1.0000
  H   H2707     1.0  0.28794  0.12132  0.59710  1.0000
  H   H2708     1.0  0.39612  0.04066  0.94024  1.0000
  H   H2709     1.0  0.27479  0.09379  0.63450  1.0000
  N   N114      1.0  0.33992  0.98721  0.51239  1.0000
  Fe  Fe232     1.0  0.39808  0.99053  0.75343  1.0000
  C   C1584     1.0  0.33056  0.00872  0.66230  1.0000
  C   C1585     1.0  0.34625  0.00883  0.62077  1.0000
  C   C1586     1.0  0.45172  0.18808  0.88737  1.0000
  H   H2710     1.0  0.30971  0.10458  0.58691  1.0000
  H   H2711     1.0  0.31308  0.10626  0.60357  1.0000
  H   H2712     1.0  0.30791  0.08992  0.60322  1.0000
  N   N115      1.0  0.32955  0.00916  0.64690  1.0000
  C   C1587     1.0  0.36809  0.00687  0.55124  1.0000
  H   H2713     1.0  0.41418  0.05969  0.69229  1.0000
  C   C1588     1.0  0.38881  0.04817  0.74598  1.0000
  H   H2714     1.0  0.45555  0.17183  0.93594  1.0000
  C   C1589     1.0  0.28184  0.08536  0.62827  1.0000
  H   H2715     1.0  0.42615  0.19693  0.90763  1.0000
  C   C1590     1.0  0.34077  0.00265  0.53006  1.0000
  H   H2716     1.0  0.43685  0.99458  0.55146  1.0000
  N   N116      1.0  0.41639  0.02207  0.66923  1.0000
  S   S474      1.0  0.48291  0.99970  0.85620  1.0000
  H   H2717     1.0  0.33926  0.04569  0.55760  1.0000
  C   C1591     1.0  0.43131  0.02494  0.66865  1.0000
  H   H2718     1.0  0.27513  0.05529  0.52842  1.0000
  C   C1592     1.0  0.35656  0.02176  0.54970  1.0000
  H   H2719     1.0  0.26020  0.10233  0.58155  1.0000
  C   C1593     1.0  0.24892  0.04595  0.53871  1.0000
  S   S475      1.0  0.42477  0.20708  0.93556  1.0000
  C   C1594     1.0  0.35105  0.99235  0.72584  1.0000
  H   H2720     1.0  0.30548  0.00603  0.56992  1.0000
  H   H2721     1.0  0.42982  0.03471  0.67331  1.0000
  H   H2722     1.0  0.34717  0.03656  0.57874  1.0000
  C   C1595     1.0  0.49009  0.11491  0.93956  1.0000
  H   H2723     1.0  0.35153  0.05782  0.55129  1.0000
  C   C1596     1.0  0.34356  0.98600  0.73985  1.0000
  H   H2724     1.0  0.40068  0.11692  0.96855  1.0000
  H   H2725     1.0  0.41358  0.04846  0.75733  1.0000
  H   H2726     1.0  0.34163  0.99085  0.48115  1.0000
  H   H2727     1.0  0.45658  0.20958  0.87556  1.0000
  H   H2728     1.0  0.44481  0.15580  0.91114  1.0000
  H   H2729     1.0  0.40722  0.00633  0.66432  1.0000
  C   C1597     1.0  0.40976  0.13649  0.96048  1.0000
  H   H2730     1.0  0.32423  0.03262  0.66239  1.0000
  H   H2731     1.0  0.41249  0.01834  0.96326  1.0000
  H   H2732     1.0  0.35248  0.02307  0.53961  1.0000
  H   H2733     1.0  0.48426  0.98882  0.83066  1.0000
  H   H2734     1.0  0.44674  0.16563  0.87769  1.0000
  H   H2735     1.0  0.42359  0.01560  0.64028  1.0000
  H   H2736     1.0  0.41624  0.03692  0.64779  1.0000
  H   H2737     1.0  0.35362  0.00164  0.64130  1.0000
  Fe  Fe233     1.0  0.30437  0.03468  0.57865  1.0000
  H   H2738     1.0  0.42271  0.99813  0.67263  1.0000
  H   H2739     1.0  0.33377  0.02105  0.67638  1.0000
  H   H2740     1.0  0.47790  0.10093  0.81263  1.0000
  Fe  Fe234     1.0  0.30226  0.04719  0.60459  1.0000
  H   H2741     1.0  0.29375  0.08527  0.62708  1.0000
  C   C1598     1.0  0.41273  0.00675  0.53576  1.0000
  C   C1599     1.0  0.26692  0.99255  0.67523  1.0000
  H   H2742     1.0  0.28830  0.99438  0.56424  1.0000
  H   H2743     1.0  0.42573  0.06173  0.70292  1.0000
  H   H2744     1.0  0.33846  0.05205  0.62733  1.0000
  C   C1600     1.0  0.48755  0.10725  0.84651  1.0000
  H   H2745     1.0  0.34731  0.02097  0.63569  1.0000
  C   C1601     1.0  0.32500  0.99532  0.64714  1.0000
  C   C1602     1.0  0.40908  0.03009  0.95757  1.0000
  H   H2746     1.0  0.38409  0.04495  0.75802  1.0000
  H   H2747     1.0  0.40666  0.02922  0.75135  1.0000
  Fe  Fe235     1.0  0.37661  0.02505  0.49297  1.0000
  H   H2748     1.0  0.29282  0.09228  0.58475  1.0000
  C   C1603     1.0  0.40854  0.04885  0.71552  1.0000
  H   H2749     1.0  0.42158  0.02170  0.70864  1.0000
  N   N117      1.0  0.40371  0.04015  0.96837  1.0000
  S   S476      1.0  0.49095  0.16285  0.89449  1.0000
  C   C1604     1.0  0.44202  0.01217  0.67677  1.0000
  H   H2750     1.0  0.35017  0.00601  0.50088  1.0000
  C   C1605     1.0  0.47738  0.11698  0.82455  1.0000
  H   H2751     1.0  0.47504  0.10421  0.68582  1.0000
  H   H2752     1.0  0.41926  0.03284  0.94940  1.0000
  H   H2753     1.0  0.38002  0.04969  0.73988  1.0000
  H   H2754     1.0  0.46309  0.98554  0.80613  1.0000
  S   S477      1.0  0.26819  0.03233  0.50297  1.0000
  H   H2755     1.0  0.39840  0.05823  0.65474  1.0000
  C   C1606     1.0  0.40314  0.04971  0.66365  1.0000
  H   H2756     1.0  0.32278  0.03838  0.51209  1.0000
  H   H2757     1.0  0.33328  0.06320  0.53574  1.0000
  H   H2758     1.0  0.49406  0.99807  0.80387  1.0000
  C   C1607     1.0  0.39706  0.98458  0.81858  1.0000
  C   C1608     1.0  0.49203  0.21207  0.88037  1.0000
  C   C1609     1.0  0.26650  0.06079  0.53684  1.0000
  H   H2759     1.0  0.45003  0.01401  0.58284  1.0000
  H   H2760     1.0  0.30336  0.03654  0.50034  1.0000
  C   C1610     1.0  0.45209  0.18038  0.91360  1.0000
  C   C1611     1.0  0.40739  0.02067  0.68488  1.0000
  Fe  Fe236     1.0  0.27412  0.04576  0.59691  1.0000
  C   C1612     1.0  0.42720  0.02791  0.72639  1.0000
  C   C1613     1.0  0.31459  0.03683  0.49399  1.0000
  C   C1614     1.0  0.39145  0.01821  0.68753  1.0000
  H   H2761     1.0  0.46419  0.17987  0.90907  1.0000
  S   S478      1.0  0.38074  0.01623  0.65111  1.0000
  H   H2762     1.0  0.39906  0.03215  0.65657  1.0000
  H   H2763     1.0  0.41723  0.18091  0.92895  1.0000
  H   H2764     1.0  0.40713  0.17928  0.91659  1.0000
  H   H2765     1.0  0.44688  0.99908  0.59817  1.0000
  H   H2766     1.0  0.41307  0.01103  0.69231  1.0000
  H   H2767     1.0  0.40674  0.03024  0.68949  1.0000
  H   H2768     1.0  0.28175  0.05288  0.55182  1.0000
  H   H2769     1.0  0.47648  0.08696  0.69879  1.0000
  H   H2770     1.0  0.45469  0.01955  0.55841  1.0000
  H   H2771     1.0  0.47537  0.99355  0.54606  1.0000
  H   H2772     1.0  0.32252  0.99588  0.63640  1.0000
  H   H2773     1.0  0.45406  0.20834  0.97206  1.0000
  C   C1615     1.0  0.34012  0.03793  0.49259  1.0000
  S   S479      1.0  0.40139  0.20662  0.97650  1.0000
  C   C1616     1.0  0.38106  0.05088  0.53231  1.0000
  H   H2774     1.0  0.24605  0.12500  0.61988  1.0000
  H   H2775     1.0  0.38587  0.02409  0.67826  1.0000
  H   H2776     1.0  0.38423  0.02266  0.69722  1.0000
  C   C1617     1.0  0.38048  0.98801  0.65048  1.0000
  C   C1618     1.0  0.27066  0.09394  0.58290  1.0000
  H   H2777     1.0  0.39989  0.05899  0.71749  1.0000
  H   H2778     1.0  0.40256  0.04178  0.71300  1.0000
  H   H2779     1.0  0.43047  0.05507  0.74974  1.0000
  H   H2780     1.0  0.47776  0.09115  0.72537  1.0000
  N   N118      1.0  0.46212  0.04764  0.86939  1.0000
  C   C1619     1.0  0.45624  0.05257  0.85539  1.0000
  C   C1620     1.0  0.44950  0.05276  0.88156  1.0000
  C   C1621     1.0  0.46676  0.03094  0.87273  1.0000
  C   C1622     1.0  0.47532  0.05447  0.86666  1.0000
  C   C1623     1.0  0.46611  0.04579  0.84221  1.0000
  C   C1624     1.0  0.44388  0.06966  0.87964  1.0000
  C   C1625     1.0  0.46734  0.02291  0.88884  1.0000
  H   H2781     1.0  0.25929  0.03863  0.53372  1.0000
  H   H2782     1.0  0.44508  0.04993  0.85751  1.0000
  H   H2783     1.0  0.45452  0.06479  0.85130  1.0000
  H   H2784     1.0  0.45240  0.04866  0.89254  1.0000
  H   H2785     1.0  0.43975  0.04799  0.88276  1.0000
  H   H2786     1.0  0.45890  0.02611  0.86987  1.0000
  H   H2787     1.0  0.47793  0.02722  0.86575  1.0000
  H   H2788     1.0  0.40741  0.05857  0.94996  1.0000
  S   S480      1.0  0.42039  0.17408  0.96938  1.0000
  H   H2789     1.0  0.47769  0.04736  0.83936  1.0000
  H   H2790     1.0  0.46632  0.03383  0.84425  1.0000
  H   H2791     1.0  0.46135  0.05134  0.83230  1.0000
  H   H2792     1.0  0.43889  0.07472  0.86983  1.0000
  H   H2793     1.0  0.43492  0.07200  0.88942  1.0000
  H   H2794     1.0  0.45284  0.07515  0.87912  1.0000
  H   H2795     1.0  0.48753  0.06186  0.87813  1.0000
  S   S481      1.0  0.25097  0.05550  0.59290  1.0000
  H   H2796     1.0  0.36661  0.00383  0.68029  1.0000
  C   C1626     1.0  0.40941  0.99295  0.54313  1.0000
  H   H2797     1.0  0.47925  0.10376  0.92105  1.0000
  H   H2798     1.0  0.46804  0.22964  0.91997  1.0000
  C   C1627     1.0  0.49027  0.00547  0.83735  1.0000
  C   C1628     1.0  0.48387  0.11102  0.72514  1.0000
  C   C1629     1.0  0.42382  0.01674  0.71979  1.0000
  H   H2799     1.0  0.42851  0.04436  0.69775  1.0000
  Fe  Fe237     1.0  0.49405  0.13887  0.85184  1.0000
  C   C1630     1.0  0.40656  0.99880  0.56687  1.0000
  H   H2800     1.0  0.30194  0.02466  0.66277  1.0000
  C   C1631     1.0  0.35822  0.02882  0.57733  1.0000
  C   C1632     1.0  0.44175  0.16048  0.88916  1.0000
  H   H2801     1.0  0.43453  0.99852  0.57927  1.0000
  C   C1633     1.0  0.40241  0.03596  0.74137  1.0000
  H   H2802     1.0  0.46341  0.99912  0.81506  1.0000
  H   H2803     1.0  0.29506  0.03452  0.64659  1.0000
  H   H2804     1.0  0.35669  0.01739  0.57936  1.0000
  C   C1634     1.0  0.42113  0.05180  0.73310  1.0000
  Fe  Fe238     1.0  0.39337  0.99526  0.48591  1.0000
  C   C1635     1.0  0.31832  0.03619  0.47909  1.0000
  H   H2805     1.0  0.26955  0.04083  0.55496  1.0000
  H   H2806     1.0  0.31668  0.02207  0.63053  1.0000
  C   C1636     1.0  0.25205  0.08511  0.51431  1.0000
  C   C1637     1.0  0.41826  0.00794  0.66450  1.0000
  H   H2807     1.0  0.29687  0.01498  0.65195  1.0000
  H   H2808     1.0  0.39043  0.04805  0.53800  1.0000
  C   C1638     1.0  0.30218  0.02403  0.65143  1.0000
  H   H2809     1.0  0.46889  0.10412  0.70503  1.0000
  C   C1639     1.0  0.34379  0.03750  0.47765  1.0000
  N   N119      1.0  0.45417  0.02380  0.79101  1.0000
  C   C1640     1.0  0.45731  0.03146  0.77487  1.0000
  C   C1641     1.0  0.43744  0.02595  0.79619  1.0000
  C   C1642     1.0  0.46110  0.00754  0.79204  1.0000
  C   C1643     1.0  0.46102  0.03041  0.79926  1.0000
  C   C1644     1.0  0.47385  0.02888  0.76656  1.0000
  C   C1645     1.0  0.42864  0.04217  0.79450  1.0000
  C   C1646     1.0  0.45798  0.99712  0.80731  1.0000
  C   C1647     1.0  0.45489  0.02841  0.81617  1.0000
  H   H2810     1.0  0.45103  0.02805  0.76874  1.0000
  H   H2811     1.0  0.45333  0.04368  0.77342  1.0000
  H   H2812     1.0  0.43406  0.02057  0.80792  1.0000
  H   H2813     1.0  0.43300  0.02040  0.79016  1.0000
  H   H2814     1.0  0.45743  0.00331  0.78433  1.0000
  H   H2815     1.0  0.47350  0.00564  0.78859  1.0000
  H   H2816     1.0  0.47330  0.02601  0.79733  1.0000
  H   H2817     1.0  0.45959  0.04257  0.79476  1.0000
  S   S482      1.0  0.49149  0.12967  0.87626  1.0000
  C   C1648     1.0  0.33225  0.99350  0.52595  1.0000
  C   C1649     1.0  0.44881  0.21997  0.92675  1.0000
  H   H2818     1.0  0.43323  0.04882  0.79909  1.0000
  H   H2819     1.0  0.42830  0.04745  0.78278  1.0000
  H   H2820     1.0  0.41688  0.04241  0.80068  1.0000
  C   C1650     1.0  0.44780  0.98818  0.55393  1.0000
  C   C1651     1.0  0.47653  0.10807  0.94875  1.0000
  C   C1652     1.0  0.44209  0.23122  0.95209  1.0000
  C   C1653     1.0  0.36937  0.99562  0.67372  1.0000
  H   H2821     1.0  0.44861  0.01959  0.82152  1.0000
  H   H2822     1.0  0.44779  0.03898  0.81889  1.0000
  C   C1654     1.0  0.36951  0.99602  0.73676  1.0000
  H   H2823     1.0  0.47815  0.01742  0.76483  1.0000
  H   H2824     1.0  0.39164  0.05899  0.74418  1.0000
  H   H2825     1.0  0.24817  0.00663  0.61316  1.0000
  C   C1655     1.0  0.49261  0.18151  0.88895  1.0000
  C   C1656     1.0  0.28286  0.98747  0.62429  1.0000
  H   H2826     1.0  0.38529  0.05457  0.52023  1.0000
  H   H2827     1.0  0.47508  0.11222  0.73536  1.0000
  H   H2828     1.0  0.48469  0.04984  0.85823  1.0000
  C   C1657     1.0  0.40959  0.12189  0.96100  1.0000
  Fe  Fe239     1.0  0.27628  0.99508  0.49084  1.0000
  H   H2829     1.0  0.38317  0.06744  0.97659  1.0000
  Fe  Fe240     1.0  0.43575  0.98739  0.88622  1.0000
  H   H2830     1.0  0.43744  0.02791  0.65704  1.0000
  H   H2831     1.0  0.44592  0.99756  0.81208  1.0000
  C   C1658     1.0  0.27011  0.05265  0.55209  1.0000
  H   H2832     1.0  0.39406  0.04924  0.67374  1.0000
  H   H2833     1.0  0.24969  0.02255  0.59905  1.0000
  S   S483      1.0  0.47909  0.13756  0.83824  1.0000
  H   H2834     1.0  0.36313  0.98369  0.51330  1.0000
  H   H2835     1.0  0.47376  0.05302  0.89050  1.0000
  H   H2836     1.0  0.33162  0.00829  0.49885  1.0000
  H   H2837     1.0  0.45239  0.01591  0.67559  1.0000
  H   H2838     1.0  0.48017  0.13626  0.90626  1.0000
  H   H2839     1.0  0.48403  0.21913  0.96507  1.0000
  H   H2840     1.0  0.38045  0.03881  0.97632  1.0000
  H   H2841     1.0  0.25419  0.10754  0.60359  1.0000
  N   N120      1.0  0.45383  0.99659  0.56119  1.0000
  H   H2842     1.0  0.47283  0.06650  0.86144  1.0000
  H   H2843     1.0  0.45143  0.21576  0.91686  1.0000
  C   C1659     1.0  0.48209  0.05252  0.87999  1.0000
  S   S484      1.0  0.49081  0.23128  0.87442  1.0000
  C   C1660     1.0  0.43628  0.21722  0.93790  1.0000
  H   H2844     1.0  0.48610  0.12710  0.93850  1.0000
  C   C1661     1.0  0.48596  0.11228  0.91593  1.0000
  S   S485      1.0  0.29658  0.99571  0.62522  1.0000
  S   S486      1.0  0.41582  0.00076  0.48098  1.0000
  H   H2845     1.0  0.33491  0.00504  0.54108  1.0000
  C   C1662     1.0  0.26277  0.11242  0.60504  1.0000
  H   H2846     1.0  0.48732  0.21145  0.90363  1.0000
  H   H2847     1.0  0.24916  0.01618  0.56928  1.0000
  H   H2848     1.0  0.38692  0.02839  0.95598  1.0000
  H   H2849     1.0  0.48791  0.18449  0.91123  1.0000
  C   C1663     1.0  0.49003  0.18980  0.89962  1.0000
  H   H2850     1.0  0.43990  0.00760  0.64815  1.0000
  H   H2851     1.0  0.31434  0.99424  0.65536  1.0000
  H   H2852     1.0  0.47831  0.10250  0.96005  1.0000
  C   C1664     1.0  0.39853  0.05561  0.95983  1.0000
  H   H2853     1.0  0.47541  0.00016  0.56109  1.0000
  Fe  Fe241     1.0  0.28659  0.02358  0.48524  1.0000
  S   S487      1.0  0.40536  0.99272  0.58607  1.0000
  N   N121      1.0  0.25096  0.06163  0.53525  1.0000
  H   H2854     1.0  0.47480  0.03625  0.75539  1.0000
  H   H2855     1.0  0.32115  0.00080  0.52457  1.0000
  H   H2856     1.0  0.25971  0.99777  0.57266  1.0000
  C   C1665     1.0  0.34882  0.99625  0.48417  1.0000
  H   H2857     1.0  0.47256  0.01101  0.88917  1.0000
  H   H2858     1.0  0.34689  0.99337  0.71621  1.0000
  C   C1666     1.0  0.48822  0.09464  0.72415  1.0000
  C   C1667     1.0  0.49026  0.09286  0.84432  1.0000
  S   S488      1.0  0.49031  0.04722  0.69974  1.0000
  Fe  Fe242     1.0  0.42495  0.99044  0.76445  1.0000
  H   H2859     1.0  0.38626  0.99037  0.63901  1.0000
  H   H2860     1.0  0.44698  0.01261  0.53240  1.0000
  C   C1668     1.0  0.36202  0.98964  0.75072  1.0000
  H   H2861     1.0  0.49058  0.04200  0.88141  1.0000
  H   H2862     1.0  0.44031  0.21086  0.89021  1.0000
  H   H2863     1.0  0.28998  0.98882  0.60082  1.0000
  H   H2864     1.0  0.47395  0.02720  0.89374  1.0000
  H   H2865     1.0  0.42312  0.22121  0.95900  1.0000
  C   C1669     1.0  0.48972  0.20506  0.89535  1.0000
  H   H2866     1.0  0.24965  0.08976  0.50310  1.0000
  H   H2867     1.0  0.46824  0.13035  0.92394  1.0000
  H   H2868     1.0  0.39143  0.07890  0.96022  1.0000
  S   S489      1.0  0.49424  0.04855  0.91716  1.0000
  H   H2869     1.0  0.49299  0.08197  0.92704  1.0000
  H   H2870     1.0  0.43160  0.01749  0.97348  1.0000
  S   S490      1.0  0.49194  0.07257  0.82875  1.0000
  C   C1670     1.0  0.48923  0.99838  0.82700  1.0000
  C   C1671     1.0  0.45817  0.22797  0.92845  1.0000
  H   H2871     1.0  0.42883  0.99610  0.64682  1.0000
  C   C1672     1.0  0.49348  0.09946  0.69670  1.0000
  H   H2872     1.0  0.32981  0.98469  0.53591  1.0000
  C   C1673     1.0  0.25345  0.00715  0.57805  1.0000
  H   H2873     1.0  0.32274  0.98682  0.50182  1.0000
  C   C1674     1.0  0.28211  0.98525  0.61083  1.0000
  H   H2874     1.0  0.25328  0.10672  0.62884  1.0000
  H   H2875     1.0  0.36024  0.98930  0.48333  1.0000
  H   H2876     1.0  0.42575  0.04406  0.96509  1.0000
  C   C1675     1.0  0.27523  0.98715  0.68626  1.0000
  H   H2877     1.0  0.49130  0.07164  0.71255  1.0000
  H   H2878     1.0  0.41001  0.98503  0.53685  1.0000
  C   C1676     1.0  0.47065  0.99235  0.55813  1.0000
  C   C1677     1.0  0.39374  0.06818  0.96822  1.0000
  H   H2879     1.0  0.49247  0.08822  0.73424  1.0000
  H   H2880     1.0  0.49346  0.11479  0.72605  1.0000
  H   H2881     1.0  0.49357  0.11142  0.69424  1.0000
  H   H2882     1.0  0.40257  0.06885  0.97322  1.0000
  H   H2883     1.0  0.27353  0.98427  0.64762  1.0000
  C   C1678     1.0  0.49485  0.00354  0.81188  1.0000
  Fe  Fe243     1.0  0.49493  0.07104  0.80514  1.0000
  H   H2884     1.0  0.47195  0.98369  0.71944  1.0000
  S   S491      1.0  0.29266  0.27638  0.01621  1.0000
  N   N122      1.0  0.26390  0.32540  0.03461  1.0000
  S   S492      1.0  0.42420  0.44267  0.13036  1.0000
  H   H2885     1.0  0.27270  0.28940  0.14381  1.0000
  H   H2886     1.0  0.41169  0.28025  0.10887  1.0000
  Fe  Fe244     1.0  0.28109  0.35396  0.14348  1.0000
  S   S493      1.0  0.27013  0.43811  0.12653  1.0000
  S   S494      1.0  0.30196  0.35787  0.12660  1.0000
  H   H2887     1.0  0.44267  0.26889  0.11679  1.0000
  C   C1679     1.0  0.47198  0.47236  0.12416  1.0000
  H   H2888     1.0  0.31303  0.28402  0.14522  1.0000
  H   H2889     1.0  0.28913  0.30488  0.02213  1.0000
  S   S495      1.0  0.27046  0.36414  0.16316  1.0000
  S   S496      1.0  0.27892  0.33107  0.15596  1.0000
  Fe  Fe245     1.0  0.31575  0.30232  0.07869  1.0000
  S   S497      1.0  0.32746  0.31118  0.05572  1.0000
  S   S498      1.0  0.29128  0.31150  0.08637  1.0000
  Fe  Fe246     1.0  0.34498  0.28552  0.08832  1.0000
  S   S499      1.0  0.35910  0.29296  0.06601  1.0000
  S   S500      1.0  0.35372  0.27405  0.10896  1.0000
  Fe  Fe247     1.0  0.34354  0.31517  0.06639  1.0000
  S   S501      1.0  0.34947  0.33733  0.06092  1.0000
  Fe  Fe248     1.0  0.34166  0.28815  0.05761  1.0000
  S   S502      1.0  0.34832  0.27744  0.03824  1.0000
  S   S503      1.0  0.33069  0.30813  0.08928  1.0000
  S   S504      1.0  0.32864  0.27882  0.07999  1.0000
  Fe  Fe249     1.0  0.39736  0.37871  0.11598  1.0000
  S   S505      1.0  0.39466  0.36799  0.14009  1.0000
  S   S506      1.0  0.39468  0.40362  0.10830  1.0000
  Fe  Fe250     1.0  0.39706  0.35025  0.10777  1.0000
  S   S507      1.0  0.39400  0.33790  0.13136  1.0000
  S   S508      1.0  0.39953  0.33449  0.09341  1.0000
  Fe  Fe251     1.0  0.37756  0.35836  0.13639  1.0000
  S   S509      1.0  0.35569  0.35723  0.15285  1.0000
  Fe  Fe252     1.0  0.41149  0.34853  0.13248  1.0000
  S   S510      1.0  0.42957  0.33362  0.14408  1.0000
  S   S511      1.0  0.37917  0.37008  0.11267  1.0000
  S   S512      1.0  0.41565  0.35996  0.10849  1.0000
  H   H2890     1.0  0.47297  0.33999  0.11734  1.0000
  S   S513      1.0  0.47041  0.28404  0.11017  1.0000
  H   H2891     1.0  0.31697  0.30752  0.12224  1.0000
  C   C1680     1.0  0.36470  0.23838  0.03136  1.0000
  S   S514      1.0  0.48468  0.24200  0.11821  1.0000
  C   C1681     1.0  0.44022  0.31923  0.13511  1.0000
  C   C1682     1.0  0.44909  0.30674  0.14256  1.0000
  C   C1683     1.0  0.45796  0.29545  0.13525  1.0000
  C   C1684     1.0  0.45831  0.29689  0.12035  1.0000
  C   C1685     1.0  0.44936  0.30930  0.11300  1.0000
  C   C1686     1.0  0.44020  0.32032  0.12040  1.0000
  H   H2892     1.0  0.44905  0.30580  0.15399  1.0000
  H   H2893     1.0  0.46472  0.28583  0.14104  1.0000
  H   H2894     1.0  0.44969  0.31056  0.10144  1.0000
  H   H2895     1.0  0.43339  0.32985  0.11457  1.0000
  C   C1687     1.0  0.36291  0.33681  0.07042  1.0000
  C   C1688     1.0  0.36483  0.34989  0.07260  1.0000
  C   C1689     1.0  0.37566  0.34935  0.08018  1.0000
  C   C1690     1.0  0.38485  0.33577  0.08518  1.0000
  C   C1691     1.0  0.38278  0.32277  0.08309  1.0000
  C   C1692     1.0  0.37172  0.32325  0.07595  1.0000
  H   H2896     1.0  0.35799  0.36042  0.06839  1.0000
  H   H2897     1.0  0.37726  0.35946  0.08170  1.0000
  H   H2898     1.0  0.38961  0.31225  0.08718  1.0000
  H   H2899     1.0  0.37027  0.31311  0.07447  1.0000
  C   C1693     1.0  0.27828  0.30309  0.08399  1.0000
  C   C1694     1.0  0.28275  0.29085  0.07746  1.0000
  S   S515      1.0  0.31897  0.29860  0.98710  1.0000
  H   H2900     1.0  0.28372  0.33112  0.03643  1.0000
  S   S516      1.0  0.48832  0.25578  0.14404  1.0000
  C   C1695     1.0  0.26305  0.30874  0.08900  1.0000
  C   C1696     1.0  0.35488  0.46391  0.15000  1.0000
  H   H2901     1.0  0.27138  0.30111  0.11770  1.0000
  H   H2902     1.0  0.26009  0.25261  0.00079  1.0000
  C   C1697     1.0  0.31663  0.35801  0.13404  1.0000
  C   C1698     1.0  0.31475  0.35656  0.14921  1.0000
  C   C1699     1.0  0.32676  0.35653  0.15491  1.0000
  C   C1700     1.0  0.34070  0.35774  0.14547  1.0000
  C   C1701     1.0  0.34253  0.35908  0.13033  1.0000
  C   C1702     1.0  0.33049  0.35936  0.12460  1.0000
  H   H2903     1.0  0.30409  0.35544  0.15657  1.0000
  H   H2904     1.0  0.32530  0.35543  0.16665  1.0000
  H   H2905     1.0  0.35325  0.35972  0.12301  1.0000
  H   H2906     1.0  0.33200  0.36044  0.11286  1.0000
  H   H2907     1.0  0.44620  0.25290  0.09716  1.0000
  H   H2908     1.0  0.27342  0.29344  0.03956  1.0000
  C   C1703     1.0  0.26234  0.38988  0.21730  1.0000
  H   H2909     1.0  0.30004  0.26249  0.12110  1.0000
  C   C1704     1.0  0.37224  0.26348  0.10671  1.0000
  C   C1705     1.0  0.37957  0.26016  0.11829  1.0000
  C   C1706     1.0  0.37091  0.32983  0.97850  1.0000
  C   C1707     1.0  0.44728  0.27649  0.08674  1.0000
  H   H2910     1.0  0.32722  0.33903  0.00499  1.0000
  Fe  Fe253     1.0  0.41133  0.46569  0.13335  1.0000
  H   H2911     1.0  0.30157  0.35930  0.05323  1.0000
  Fe  Fe254     1.0  0.26604  0.34171  0.17491  1.0000
  N   N123      1.0  0.25326  0.38013  0.21573  1.0000
  C   C1708     1.0  0.26314  0.41165  0.13005  1.0000
  N   N124      1.0  0.35481  0.31596  0.00192  1.0000
  H   H2912     1.0  0.25986  0.26276  0.01361  1.0000
  H   H2913     1.0  0.47822  0.44100  0.11437  1.0000
  H   H2914     1.0  0.39973  0.24929  0.12612  1.0000
  H   H2915     1.0  0.31178  0.48332  0.12252  1.0000
  C   C1709     1.0  0.37107  0.24918  0.99840  1.0000
  H   H2916     1.0  0.29278  0.33372  0.10083  1.0000
  C   C1710     1.0  0.33140  0.45670  0.15430  1.0000
  C   C1711     1.0  0.41601  0.43189  0.12413  1.0000
  C   C1712     1.0  0.40453  0.43845  0.11647  1.0000
  C   C1713     1.0  0.39830  0.42964  0.11151  1.0000
  C   C1714     1.0  0.40322  0.41418  0.11444  1.0000
  C   C1715     1.0  0.41457  0.40757  0.12228  1.0000
  C   C1716     1.0  0.42105  0.41642  0.12695  1.0000
  H   H2917     1.0  0.40062  0.45035  0.11413  1.0000
  H   H2918     1.0  0.38957  0.43484  0.10542  1.0000
  H   H2919     1.0  0.41848  0.39567  0.12455  1.0000
  H   H2920     1.0  0.42995  0.41126  0.13283  1.0000
  C   C1717     1.0  0.32583  0.46319  0.16656  1.0000
  C   C1718     1.0  0.30816  0.27392  0.02377  1.0000
  C   C1719     1.0  0.32252  0.27129  0.01487  1.0000
  C   C1720     1.0  0.33478  0.27228  0.01946  1.0000
  C   C1721     1.0  0.33284  0.27550  0.03318  1.0000
  C   C1722     1.0  0.31861  0.27735  0.04250  1.0000
  C   C1723     1.0  0.30628  0.27640  0.03785  1.0000
  H   H2921     1.0  0.32411  0.26891  0.00420  1.0000
  H   H2922     1.0  0.34569  0.27099  0.01214  1.0000
  H   H2923     1.0  0.31706  0.27970  0.05318  1.0000
  H   H2924     1.0  0.29528  0.27814  0.04497  1.0000
  H   H2925     1.0  0.26016  0.34877  0.03396  1.0000
  Fe  Fe255     1.0  0.27201  0.44903  0.14333  1.0000
  C   C1724     1.0  0.42619  0.29788  0.08783  1.0000
  H   H2926     1.0  0.35957  0.25254  0.99649  1.0000
  C   C1725     1.0  0.27339  0.37959  0.09104  1.0000
  Fe  Fe256     1.0  0.48589  0.26401  0.12052  1.0000
  C   C1726     1.0  0.24794  0.33494  0.01472  1.0000
  C   C1727     1.0  0.34946  0.30767  0.99396  1.0000
  S   S517      1.0  0.28390  0.43521  0.16114  1.0000
  H   H2927     1.0  0.27262  0.40984  0.12099  1.0000
  H   H2928     1.0  0.27018  0.39349  0.20675  1.0000
  H   H2929     1.0  0.28189  0.36142  0.22119  1.0000
  C   C1728     1.0  0.43101  0.30674  0.07198  1.0000
  C   C1729     1.0  0.31776  0.34741  0.09229  1.0000
  S   S518      1.0  0.25332  0.46102  0.15847  1.0000
  H   H2930     1.0  0.34542  0.32613  0.02092  1.0000
  C   C1730     1.0  0.32705  0.32767  0.01171  1.0000
  H   H2931     1.0  0.28625  0.34345  0.07276  1.0000
  H   H2932     1.0  0.34788  0.33696  0.98750  1.0000
  H   H2933     1.0  0.46147  0.44325  0.10841  1.0000
  Fe  Fe257     1.0  0.26779  0.47736  0.15318  1.0000
  C   C1731     1.0  0.25665  0.29019  0.08087  1.0000
  H   H2934     1.0  0.26103  0.27146  0.99410  1.0000
  H   H2935     1.0  0.47193  0.43852  0.14804  1.0000
  Fe  Fe258     1.0  0.29854  0.28932  0.99293  1.0000
  H   H2936     1.0  0.27532  0.27497  0.07080  1.0000
  H   H2937     1.0  0.34222  0.31549  0.98656  1.0000
  H   H2938     1.0  0.31468  0.46273  0.17311  1.0000
  C   C1732     1.0  0.45774  0.45327  0.12697  1.0000
  C   C1733     1.0  0.34585  0.45725  0.14594  1.0000
  N   N125      1.0  0.43049  0.28125  0.09006  1.0000
  C   C1734     1.0  0.30155  0.28240  0.14675  1.0000
  H   H2939     1.0  0.49173  0.44336  0.15613  1.0000
  C   C1735     1.0  0.25231  0.30236  0.08739  1.0000
  H   H2940     1.0  0.31897  0.26272  0.11194  1.0000
  C   C1736     1.0  0.37969  0.25813  0.09388  1.0000
  H   H2941     1.0  0.41391  0.30176  0.09145  1.0000
  H   H2942     1.0  0.28295  0.31062  0.13523  1.0000
  C   C1737     1.0  0.28128  0.28433  0.13509  1.0000
  C   C1738     1.0  0.29346  0.30529  0.12846  1.0000
  N   N126      1.0  0.37921  0.41299  0.16235  1.0000
  C   C1739     1.0  0.39379  0.40379  0.16624  1.0000
  C   C1740     1.0  0.38120  0.42870  0.15635  1.0000
  C   C1741     1.0  0.37641  0.40715  0.15061  1.0000
  C   C1742     1.0  0.36700  0.41143  0.17614  1.0000
  C   C1743     1.0  0.39470  0.38698  0.17179  1.0000
  C   C1744     1.0  0.38347  0.43637  0.16731  1.0000
  C   C1745     1.0  0.36630  0.41789  0.14039  1.0000
  C   C1746     1.0  0.35141  0.42143  0.17524  1.0000
  H   H2943     1.0  0.40328  0.40532  0.15652  1.0000
  H   H2944     1.0  0.39630  0.40737  0.17509  1.0000
  H   H2945     1.0  0.37158  0.43599  0.15191  1.0000
  H   H2946     1.0  0.39083  0.42920  0.14671  1.0000
  H   H2947     1.0  0.38712  0.40331  0.14303  1.0000
  H   H2948     1.0  0.37151  0.39719  0.15564  1.0000
  H   H2949     1.0  0.36522  0.39993  0.17965  1.0000
  H   H2950     1.0  0.37028  0.41289  0.18574  1.0000
  H   H2951     1.0  0.39249  0.38205  0.16380  1.0000
  H   H2952     1.0  0.40623  0.38141  0.17327  1.0000
  H   H2953     1.0  0.38707  0.38433  0.18268  1.0000
  H   H2954     1.0  0.39428  0.43139  0.17069  1.0000
  H   H2955     1.0  0.38378  0.44806  0.16172  1.0000
  H   H2956     1.0  0.37408  0.43671  0.17713  1.0000
  H   H2957     1.0  0.37166  0.42694  0.13301  1.0000
  H   H2958     1.0  0.35512  0.42262  0.14648  1.0000
  H   H2959     1.0  0.36474  0.41182  0.13293  1.0000
  H   H2960     1.0  0.34475  0.41629  0.17115  1.0000
  H   H2961     1.0  0.35175  0.43264  0.16845  1.0000
  H   H2962     1.0  0.34530  0.42325  0.18642  1.0000
  H   H2963     1.0  0.37409  0.26058  0.08489  1.0000
  H   H2964     1.0  0.35915  0.33789  0.99839  1.0000
  C   C1747     1.0  0.25583  0.31313  0.04291  1.0000
  C   C1748     1.0  0.30835  0.34925  0.08099  1.0000
  H   H2965     1.0  0.25823  0.39038  0.13346  1.0000
  H   H2966     1.0  0.26924  0.32007  0.01306  1.0000
  H   H2967     1.0  0.31343  0.35654  0.07077  1.0000
  H   H2968     1.0  0.48215  0.46787  0.11632  1.0000
  H   H2969     1.0  0.47633  0.47788  0.13024  1.0000
  H   H2970     1.0  0.43102  0.27877  0.06825  1.0000
  H   H2971     1.0  0.43126  0.28731  0.11728  1.0000
  H   H2972     1.0  0.31855  0.28473  0.11952  1.0000
  H   H2973     1.0  0.42355  0.26294  0.10744  1.0000
  C   C1749     1.0  0.24966  0.31854  0.22226  1.0000
  H   H2974     1.0  0.25432  0.30241  0.98497  1.0000
  H   H2975     1.0  0.30295  0.27017  0.14986  1.0000
  H   H2976     1.0  0.43103  0.30168  0.09495  1.0000
  Fe  Fe259     1.0  0.24918  0.36749  0.15600  1.0000
  H   H2977     1.0  0.37769  0.30287  0.99887  1.0000
  C   C1750     1.0  0.29140  0.28806  0.16052  1.0000
  C   C1751     1.0  0.28960  0.37073  0.08780  1.0000
  H   H2978     1.0  0.40481  0.27599  0.07324  1.0000
  H   H2979     1.0  0.29436  0.37050  0.09715  1.0000
  C   C1752     1.0  0.35780  0.33049  0.99208  1.0000
  C   C1753     1.0  0.25688  0.33778  0.05700  1.0000
  H   H2980     1.0  0.38718  0.24360  0.02240  1.0000
  H   H2981     1.0  0.29449  0.28637  0.07361  1.0000
  H   H2982     1.0  0.31391  0.34024  0.10306  1.0000
  C   C1754     1.0  0.30616  0.31180  0.12929  1.0000
  H   H2983     1.0  0.34082  0.30884  0.02328  1.0000
  H   H2984     1.0  0.38095  0.32129  0.98072  1.0000
  C   C1755     1.0  0.40796  0.28172  0.08004  1.0000
  H   H2985     1.0  0.40086  0.27943  0.09130  1.0000
  C   C1756     1.0  0.36145  0.29748  0.98460  1.0000
  H   H2986     1.0  0.40531  0.29370  0.07502  1.0000
  H   H2987     1.0  0.45207  0.28118  0.07502  1.0000
  C   C1757     1.0  0.42476  0.27594  0.07989  1.0000
  C   C1758     1.0  0.34248  0.31929  0.01506  1.0000
  H   H2988     1.0  0.32945  0.34205  0.08797  1.0000
  H   H2989     1.0  0.26373  0.28502  0.12450  1.0000
  H   H2990     1.0  0.35018  0.45227  0.13643  1.0000
  H   H2991     1.0  0.28492  0.27975  0.16775  1.0000
  H   H2992     1.0  0.42682  0.26363  0.08263  1.0000
  H   H2993     1.0  0.26687  0.33663  0.11454  1.0000
  C   C1759     1.0  0.30748  0.28252  0.12036  1.0000
  C   C1760     1.0  0.28596  0.34522  0.10015  1.0000
  H   H2994     1.0  0.28327  0.29858  0.15793  1.0000
  C   C1761     1.0  0.27191  0.28437  0.07594  1.0000
  C   C1762     1.0  0.45377  0.25961  0.08902  1.0000
  S   S519      1.0  0.41997  0.23551  0.10371  1.0000
  H   H2995     1.0  0.29587  0.37744  0.07793  1.0000
  H   H2996     1.0  0.35842  0.23456  0.04276  1.0000
  C   C1763     1.0  0.28450  0.35506  0.07383  1.0000
  C   C1764     1.0  0.26970  0.34348  0.10325  1.0000
  H   H2997     1.0  0.31892  0.32884  0.02230  1.0000
  S   S520      1.0  0.28536  0.46646  0.13633  1.0000
  H   H2998     1.0  0.30963  0.36712  0.98577  1.0000
  H   H2999     1.0  0.44706  0.46051  0.12439  1.0000
  N   N127      1.0  0.29592  0.28863  0.13268  1.0000
  C   C1765     1.0  0.42369  0.27475  0.10586  1.0000
  H   H3000     1.0  0.36610  0.46383  0.14372  1.0000
  H   H3001     1.0  0.28108  0.34771  0.21255  1.0000
  H   H3002     1.0  0.30736  0.30978  0.14081  1.0000
  H   H3003     1.0  0.42683  0.30391  0.06377  1.0000
  H   H3004     1.0  0.33379  0.23689  0.99117  1.0000
  H   H3005     1.0  0.28076  0.31365  0.04751  1.0000
  S   S521      1.0  0.27982  0.46609  0.17166  1.0000
  H   H3006     1.0  0.28710  0.34867  0.10976  1.0000
  N   N128      1.0  0.29177  0.35527  0.08574  1.0000
  H   H3007     1.0  0.32946  0.26366  0.98023  1.0000
  C   C1766     1.0  0.49430  0.29197  0.14706  1.0000
  H   H3008     1.0  0.48586  0.44444  0.13284  1.0000
  N   N129      1.0  0.35652  0.31143  0.13477  1.0000
  C   C1767     1.0  0.35956  0.32212  0.12010  1.0000
  C   C1768     1.0  0.36952  0.30873  0.14188  1.0000
  C   C1769     1.0  0.34210  0.31849  0.14415  1.0000
  C   C1770     1.0  0.35492  0.29744  0.13191  1.0000
  C   C1771     1.0  0.34716  0.32697  0.11126  1.0000
  C   C1772     1.0  0.38510  0.30221  0.13317  1.0000
  C   C1773     1.0  0.34094  0.31539  0.16096  1.0000
  C   C1774     1.0  0.35248  0.28484  0.14558  1.0000
  H   H3009     1.0  0.36179  0.33230  0.12159  1.0000
  H   H3010     1.0  0.36977  0.31729  0.11262  1.0000
  H   H3011     1.0  0.36797  0.30108  0.15288  1.0000
  H   H3012     1.0  0.37023  0.31930  0.14395  1.0000
  H   H3013     1.0  0.34000  0.33071  0.14069  1.0000
  H   H3014     1.0  0.33225  0.31564  0.14251  1.0000
  H   H3015     1.0  0.34524  0.29968  0.12675  1.0000
  H   H3016     1.0  0.36476  0.29309  0.12369  1.0000
  H   H3017     1.0  0.34732  0.31811  0.10594  1.0000
  H   H3018     1.0  0.33582  0.33037  0.11795  1.0000
  H   H3019     1.0  0.34940  0.33667  0.10225  1.0000
  H   H3020     1.0  0.39338  0.29993  0.14007  1.0000
  H   H3021     1.0  0.38556  0.29159  0.13059  1.0000
  H   H3022     1.0  0.38898  0.31016  0.12293  1.0000
  H   H3023     1.0  0.34357  0.30348  0.16615  1.0000
  H   H3024     1.0  0.32932  0.32007  0.16638  1.0000
  H   H3025     1.0  0.34828  0.32112  0.16341  1.0000
  H   H3026     1.0  0.36222  0.28074  0.15084  1.0000
  H   H3027     1.0  0.35100  0.27540  0.14209  1.0000
  H   H3028     1.0  0.34212  0.28814  0.15369  1.0000
  N   N130      1.0  0.46468  0.46030  0.13472  1.0000
  C   C1775     1.0  0.47642  0.44847  0.14156  1.0000
  H   H3029     1.0  0.27220  0.35911  0.07673  1.0000
  C   C1776     1.0  0.45259  0.46703  0.14628  1.0000
  H   H3030     1.0  0.45444  0.44301  0.13434  1.0000
  H   H3031     1.0  0.45227  0.28123  0.09296  1.0000
  C   C1777     1.0  0.27988  0.32119  0.03653  1.0000
  H   H3032     1.0  0.26757  0.38116  0.08211  1.0000
  H   H3033     1.0  0.31811  0.35823  0.09391  1.0000
  H   H3034     1.0  0.37265  0.25670  0.00437  1.0000
  H   H3035     1.0  0.47504  0.45640  0.16144  1.0000
  H   H3036     1.0  0.45687  0.47359  0.15135  1.0000
  H   H3037     1.0  0.44371  0.47522  0.14113  1.0000
  H   H3038     1.0  0.37745  0.32390  0.01040  1.0000
  H   H3039     1.0  0.36687  0.31447  0.02748  1.0000
  H   H3040     1.0  0.42619  0.31870  0.07172  1.0000
  Fe  Fe260     1.0  0.38303  0.48086  0.15186  1.0000
  H   H3041     1.0  0.26990  0.33837  0.01248  1.0000
  C   C1778     1.0  0.40157  0.24607  0.10449  1.0000
  H   H3042     1.0  0.26029  0.41194  0.22037  1.0000
  H   H3043     1.0  0.25936  0.31006  0.22463  1.0000
  S   S522      1.0  0.26009  0.35922  0.13519  1.0000
  H   H3044     1.0  0.37780  0.24782  0.03990  1.0000
  H   H3045     1.0  0.25739  0.36123  0.20600  1.0000
  C   C1779     1.0  0.48443  0.33364  0.11347  1.0000
  N   N131      1.0  0.32001  0.41219  0.12584  1.0000
  C   C1780     1.0  0.30919  0.42666  0.12173  1.0000
  C   C1781     1.0  0.31159  0.40002  0.12970  1.0000
  C   C1782     1.0  0.33267  0.41049  0.11250  1.0000
  C   C1783     1.0  0.32564  0.41296  0.13866  1.0000
  C   C1784     1.0  0.31608  0.44039  0.11438  1.0000
  C   C1785     1.0  0.29854  0.40029  0.14337  1.0000
  C   C1786     1.0  0.34203  0.39478  0.11178  1.0000
  C   C1787     1.0  0.33475  0.39855  0.14663  1.0000
  H   H3046     1.0  0.30282  0.42586  0.11402  1.0000
  H   H3047     1.0  0.30064  0.42945  0.13160  1.0000
  H   H3048     1.0  0.31897  0.38889  0.13170  1.0000
  H   H3049     1.0  0.30701  0.40030  0.12019  1.0000
  H   H3050     1.0  0.32830  0.41450  0.10219  1.0000
  H   H3051     1.0  0.34062  0.41748  0.11135  1.0000
  H   H3052     1.0  0.33292  0.42109  0.13503  1.0000
  H   H3053     1.0  0.31637  0.41758  0.14722  1.0000
  H   H3054     1.0  0.32275  0.44217  0.12116  1.0000
  H   H3055     1.0  0.32302  0.43980  0.10316  1.0000
  H   H3056     1.0  0.30689  0.45036  0.11305  1.0000
  H   H3057     1.0  0.29348  0.39067  0.14527  1.0000
  H   H3058     1.0  0.30233  0.39933  0.15350  1.0000
  H   H3059     1.0  0.28954  0.41034  0.14177  1.0000
  H   H3060     1.0  0.35204  0.39550  0.10259  1.0000
  H   H3061     1.0  0.33564  0.38814  0.10927  1.0000
  H   H3062     1.0  0.34609  0.38888  0.12194  1.0000
  H   H3063     1.0  0.34681  0.39690  0.14130  1.0000
  H   H3064     1.0  0.33081  0.38854  0.14762  1.0000
  H   H3065     1.0  0.33346  0.39919  0.15824  1.0000
  H   H3066     1.0  0.42465  0.27142  0.12882  1.0000
  Fe  Fe261     1.0  0.26650  0.44891  0.17575  1.0000
  S   S523      1.0  0.25451  0.43853  0.19809  1.0000
  H   H3067     1.0  0.29834  0.29007  0.16695  1.0000
  S   S524      1.0  0.26880  0.33084  0.19799  1.0000
  H   H3068     1.0  0.29174  0.30950  0.11698  1.0000
  C   C1788     1.0  0.27409  0.35630  0.21874  1.0000
  H   H3069     1.0  0.30467  0.28822  0.10944  1.0000
  H   H3070     1.0  0.44265  0.24565  0.98938  1.0000
  S   S525      1.0  0.25091  0.31965  0.14215  1.0000
  C   C1789     1.0  0.36825  0.30635  0.00779  1.0000
  H   H3071     1.0  0.28287  0.36401  0.05094  1.0000
  H   H3072     1.0  0.36553  0.29579  0.01501  1.0000
  Fe  Fe262     1.0  0.25701  0.33702  0.14925  1.0000
  C   C1790     1.0  0.24708  0.42712  0.14675  1.0000
  H   H3073     1.0  0.45653  0.25601  0.07843  1.0000
  H   H3074     1.0  0.31429  0.25905  0.13152  1.0000
  H   H3075     1.0  0.26988  0.38356  0.22492  1.0000
  C   C1791     1.0  0.27431  0.28891  0.12148  1.0000
  C   C1792     1.0  0.39420  0.25168  0.11711  1.0000
  H   H3076     1.0  0.47810  0.31274  0.11989  1.0000
  H   H3077     1.0  0.27350  0.39081  0.09190  1.0000
  C   C1793     1.0  0.44467  0.45604  0.15883  1.0000
  H   H3078     1.0  0.46999  0.45867  0.10377  1.0000
  H   H3079     1.0  0.26780  0.35039  0.22913  1.0000
  C   C1794     1.0  0.25335  0.40355  0.22371  1.0000
  H   H3080     1.0  0.25703  0.29177  0.00261  1.0000
  H   H3081     1.0  0.26844  0.33748  0.09561  1.0000
  H   H3082     1.0  0.43609  0.46231  0.16661  1.0000
  H   H3083     1.0  0.43870  0.45031  0.15461  1.0000
  C   C1795     1.0  0.25119  0.33014  0.20982  1.0000
  S   S526      1.0  0.40520  0.46807  0.15688  1.0000
  H   H3084     1.0  0.37869  0.25078  0.98732  1.0000
  H   H3085     1.0  0.34232  0.30027  0.00203  1.0000
  H   H3086     1.0  0.34448  0.24168  0.01582  1.0000
  H   H3087     1.0  0.37396  0.26413  0.12824  1.0000
  C   C1796     1.0  0.25931  0.42482  0.13497  1.0000
  H   H3088     1.0  0.25943  0.31805  0.09425  1.0000
  H   H3089     1.0  0.26698  0.37452  0.10180  1.0000
  H   H3090     1.0  0.25511  0.29039  0.04484  1.0000
  Fe  Fe263     1.0  0.29611  0.45350  0.15526  1.0000
  H   H3091     1.0  0.44331  0.30546  0.06857  1.0000
  S   S527      1.0  0.36110  0.47810  0.16780  1.0000
  H   H3092     1.0  0.31045  0.33827  0.07823  1.0000
  C   C1797     1.0  0.43112  0.27576  0.11770  1.0000
  H   H3093     1.0  0.25605  0.31036  0.05478  1.0000
  S   S528      1.0  0.32120  0.44685  0.14962  1.0000
  H   H3094     1.0  0.26159  0.29958  0.02623  1.0000
  H   H3095     1.0  0.30333  0.32400  0.12530  1.0000
  C   C1798     1.0  0.28991  0.36418  0.05827  1.0000
  H   H3096     1.0  0.48137  0.31855  0.13436  1.0000
  H   H3097     1.0  0.45241  0.44781  0.16534  1.0000
  C   C1799     1.0  0.31013  0.26574  0.12154  1.0000
  C   C1800     1.0  0.24868  0.29990  0.99683  1.0000
  C   C1801     1.0  0.34960  0.47008  0.16243  1.0000
  H   H3098     1.0  0.28236  0.27220  0.13937  1.0000
  H   H3099     1.0  0.49236  0.33937  0.11484  1.0000
  H   H3100     1.0  0.35839  0.24974  0.02756  1.0000
  C   C1802     1.0  0.33500  0.46979  0.17069  1.0000
  H   H3101     1.0  0.28877  0.37593  0.05824  1.0000
  C   C1803     1.0  0.48596  0.31758  0.12267  1.0000
  C   C1804     1.0  0.26371  0.36758  0.20909  1.0000
  H   H3102     1.0  0.24932  0.33705  0.00256  1.0000
  C   C1805     1.0  0.46762  0.44887  0.11258  1.0000
  H   H3103     1.0  0.28163  0.28387  0.11223  1.0000
  H   H3104     1.0  0.26136  0.35406  0.10268  1.0000
  C   C1806     1.0  0.29204  0.31402  0.02469  1.0000
  C   C1807     1.0  0.26198  0.29843  0.03785  1.0000
  H   H3105     1.0  0.39999  0.24500  0.08300  1.0000
  H   H3106     1.0  0.46413  0.25680  0.09326  1.0000
  C   C1808     1.0  0.39432  0.24926  0.09284  1.0000
  H   H3107     1.0  0.25910  0.39117  0.18424  1.0000
  H   H3108     1.0  0.32265  0.32165  0.00623  1.0000
  C   C1809     1.0  0.26355  0.32953  0.01843  1.0000
  H   H3109     1.0  0.27114  0.37189  0.19855  1.0000
  H   H3110     1.0  0.25301  0.40734  0.19232  1.0000
  C   C1810     1.0  0.48341  0.45304  0.15174  1.0000
  H   H3111     1.0  0.30259  0.30940  0.02868  1.0000
  C   C1811     1.0  0.34226  0.24133  0.98231  1.0000
  C   C1812     1.0  0.37458  0.31319  0.01671  1.0000
  H   H3112     1.0  0.29440  0.32237  0.01427  1.0000
  H   H3113     1.0  0.48554  0.33420  0.10161  1.0000
  H   H3114     1.0  0.38506  0.30555  0.01935  1.0000
  S   S529      1.0  0.28394  0.31106  0.98481  1.0000
  C   C1813     1.0  0.25588  0.33886  0.04101  1.0000
  H   H3115     1.0  0.25162  0.36945  0.23894  1.0000
  H   H3116     1.0  0.48204  0.29631  0.14989  1.0000
  H   H3117     1.0  0.33081  0.47457  0.18033  1.0000
  H   H3118     1.0  0.26851  0.33547  0.05837  1.0000
  C   C1814     1.0  0.25501  0.40063  0.13713  1.0000
  H   H3119     1.0  0.25103  0.34851  0.06013  1.0000
  C   C1815     1.0  0.37985  0.23961  0.03307  1.0000
  H   H3120     1.0  0.49228  0.28817  0.12686  1.0000
  H   H3121     1.0  0.24612  0.47018  0.18811  1.0000
  H   H3122     1.0  0.25113  0.32936  0.06504  1.0000
  H   H3123     1.0  0.24622  0.28099  0.02380  1.0000
  H   H3124     1.0  0.48951  0.46196  0.14572  1.0000
  H   H3125     1.0  0.45371  0.48132  0.11179  1.0000
  S   S530      1.0  0.38870  0.47728  0.12882  1.0000
  S   S531      1.0  0.30383  0.34080  0.98316  1.0000
  H   H3126     1.0  0.36700  0.28749  0.99175  1.0000
  C   C1816     1.0  0.25585  0.26366  0.00363  1.0000
  H   H3127     1.0  0.32978  0.48169  0.12556  1.0000
  H   H3128     1.0  0.24602  0.31043  0.00052  1.0000
  H   H3129     1.0  0.25014  0.40059  0.23596  1.0000
  C   C1817     1.0  0.24956  0.39789  0.19079  1.0000
  H   H3130     1.0  0.35591  0.29348  0.97824  1.0000
  C   C1818     1.0  0.31900  0.36232  0.97796  1.0000
  C   C1819     1.0  0.44310  0.23358  0.99321  1.0000
  H   H3131     1.0  0.34284  0.44952  0.95331  1.0000
  C   C1820     1.0  0.25252  0.44322  0.73334  1.0000
  H   H3132     1.0  0.38130  0.42543  0.84812  1.0000
  N   N132      1.0  0.29389  0.30068  0.90342  1.0000
  C   C1821     1.0  0.43620  0.30607  0.91548  1.0000
  H   H3133     1.0  0.37145  0.43375  0.93427  1.0000
  C   C1822     1.0  0.43921  0.43633  0.92358  1.0000
  C   C1823     1.0  0.24621  0.40640  0.83857  1.0000
  H   H3134     1.0  0.44611  0.44781  0.93542  1.0000
  Fe  Fe264     1.0  0.26505  0.37287  0.87024  1.0000
  S   S532      1.0  0.28524  0.37410  0.85156  1.0000
  H   H3135     1.0  0.36413  0.42072  0.90203  1.0000
  Fe  Fe265     1.0  0.26484  0.34181  0.86939  1.0000
  S   S533      1.0  0.28457  0.34052  0.85037  1.0000
  S   S534      1.0  0.46650  0.24363  0.94329  1.0000
  Fe  Fe266     1.0  0.29435  0.35074  0.86268  1.0000
  S   S535      1.0  0.31668  0.33902  0.86851  1.0000
  Fe  Fe267     1.0  0.27350  0.36388  0.84114  1.0000
  S   S536      1.0  0.26945  0.37438  0.81828  1.0000
  S   S537      1.0  0.27514  0.35059  0.88226  1.0000
  C   C1824     1.0  0.44236  0.47954  0.92995  1.0000
  Fe  Fe268     1.0  0.29084  0.30426  0.96313  1.0000
  Fe  Fe269     1.0  0.28038  0.46881  0.88068  1.0000
  S   S538      1.0  0.27436  0.31082  0.94853  1.0000
  Fe  Fe270     1.0  0.32313  0.29226  0.96554  1.0000
  C   C1825     1.0  0.43140  0.26811  0.89944  1.0000
  S   S539      1.0  0.34667  0.28132  0.95595  1.0000
  S   S540      1.0  0.25201  0.39082  0.88236  1.0000
  H   H3136     1.0  0.39779  0.30682  0.90639  1.0000
  C   C1826     1.0  0.43801  0.47078  0.90329  1.0000
  H   H3137     1.0  0.43166  0.43109  0.93347  1.0000
  S   S541      1.0  0.31092  0.31447  0.95486  1.0000
  H   H3138     1.0  0.29599  0.40498  0.84403  1.0000
  H   H3139     1.0  0.46434  0.46754  0.88274  1.0000
  S   S542      1.0  0.33712  0.46056  0.87797  1.0000
  H   H3140     1.0  0.25797  0.34813  0.83312  1.0000
  H   H3141     1.0  0.26855  0.39736  0.73445  1.0000
  Fe  Fe271     1.0  0.39163  0.38351  0.90285  1.0000
  S   S543      1.0  0.39427  0.36610  0.89028  1.0000
  S   S544      1.0  0.39820  0.40556  0.89176  1.0000
  Fe  Fe272     1.0  0.37063  0.36887  0.92971  1.0000
  S   S545      1.0  0.37093  0.35081  0.91928  1.0000
  S   S546      1.0  0.35652  0.37389  0.95137  1.0000
  Fe  Fe273     1.0  0.39583  0.34981  0.91210  1.0000
  S   S547      1.0  0.40978  0.32654  0.91814  1.0000
  Fe  Fe274     1.0  0.36944  0.36830  0.89847  1.0000
  S   S548      1.0  0.35240  0.37655  0.88423  1.0000
  S   S549      1.0  0.39538  0.36712  0.92392  1.0000
  S   S550      1.0  0.36692  0.38643  0.90972  1.0000
  H   H3142     1.0  0.32033  0.27657  0.90448  1.0000
  C   C1827     1.0  0.31006  0.29486  0.87809  1.0000
  H   H3143     1.0  0.34607  0.41933  0.96237  1.0000
  H   H3144     1.0  0.48035  0.45299  0.88517  1.0000
  C   C1828     1.0  0.45747  0.30766  0.89473  1.0000
  H   H3145     1.0  0.29410  0.29118  0.92653  1.0000
  C   C1829     1.0  0.36841  0.40686  0.95504  1.0000
  C   C1830     1.0  0.39674  0.43278  0.89642  1.0000
  H   H3146     1.0  0.33038  0.37997  0.97344  1.0000
  H   H3147     1.0  0.29960  0.31603  0.88247  1.0000
  H   H3148     1.0  0.26687  0.43943  0.85107  1.0000
  H   H3149     1.0  0.43757  0.47215  0.94018  1.0000
  C   C1831     1.0  0.26336  0.47750  0.85142  1.0000
  C   C1832     1.0  0.27799  0.46776  0.82990  1.0000
  H   H3150     1.0  0.38581  0.44091  0.86052  1.0000
  H   H3151     1.0  0.28853  0.46222  0.82403  1.0000
  S   S551      1.0  0.47566  0.30003  0.88564  1.0000
  H   H3152     1.0  0.36425  0.43665  0.90761  1.0000
  N   N133      1.0  0.44851  0.46104  0.91298  1.0000
  H   H3153     1.0  0.25569  0.44948  0.73958  1.0000
  H   H3154     1.0  0.25332  0.38343  0.79496  1.0000
  C   C1833     1.0  0.25129  0.34419  0.91902  1.0000
  H   H3155     1.0  0.37521  0.41487  0.95393  1.0000
  H   H3156     1.0  0.31014  0.29812  0.91625  1.0000
  C   C1834     1.0  0.29232  0.32536  0.90997  1.0000
  H   H3157     1.0  0.37464  0.34046  0.97503  1.0000
  C   C1835     1.0  0.33945  0.42943  0.84564  1.0000
  H   H3158     1.0  0.25459  0.26582  0.97210  1.0000
  H   H3159     1.0  0.24754  0.38006  0.91779  1.0000
  Fe  Fe275     1.0  0.29345  0.43865  0.89748  1.0000
  H   H3160     1.0  0.33410  0.44216  0.92890  1.0000
  Fe  Fe276     1.0  0.39343  0.47383  0.92302  1.0000
  C   C1836     1.0  0.39868  0.41749  0.90246  1.0000
  H   H3161     1.0  0.34158  0.47567  0.93292  1.0000
  H   H3162     1.0  0.42922  0.33845  0.89045  1.0000
  H   H3163     1.0  0.39239  0.28809  0.92838  1.0000
  C   C1837     1.0  0.35039  0.26236  0.96434  1.0000
  H   H3164     1.0  0.28660  0.46653  0.84869  1.0000
  C   C1838     1.0  0.41864  0.27055  0.94797  1.0000
  C   C1839     1.0  0.25978  0.39459  0.74444  1.0000
  H   H3165     1.0  0.43401  0.25677  0.92141  1.0000
  C   C1840     1.0  0.36392  0.25297  0.95928  1.0000
  C   C1841     1.0  0.25314  0.27664  0.96478  1.0000
  H   H3166     1.0  0.25246  0.39614  0.84474  1.0000
  H   H3167     1.0  0.37145  0.39528  0.83872  1.0000
  H   H3168     1.0  0.37220  0.25744  0.95025  1.0000
  S   S552      1.0  0.27231  0.45524  0.90313  1.0000
  C   C1842     1.0  0.33141  0.34280  0.96466  1.0000
  C   C1843     1.0  0.34308  0.35027  0.95742  1.0000
  C   C1844     1.0  0.34266  0.36376  0.96051  1.0000
  H   H3169     1.0  0.36070  0.45437  0.94716  1.0000
  H   H3170     1.0  0.27197  0.44052  0.82592  1.0000
  H   H3171     1.0  0.33171  0.33241  0.96227  1.0000
  H   H3172     1.0  0.35237  0.34562  0.94947  1.0000
  H   H3173     1.0  0.25566  0.35444  0.91461  1.0000
  H   H3174     1.0  0.38185  0.41488  0.86637  1.0000
  C   C1845     1.0  0.26191  0.29922  0.95211  1.0000
  C   C1846     1.0  0.37293  0.40490  0.84190  1.0000
  H   H3175     1.0  0.42192  0.27277  0.89392  1.0000
  H   H3176     1.0  0.46333  0.46445  0.92458  1.0000
  C   C1847     1.0  0.31922  0.34902  0.97472  1.0000
  C   C1848     1.0  0.26378  0.28527  0.96168  1.0000
  Fe  Fe277     1.0  0.48123  0.25038  0.92113  1.0000
  C   C1849     1.0  0.28406  0.31463  0.90792  1.0000
  C   C1850     1.0  0.27689  0.47013  0.84389  1.0000
  H   H3177     1.0  0.26123  0.42355  0.78528  1.0000
  C   C1851     1.0  0.37446  0.43850  0.86429  1.0000
  C   C1852     1.0  0.31609  0.47804  0.91747  1.0000
  C   C1853     1.0  0.35820  0.42767  0.91021  1.0000
  C   C1854     1.0  0.24973  0.30423  0.94532  1.0000
  H   H3178     1.0  0.27208  0.43559  0.80393  1.0000
  Fe  Fe278     1.0  0.48435  0.27586  0.89511  1.0000
  C   C1855     1.0  0.42776  0.26773  0.91619  1.0000
  Fe  Fe279     1.0  0.49033  0.24430  0.89061  1.0000
  H   H3179     1.0  0.30092  0.29536  0.87284  1.0000
  C   C1856     1.0  0.39694  0.44257  0.90473  1.0000
  C   C1857     1.0  0.32707  0.34944  0.87226  1.0000
  C   C1858     1.0  0.33864  0.34215  0.87978  1.0000
  C   C1859     1.0  0.34684  0.35028  0.88324  1.0000
  C   C1860     1.0  0.34358  0.36571  0.87901  1.0000
  C   C1861     1.0  0.33215  0.37297  0.87133  1.0000
  C   C1862     1.0  0.32387  0.36487  0.86800  1.0000
  H   H3180     1.0  0.34117  0.33020  0.88304  1.0000
  H   H3181     1.0  0.35559  0.34463  0.88923  1.0000
  H   H3182     1.0  0.32948  0.38493  0.86818  1.0000
  H   H3183     1.0  0.31499  0.37057  0.86220  1.0000
  H   H3184     1.0  0.33144  0.42375  0.85445  1.0000
  H   H3185     1.0  0.42778  0.47655  0.91004  1.0000
  C   C1863     1.0  0.25755  0.43363  0.85368  1.0000
  C   C1864     1.0  0.30204  0.29212  0.91556  1.0000
  H   H3186     1.0  0.45917  0.44365  0.90061  1.0000
  H   H3187     1.0  0.35681  0.44694  0.92715  1.0000
  H   H3188     1.0  0.35901  0.43724  0.95982  1.0000
  H   H3189     1.0  0.31416  0.42548  0.94231  1.0000
  S   S553      1.0  0.29717  0.41408  0.90175  1.0000
  H   H3190     1.0  0.27571  0.28201  0.92472  1.0000
  C   C1865     1.0  0.30471  0.30523  0.88904  1.0000
  C   C1866     1.0  0.40112  0.41201  0.91680  1.0000
  H   H3191     1.0  0.45018  0.42838  0.92245  1.0000
  H   H3192     1.0  0.40275  0.40025  0.92151  1.0000
  C   C1867     1.0  0.28455  0.40891  0.89518  1.0000
  C   C1868     1.0  0.28983  0.39801  0.88689  1.0000
  C   C1869     1.0  0.27980  0.39241  0.88307  1.0000
  C   C1870     1.0  0.26445  0.39798  0.88715  1.0000
  C   C1871     1.0  0.25911  0.40932  0.89494  1.0000
  C   C1872     1.0  0.26919  0.41481  0.89896  1.0000
  H   H3193     1.0  0.30172  0.39383  0.88345  1.0000
  H   H3194     1.0  0.28400  0.38367  0.87707  1.0000
  S   S554      1.0  0.24519  0.45650  0.78558  1.0000
  H   H3195     1.0  0.26509  0.42331  0.90531  1.0000
  S   S555      1.0  0.30656  0.44754  0.90738  1.0000
  H   H3196     1.0  0.41307  0.28212  0.94879  1.0000
  H   H3197     1.0  0.25330  0.43721  0.76287  1.0000
  C   C1873     1.0  0.35914  0.43777  0.93677  1.0000
  S   S556      1.0  0.47028  0.25905  0.90176  1.0000
  H   H3198     1.0  0.39520  0.45434  0.90004  1.0000
  H   H3199     1.0  0.38491  0.40280  0.84217  1.0000
  H   H3200     1.0  0.34479  0.42258  0.83730  1.0000
  S   S557      1.0  0.39989  0.44883  0.92991  1.0000
  H   H3201     1.0  0.39860  0.26530  0.94657  1.0000
  H   H3202     1.0  0.25777  0.33644  0.92698  1.0000
  C   C1874     1.0  0.25050  0.37329  0.80204  1.0000
  H   H3203     1.0  0.34514  0.44251  0.85713  1.0000
  C   C1875     1.0  0.33974  0.25652  0.97604  1.0000
  H   H3204     1.0  0.31450  0.28324  0.88314  1.0000
  H   H3205     1.0  0.34666  0.43235  0.90851  1.0000
  H   H3206     1.0  0.45500  0.32774  0.87790  1.0000
  H   H3207     1.0  0.27337  0.28115  0.96669  1.0000
  H   H3208     1.0  0.33279  0.43985  0.84008  1.0000
  N   N134      1.0  0.35989  0.42090  0.86124  1.0000
  H   H3209     1.0  0.37156  0.43715  0.87646  1.0000
  N   N135      1.0  0.25946  0.42508  0.84209  1.0000
  C   C1876     1.0  0.44977  0.32167  0.88840  1.0000
  S   S558      1.0  0.30346  0.28151  0.97190  1.0000
  H   H3210     1.0  0.36673  0.44827  0.85922  1.0000
  H   H3211     1.0  0.31484  0.30716  0.89112  1.0000
  H   H3212     1.0  0.32806  0.42693  0.87718  1.0000
  H   H3213     1.0  0.47661  0.46806  0.89385  1.0000
  H   H3214     1.0  0.46978  0.44537  0.91198  1.0000
  S   S559      1.0  0.29309  0.48044  0.88861  1.0000
  C   C1877     1.0  0.25307  0.35347  0.82362  1.0000
  H   H3215     1.0  0.27839  0.29871  0.89191  1.0000
  H   H3216     1.0  0.45657  0.28922  0.91342  1.0000
  C   C1878     1.0  0.35876  0.41792  0.92578  1.0000
  H   H3217     1.0  0.41564  0.29625  0.89971  1.0000
  C   C1879     1.0  0.26552  0.47256  0.82347  1.0000
  H   H3218     1.0  0.35398  0.40824  0.92713  1.0000
  C   C1880     1.0  0.35501  0.44500  0.95014  1.0000
  C   C1881     1.0  0.43518  0.32777  0.89550  1.0000
  H   H3219     1.0  0.43434  0.43777  0.91404  1.0000
  C   C1882     1.0  0.28393  0.29217  0.90117  1.0000
  H   H3220     1.0  0.39494  0.43709  0.88531  1.0000
  N   N136      1.0  0.35136  0.42560  0.93840  1.0000
  C   C1883     1.0  0.43239  0.46321  0.89445  1.0000
  C   C1884     1.0  0.45064  0.29990  0.90832  1.0000
  H   H3221     1.0  0.29755  0.32063  0.91966  1.0000
  C   C1885     1.0  0.35193  0.41951  0.87727  1.0000
  C   C1886     1.0  0.33599  0.41686  0.88145  1.0000
  H   H3222     1.0  0.35239  0.40291  0.85807  1.0000
  H   H3223     1.0  0.36857  0.39726  0.86541  1.0000
  H   H3224     1.0  0.35863  0.41041  0.88433  1.0000
  H   H3225     1.0  0.33220  0.41468  0.89365  1.0000
  H   H3226     1.0  0.33519  0.40719  0.87795  1.0000
  H   H3227     1.0  0.43117  0.30012  0.92614  1.0000
  C   C1887     1.0  0.25721  0.41746  0.77953  1.0000
  C   C1888     1.0  0.35242  0.41437  0.95272  1.0000
  C   C1889     1.0  0.46207  0.45200  0.90455  1.0000
  H   H3228     1.0  0.27601  0.31207  0.91855  1.0000
  H   H3229     1.0  0.27439  0.40504  0.83600  1.0000
  H   H3230     1.0  0.35070  0.42972  0.88102  1.0000
  Fe  Fe280     1.0  0.31243  0.46138  0.88472  1.0000
  H   H3231     1.0  0.27708  0.32082  0.89970  1.0000
  H   H3232     1.0  0.39859  0.29091  0.90016  1.0000
  H   H3233     1.0  0.37028  0.41491  0.83323  1.0000
  H   H3234     1.0  0.45877  0.47953  0.90980  1.0000
  C   C1890     1.0  0.33510  0.43235  0.93827  1.0000
  C   C1891     1.0  0.37486  0.42424  0.85976  1.0000
  C   C1892     1.0  0.32606  0.42199  0.93679  1.0000
  H   H3235     1.0  0.36745  0.32827  0.96910  1.0000
  C   C1893     1.0  0.40173  0.42175  0.92495  1.0000
  C   C1894     1.0  0.35114  0.43331  0.85139  1.0000
  H   H3236     1.0  0.37080  0.41325  0.92566  1.0000
  H   H3237     1.0  0.37438  0.39930  0.94743  1.0000
  H   H3238     1.0  0.35874  0.43836  0.84138  1.0000
  H   H3239     1.0  0.32597  0.42325  0.92504  1.0000
  C   C1895     1.0  0.27146  0.28787  0.91459  1.0000
  H   H3240     1.0  0.34709  0.40518  0.95373  1.0000
  H   H3241     1.0  0.31915  0.29880  0.86903  1.0000
  H   H3242     1.0  0.36767  0.39985  0.96640  1.0000
  H   H3243     1.0  0.29047  0.28175  0.89775  1.0000
  H   H3244     1.0  0.30082  0.32871  0.90000  1.0000
  H   H3245     1.0  0.32925  0.43651  0.94849  1.0000
  N   N137      1.0  0.31184  0.36736  0.92620  1.0000
  C   C1896     1.0  0.29691  0.37565  0.93342  1.0000
  C   C1897     1.0  0.31221  0.37008  0.91000  1.0000
  C   C1898     1.0  0.32454  0.37262  0.92796  1.0000
  C   C1899     1.0  0.31359  0.35114  0.93332  1.0000
  C   C1900     1.0  0.29507  0.37619  0.94965  1.0000
  C   C1901     1.0  0.30252  0.36206  0.90595  1.0000
  C   C1902     1.0  0.32430  0.38921  0.92169  1.0000
  C   C1903     1.0  0.32806  0.34085  0.92662  1.0000
  H   H3246     1.0  0.29425  0.38730  0.92711  1.0000
  H   H3247     1.0  0.28775  0.37074  0.93324  1.0000
  H   H3248     1.0  0.32375  0.36714  0.90361  1.0000
  H   H3249     1.0  0.30866  0.38206  0.90540  1.0000
  H   H3250     1.0  0.32506  0.37006  0.93974  1.0000
  H   H3251     1.0  0.33550  0.36661  0.92242  1.0000
  H   H3252     1.0  0.31348  0.34924  0.94520  1.0000
  H   H3253     1.0  0.30379  0.34697  0.93346  1.0000
  H   H3254     1.0  0.30292  0.38205  0.95094  1.0000
  H   H3255     1.0  0.28363  0.38249  0.95360  1.0000
  H   H3256     1.0  0.29621  0.36503  0.95700  1.0000
  H   H3257     1.0  0.30721  0.34997  0.90774  1.0000
  H   H3258     1.0  0.29071  0.36437  0.91197  1.0000
  H   H3259     1.0  0.30256  0.36601  0.89402  1.0000
  H   H3260     1.0  0.31393  0.39640  0.92663  1.0000
  H   H3261     1.0  0.32588  0.39199  0.90949  1.0000
  H   H3262     1.0  0.33376  0.39184  0.92424  1.0000
  H   H3263     1.0  0.33610  0.33721  0.93397  1.0000
  H   H3264     1.0  0.33396  0.34590  0.91557  1.0000
  H   H3265     1.0  0.32536  0.33087  0.92532  1.0000
  C   C1904     1.0  0.44047  0.45106  0.92598  1.0000
  N   N138      1.0  0.41149  0.27020  0.92406  1.0000
  C   C1905     1.0  0.41050  0.26400  0.94042  1.0000
  C   C1906     1.0  0.40250  0.26247  0.91928  1.0000
  C   C1907     1.0  0.40422  0.28647  0.92201  1.0000
  C   C1908     1.0  0.33073  0.36960  0.97097  1.0000
  H   H3266     1.0  0.25736  0.44724  0.72147  1.0000
  C   C1909     1.0  0.40811  0.24554  0.92123  1.0000
  C   C1910     1.0  0.40418  0.29531  0.90605  1.0000
  H   H3267     1.0  0.24544  0.41731  0.78516  1.0000
  H   H3268     1.0  0.43306  0.27601  0.91758  1.0000
  H   H3269     1.0  0.41539  0.25192  0.94264  1.0000
  H   H3270     1.0  0.40173  0.26694  0.90761  1.0000
  H   H3271     1.0  0.39064  0.26454  0.92552  1.0000
  S   S560      1.0  0.26175  0.48108  0.86874  1.0000
  H   H3272     1.0  0.40982  0.29236  0.92645  1.0000
  Fe  Fe281     1.0  0.28623  0.46565  0.91067  1.0000
  H   H3273     1.0  0.29131  0.42267  0.83220  1.0000
  C   C1911     1.0  0.31105  0.27642  0.91435  1.0000
  H   H3274     1.0  0.31622  0.27142  0.92409  1.0000
  H   H3275     1.0  0.31373  0.47473  0.90842  1.0000
  H   H3276     1.0  0.40376  0.41740  0.93599  1.0000
  H   H3277     1.0  0.40237  0.24142  0.91517  1.0000
  H   H3278     1.0  0.42028  0.24223  0.91681  1.0000
  H   H3279     1.0  0.33572  0.48294  0.94917  1.0000
  H   H3280     1.0  0.40528  0.23974  0.93298  1.0000
  C   C1912     1.0  0.36655  0.23772  0.96568  1.0000
  H   H3281     1.0  0.26248  0.29767  0.91674  1.0000
  S   S561      1.0  0.30058  0.45119  0.87440  1.0000
  H   H3282     1.0  0.25798  0.42598  0.86467  1.0000
  H   H3283     1.0  0.43680  0.25685  0.89739  1.0000
  H   H3284     1.0  0.28412  0.33561  0.91219  1.0000
  S   S562      1.0  0.26715  0.46917  0.80607  1.0000
  N   N139      1.0  0.25298  0.41918  0.75365  1.0000
  C   C1913     1.0  0.25891  0.42539  0.76304  1.0000
  C   C1914     1.0  0.25850  0.42636  0.73773  1.0000
  C   C1915     1.0  0.25914  0.40262  0.75642  1.0000
  H   H3285     1.0  0.43978  0.27501  0.89360  1.0000
  H   H3286     1.0  0.42218  0.45922  0.90110  1.0000
  H   H3287     1.0  0.24778  0.36257  0.93889  1.0000
  C   C1916     1.0  0.26542  0.42892  0.81346  1.0000
  H   H3288     1.0  0.36185  0.45949  0.88985  1.0000
  H   H3289     1.0  0.27105  0.42523  0.75859  1.0000
  H   H3290     1.0  0.25269  0.39696  0.76700  1.0000
  H   H3291     1.0  0.25568  0.42157  0.72997  1.0000
  H   H3292     1.0  0.27095  0.42420  0.73496  1.0000
  H   H3293     1.0  0.27088  0.39996  0.75779  1.0000
  H   H3294     1.0  0.44076  0.45402  0.89021  1.0000
  H   H3295     1.0  0.25470  0.42949  0.81073  1.0000
  H   H3296     1.0  0.41830  0.26402  0.95949  1.0000
  C   C1917     1.0  0.28741  0.41549  0.84300  1.0000
  C   C1918     1.0  0.25690  0.36648  0.81436  1.0000
  H   H3297     1.0  0.28701  0.42050  0.85217  1.0000
  S   S563      1.0  0.49417  0.26823  0.91527  1.0000
  H   H3298     1.0  0.26945  0.40455  0.85505  1.0000
  C   C1919     1.0  0.42832  0.31992  0.90904  1.0000
  H   H3299     1.0  0.43062  0.26981  0.94250  1.0000
  H   H3300     1.0  0.27222  0.41750  0.81442  1.0000
  H   H3301     1.0  0.32976  0.41015  0.94181  1.0000
  C   C1920     1.0  0.27230  0.41197  0.84407  1.0000
  C   C1921     1.0  0.39955  0.43705  0.91900  1.0000
  C   C1922     1.0  0.36291  0.40614  0.85730  1.0000
  C   C1923     1.0  0.35546  0.47076  0.88812  1.0000
  C   C1924     1.0  0.36004  0.48170  0.89167  1.0000
  H   H3302     1.0  0.26294  0.38245  0.74880  1.0000
  H   H3303     1.0  0.30390  0.26906  0.91455  1.0000
  H   H3304     1.0  0.26611  0.28029  0.91207  1.0000
  H   H3305     1.0  0.42887  0.45703  0.93016  1.0000
  C   C1925     1.0  0.26257  0.43529  0.82717  1.0000
  C   C1926     1.0  0.47121  0.46086  0.89085  1.0000
  S   S564      1.0  0.25504  0.32201  0.88120  1.0000
  H   H3306     1.0  0.44272  0.48012  0.89546  1.0000
  C   C1927     1.0  0.45407  0.47095  0.91892  1.0000
  H   H3307     1.0  0.24900  0.39676  0.74130  1.0000
  H   H3308     1.0  0.36994  0.30314  0.97652  1.0000
  S   S565      1.0  0.25283  0.36413  0.85918  1.0000
  H   H3309     1.0  0.32354  0.47482  0.94443  1.0000
  Fe  Fe282     1.0  0.30491  0.31962  0.97724  1.0000
  H   H3310     1.0  0.43926  0.23587  0.96172  1.0000
  H   H3311     1.0  0.25345  0.33886  0.90960  1.0000
  H   H3312     1.0  0.42957  0.47138  0.88440  1.0000
  H   H3313     1.0  0.36984  0.47881  0.89626  1.0000
  H   H3314     1.0  0.26409  0.40602  0.78115  1.0000
  C   C1928     1.0  0.25192  0.47977  0.83107  1.0000
  H   H3315     1.0  0.25302  0.44488  0.82604  1.0000
  H   H3316     1.0  0.24854  0.31465  0.93743  1.0000
  C   C1929     1.0  0.33180  0.48185  0.93981  1.0000
  H   H3317     1.0  0.25117  0.40760  0.82664  1.0000
  S   S566      1.0  0.27853  0.47261  0.93245  1.0000
  H   H3318     1.0  0.24722  0.41373  0.89800  1.0000
  H   H3319     1.0  0.32843  0.47543  0.91572  1.0000
  H   H3320     1.0  0.31104  0.47119  0.92795  1.0000
  C   C1930     1.0  0.34265  0.47440  0.88234  1.0000
  C   C1931     1.0  0.25088  0.48231  0.84498  1.0000
  H   H3321     1.0  0.24667  0.33784  0.94944  1.0000
  Fe  Fe283     1.0  0.24543  0.47065  0.80037  1.0000
  C   C1932     1.0  0.24519  0.41995  0.84461  1.0000
  C   C1933     1.0  0.45484  0.23358  0.94114  1.0000
  C   C1934     1.0  0.25406  0.69419  0.45612  1.0000
  H   H3322     1.0  0.24704  0.53874  0.01464  1.0000
  H   H3323     1.0  0.32358  0.53410  0.12962  1.0000
  H   H3324     1.0  0.26135  0.56945  0.06637  1.0000
  C   C1935     1.0  0.44291  0.72755  0.14882  1.0000
  H   H3325     1.0  0.27362  0.57777  0.05068  1.0000
  S   S567      1.0  0.40221  0.63577  0.00749  1.0000
  S   S568      1.0  0.27331  0.61199  0.09032  1.0000
  C   C1936     1.0  0.24850  0.49550  0.12717  1.0000
  H   H3326     1.0  0.30535  0.67008  0.07574  1.0000
  Fe  Fe284     1.0  0.47570  0.55560  0.13647  1.0000
  C   C1937     1.0  0.38847  0.57114  0.16693  1.0000
  S   S569      1.0  0.46702  0.54260  0.12566  1.0000
  Fe  Fe285     1.0  0.46556  0.57622  0.15801  1.0000
  H   H3327     1.0  0.41713  0.71002  0.04323  1.0000
  S   S570      1.0  0.44420  0.58502  0.17301  1.0000
  Fe  Fe286     1.0  0.48508  0.58522  0.12766  1.0000
  H   H3328     1.0  0.25389  0.48413  0.13096  1.0000
  C   C1938     1.0  0.29423  0.64183  0.07631  1.0000
  C   C1939     1.0  0.26887  0.51547  0.03851  1.0000
  S   S571      1.0  0.46294  0.57905  0.13517  1.0000
  S   S572      1.0  0.47671  0.55213  0.16017  1.0000
  H   H3329     1.0  0.43533  0.70559  0.98305  1.0000
  C   C1940     1.0  0.40919  0.70010  0.01010  1.0000
  H   H3330     1.0  0.41285  0.69178  0.01964  1.0000
  H   H3331     1.0  0.35200  0.55997  0.98559  1.0000
  S   S573      1.0  0.48832  0.67791  0.16736  1.0000
  S   S574      1.0  0.38291  0.73309  0.99619  1.0000
  Fe  Fe287     1.0  0.39706  0.49821  0.12257  1.0000
  S   S575      1.0  0.39158  0.51558  0.10252  1.0000
  S   S576      1.0  0.38992  0.50261  0.14540  1.0000
  Fe  Fe288     1.0  0.39752  0.66889  0.06950  1.0000
  S   S577      1.0  0.38593  0.67735  0.09016  1.0000
  S   S578      1.0  0.39167  0.68092  0.04769  1.0000
  Fe  Fe289     1.0  0.41563  0.64095  0.08569  1.0000
  S   S579      1.0  0.40573  0.64709  0.10759  1.0000
  S   S580      1.0  0.42964  0.61824  0.08446  1.0000
  Fe  Fe290     1.0  0.38395  0.65379  0.10040  1.0000
  S   S581      1.0  0.36359  0.64501  0.11387  1.0000
  Fe  Fe291     1.0  0.40885  0.66995  0.09513  1.0000
  S   S582      1.0  0.42123  0.68201  0.10296  1.0000
  S   S583      1.0  0.39377  0.64606  0.07934  1.0000
  S   S584      1.0  0.42060  0.66313  0.07363  1.0000
  Fe  Fe292     1.0  0.46849  0.68149  0.18593  1.0000
  H   H3332     1.0  0.48787  0.69755  0.13953  1.0000
  S   S585      1.0  0.46220  0.70328  0.19279  1.0000
  Fe  Fe293     1.0  0.45934  0.65344  0.18652  1.0000
  C   C1941     1.0  0.24886  0.50650  0.13379  1.0000
  S   S586      1.0  0.44076  0.64123  0.19632  1.0000
  C   C1942     1.0  0.31853  0.66723  0.09160  1.0000
  H   H3333     1.0  0.31180  0.67704  0.09606  1.0000
  Fe  Fe294     1.0  0.47309  0.67180  0.15736  1.0000
  S   S587      1.0  0.47129  0.67973  0.13368  1.0000
  N   N140      1.0  0.29684  0.65446  0.09541  1.0000
  S   S588      1.0  0.45289  0.67708  0.17495  1.0000
  Fe  Fe295     1.0  0.32354  0.57784  0.09582  1.0000
  S   S589      1.0  0.31203  0.60096  0.09803  1.0000
  S   S590      1.0  0.33118  0.56257  0.11572  1.0000
  Fe  Fe296     1.0  0.32271  0.58403  0.06388  1.0000
  S   S591      1.0  0.33122  0.57681  0.04239  1.0000
  Fe  Fe297     1.0  0.32699  0.60780  0.07630  1.0000
  S   S592      1.0  0.33792  0.62718  0.06938  1.0000
  S   S593      1.0  0.33993  0.58487  0.07510  1.0000
  S   S594      1.0  0.30708  0.57506  0.08462  1.0000
  H   H3334     1.0  0.33243  0.52284  0.14927  1.0000
  C   C1943     1.0  0.25941  0.52902  0.06577  1.0000
  H   H3335     1.0  0.46189  0.71340  0.04045  1.0000
  H   H3336     1.0  0.32349  0.65871  0.10033  1.0000
  H   H3337     1.0  0.30633  0.52838  0.13599  1.0000
  H   H3338     1.0  0.48809  0.72424  0.13075  1.0000
  H   H3339     1.0  0.24906  0.51159  0.06715  1.0000
  C   C1944     1.0  0.46384  0.72251  0.11174  1.0000
  C   C1945     1.0  0.43081  0.67120  0.00433  1.0000
  H   H3340     1.0  0.28486  0.63603  0.12356  1.0000
  C   C1946     1.0  0.40350  0.57342  0.15649  1.0000
  H   H3341     1.0  0.35675  0.58422  0.01686  1.0000
  Fe  Fe298     1.0  0.28683  0.56653  0.99740  1.0000
  C   C1947     1.0  0.26380  0.59826  0.02678  1.0000
  H   H3342     1.0  0.45250  0.71783  0.14822  1.0000
  H   H3343     1.0  0.44400  0.55236  0.17143  1.0000
  C   C1948     1.0  0.33690  0.51106  0.14872  1.0000
  H   H3344     1.0  0.24514  0.57672  0.08845  1.0000
  C   C1949     1.0  0.43169  0.73311  0.06633  1.0000
  H   H3345     1.0  0.40425  0.68694  0.99838  1.0000
  C   C1950     1.0  0.29969  0.69872  0.98906  1.0000
  H   H3346     1.0  0.26632  0.53789  0.01435  1.0000
  H   H3347     1.0  0.25579  0.57462  0.02726  1.0000
  H   H3348     1.0  0.27190  0.60342  0.04380  1.0000
  N   N141      1.0  0.25301  0.52327  0.04395  1.0000
  H   H3349     1.0  0.25538  0.54332  0.46151  1.0000
  H   H3350     1.0  0.31031  0.64138  0.11124  1.0000
  H   H3351     1.0  0.44069  0.57096  0.12409  1.0000
  H   H3352     1.0  0.29396  0.66487  0.11363  1.0000
  H   H3353     1.0  0.35457  0.54067  0.99377  1.0000
  H   H3354     1.0  0.43408  0.71643  0.12970  1.0000
  H   H3355     1.0  0.46878  0.49027  0.10491  1.0000
  H   H3356     1.0  0.42201  0.70779  0.19726  1.0000
  C   C1951     1.0  0.47233  0.69837  0.12683  1.0000
  C   C1952     1.0  0.46401  0.70732  0.11648  1.0000
  H   H3357     1.0  0.24807  0.56284  0.45887  1.0000
  S   S595      1.0  0.28362  0.59116  0.98943  1.0000
  H   H3358     1.0  0.47822  0.70690  0.05989  1.0000
  H   H3359     1.0  0.45738  0.70256  0.11244  1.0000
  H   H3360     1.0  0.38220  0.71802  0.07655  1.0000
  H   H3361     1.0  0.41002  0.70317  0.98699  1.0000
  C   C1953     1.0  0.35560  0.64033  0.10197  1.0000
  C   C1954     1.0  0.35708  0.64804  0.08725  1.0000
  C   C1955     1.0  0.35175  0.64374  0.07739  1.0000
  C   C1956     1.0  0.34474  0.63177  0.08219  1.0000
  C   C1957     1.0  0.34296  0.62414  0.09699  1.0000
  C   C1958     1.0  0.34830  0.62851  0.10692  1.0000
  H   H3362     1.0  0.36227  0.65747  0.08345  1.0000
  H   H3363     1.0  0.35305  0.64975  0.06598  1.0000
  C   C1959     1.0  0.27010  0.60820  0.03243  1.0000
  H   H3364     1.0  0.34707  0.62255  0.11833  1.0000
  C   C1960     1.0  0.41575  0.70119  0.10207  1.0000
  C   C1961     1.0  0.40115  0.70908  0.10144  1.0000
  H   H3365     1.0  0.39297  0.70345  0.10110  1.0000
  C   C1962     1.0  0.37515  0.52917  0.10603  1.0000
  C   C1963     1.0  0.36790  0.53728  0.09454  1.0000
  C   C1964     1.0  0.35444  0.54773  0.09734  1.0000
  C   C1965     1.0  0.34832  0.55021  0.11162  1.0000
  C   C1966     1.0  0.35568  0.54232  0.12301  1.0000
  C   C1967     1.0  0.36906  0.53187  0.12021  1.0000
  H   H3366     1.0  0.37253  0.53522  0.08354  1.0000
  H   H3367     1.0  0.34866  0.55356  0.08854  1.0000
  H   H3368     1.0  0.35099  0.54421  0.13407  1.0000
  H   H3369     1.0  0.37465  0.52603  0.12904  1.0000
  H   H3370     1.0  0.39692  0.70411  0.01354  1.0000
  C   C1968     1.0  0.31794  0.48743  0.12817  1.0000
  H   H3371     1.0  0.33154  0.49283  0.14459  1.0000
  H   H3372     1.0  0.37034  0.69042  0.98882  1.0000
  H   H3373     1.0  0.38555  0.73012  0.10198  1.0000
  Fe  Fe299     1.0  0.35979  0.64458  0.98241  1.0000
  H   H3374     1.0  0.40527  0.73054  0.16207  1.0000
  H   H3375     1.0  0.48212  0.72028  0.16822  1.0000
  S   S596      1.0  0.30799  0.56155  0.98063  1.0000
  H   H3376     1.0  0.36681  0.59613  0.00149  1.0000
  H   H3377     1.0  0.30609  0.54809  0.11400  1.0000
  H   H3378     1.0  0.32231  0.53839  0.10344  1.0000
  C   C1969     1.0  0.47246  0.72863  0.11696  1.0000
  C   C1970     1.0  0.28756  0.66428  0.10586  1.0000
  H   H3379     1.0  0.27809  0.65944  0.11330  1.0000
  C   C1971     1.0  0.24574  0.58356  0.02944  1.0000
  H   H3380     1.0  0.30492  0.53200  0.10916  1.0000
  C   C1972     1.0  0.44635  0.61503  0.09017  1.0000
  C   C1973     1.0  0.45179  0.62681  0.09084  1.0000
  C   C1974     1.0  0.46489  0.62399  0.09602  1.0000
  C   C1975     1.0  0.47224  0.60940  0.10098  1.0000
  C   C1976     1.0  0.46700  0.59767  0.09988  1.0000
  C   C1977     1.0  0.45413  0.60048  0.09442  1.0000
  H   H3381     1.0  0.44590  0.63809  0.08741  1.0000
  H   H3382     1.0  0.46905  0.63307  0.09664  1.0000
  H   H3383     1.0  0.47289  0.58638  0.10327  1.0000
  H   H3384     1.0  0.45006  0.59134  0.09376  1.0000
  C   C1978     1.0  0.44394  0.60020  0.17985  1.0000
  C   C1979     1.0  0.45692  0.60525  0.17785  1.0000
  C   C1980     1.0  0.45617  0.61771  0.18310  1.0000
  C   C1981     1.0  0.44244  0.62511  0.19036  1.0000
  C   C1982     1.0  0.42955  0.61988  0.19253  1.0000
  C   C1983     1.0  0.43029  0.60751  0.18727  1.0000
  H   H3385     1.0  0.46754  0.59950  0.17244  1.0000
  H   H3386     1.0  0.46622  0.62145  0.18171  1.0000
  H   H3387     1.0  0.41893  0.62551  0.19819  1.0000
  H   H3388     1.0  0.42024  0.60362  0.18895  1.0000
  C   C1984     1.0  0.45581  0.52969  0.13547  1.0000
  C   C1985     1.0  0.45562  0.52278  0.15030  1.0000
  C   C1986     1.0  0.44669  0.51235  0.15764  1.0000
  C   C1987     1.0  0.43775  0.50894  0.15027  1.0000
  C   C1988     1.0  0.43780  0.51600  0.13551  1.0000
  C   C1989     1.0  0.44694  0.52620  0.12810  1.0000
  H   H3389     1.0  0.46247  0.52534  0.15605  1.0000
  H   H3390     1.0  0.44666  0.50695  0.16908  1.0000
  H   H3391     1.0  0.43088  0.51354  0.12976  1.0000
  H   H3392     1.0  0.44706  0.53150  0.11662  1.0000
  H   H3393     1.0  0.44062  0.55696  0.14826  1.0000
  C   C1990     1.0  0.30361  0.63980  0.10429  1.0000
  H   H3394     1.0  0.30078  0.68690  0.99456  1.0000
  H   H3395     1.0  0.30737  0.57301  0.00572  1.0000
  H   H3396     1.0  0.37982  0.58142  0.16464  1.0000
  H   H3397     1.0  0.27142  0.52421  0.06202  1.0000
  H   H3398     1.0  0.41028  0.55541  0.18267  1.0000
  H   H3399     1.0  0.31174  0.63277  0.09691  1.0000
  C   C1991     1.0  0.43213  0.71647  0.17444  1.0000
  H   H3400     1.0  0.39919  0.70910  0.04167  1.0000
  H   H3401     1.0  0.47978  0.61761  0.13813  1.0000
  H   H3402     1.0  0.36136  0.73180  0.05901  1.0000
  C   C1992     1.0  0.39697  0.72415  0.10196  1.0000
  C   C1993     1.0  0.47138  0.70498  0.20547  1.0000
  C   C1994     1.0  0.46930  0.71894  0.20836  1.0000
  C   C1995     1.0  0.47672  0.72079  0.21813  1.0000
  C   C1996     1.0  0.43760  0.73346  0.04969  1.0000
  H   H3403     1.0  0.43432  0.72472  0.17906  1.0000
  H   H3404     1.0  0.40971  0.72149  0.02773  1.0000
  C   C1997     1.0  0.39899  0.64834  0.01869  1.0000
  C   C1998     1.0  0.40583  0.64421  0.03072  1.0000
  C   C1999     1.0  0.40362  0.65419  0.03965  1.0000
  C   C2000     1.0  0.39443  0.66830  0.03666  1.0000
  C   C2001     1.0  0.38768  0.67246  0.02458  1.0000
  C   C2002     1.0  0.39004  0.66254  0.01554  1.0000
  H   H3405     1.0  0.41295  0.63332  0.03308  1.0000
  H   H3406     1.0  0.40923  0.65103  0.04869  1.0000
  H   H3407     1.0  0.38066  0.68340  0.02217  1.0000
  H   H3408     1.0  0.38512  0.66601  0.00603  1.0000
  H   H3409     1.0  0.29790  0.63040  0.08242  1.0000
  N   N142      1.0  0.42833  0.68479  0.99212  1.0000
  S   S597      1.0  0.27758  0.70721  0.45154  1.0000
  C   C2003     1.0  0.31788  0.57456  0.02195  1.0000
  C   C2004     1.0  0.31823  0.57100  0.03692  1.0000
  C   C2005     1.0  0.30856  0.56253  0.04719  1.0000
  C   C2006     1.0  0.29871  0.55745  0.04239  1.0000
  H   H3410     1.0  0.32535  0.58111  0.01399  1.0000
  H   H3411     1.0  0.30896  0.55960  0.05874  1.0000
  H   H3412     1.0  0.29142  0.55068  0.05028  1.0000
  C   C2007     1.0  0.30770  0.56994  0.01726  1.0000
  H   H3413     1.0  0.31382  0.62290  0.00103  1.0000
  C   C2008     1.0  0.31679  0.52780  0.12719  1.0000
  H   H3414     1.0  0.43359  0.54515  0.18909  1.0000
  H   H3415     1.0  0.25835  0.54486  0.03873  1.0000
  H   H3416     1.0  0.33810  0.51641  0.10506  1.0000
  C   C2009     1.0  0.33489  0.69447  0.98498  1.0000
  S   S598      1.0  0.28506  0.55601  0.02150  1.0000
  Fe  Fe300     1.0  0.29694  0.59906  0.08489  1.0000
  C   C2010     1.0  0.25817  0.59183  0.08862  1.0000
  N   N143      1.0  0.39177  0.59508  0.09511  1.0000
  C   C2011     1.0  0.39868  0.59594  0.10706  1.0000
  C   C2012     1.0  0.40192  0.58262  0.08812  1.0000
  C   C2013     1.0  0.37670  0.59139  0.10256  1.0000
  C   C2014     1.0  0.39023  0.60990  0.08439  1.0000
  C   C2015     1.0  0.39003  0.60776  0.11617  1.0000
  C   C2016     1.0  0.41779  0.58489  0.07996  1.0000
  C   C2017     1.0  0.36806  0.58827  0.09289  1.0000
  C   C2018     1.0  0.38758  0.61067  0.06909  1.0000
  H   H3417     1.0  0.40045  0.58506  0.11500  1.0000
  H   H3418     1.0  0.40993  0.59850  0.10229  1.0000
  H   H3419     1.0  0.39719  0.58016  0.08011  1.0000
  H   H3420     1.0  0.40317  0.57207  0.09664  1.0000
  H   H3421     1.0  0.37781  0.58151  0.11185  1.0000
  H   H3422     1.0  0.36901  0.60058  0.10753  1.0000
  H   H3423     1.0  0.38092  0.61816  0.08940  1.0000
  H   H3424     1.0  0.40039  0.61435  0.08226  1.0000
  H   H3425     1.0  0.37905  0.60563  0.12288  1.0000
  H   H3426     1.0  0.39664  0.60759  0.12404  1.0000
  H   H3427     1.0  0.38859  0.61909  0.10912  1.0000
  H   H3428     1.0  0.42353  0.57601  0.07377  1.0000
  H   H3429     1.0  0.41767  0.59560  0.07182  1.0000
  H   H3430     1.0  0.42478  0.58401  0.08773  1.0000
  H   H3431     1.0  0.35737  0.58558  0.10002  1.0000
  H   H3432     1.0  0.37399  0.57849  0.08807  1.0000
  H   H3433     1.0  0.36487  0.59812  0.08427  1.0000
  H   H3434     1.0  0.37680  0.61846  0.06759  1.0000
  H   H3435     1.0  0.38730  0.60008  0.06709  1.0000
  H   H3436     1.0  0.39644  0.61523  0.06020  1.0000
  H   H3437     1.0  0.34559  0.51979  0.11795  1.0000
  C   C2019     1.0  0.42212  0.72364  0.10299  1.0000
  H   H3438     1.0  0.37228  0.70653  0.00381  1.0000
  H   H3439     1.0  0.46590  0.72148  0.06744  1.0000
  C   C2020     1.0  0.41518  0.54704  0.15567  1.0000
  H   H3440     1.0  0.43750  0.70245  0.10318  1.0000
  H   H3441     1.0  0.34694  0.60026  0.00632  1.0000
  H   H3442     1.0  0.37298  0.71886  0.04827  1.0000
  C   C2021     1.0  0.41264  0.69369  0.99629  1.0000
  C   C2022     1.0  0.32682  0.50487  0.14306  1.0000
  C   C2023     1.0  0.28027  0.68014  0.09864  1.0000
  H   H3443     1.0  0.48278  0.68205  0.21004  1.0000
  H   H3444     1.0  0.43254  0.57553  0.15004  1.0000
  C   C2024     1.0  0.24764  0.72030  0.45596  1.0000
  H   H3445     1.0  0.44117  0.73212  0.13738  1.0000
  H   H3446     1.0  0.42019  0.56962  0.17559  1.0000
  H   H3447     1.0  0.41710  0.70589  0.16131  1.0000
  H   H3448     1.0  0.47586  0.72294  0.03752  1.0000
  H   H3449     1.0  0.40951  0.54972  0.14633  1.0000
  H   H3450     1.0  0.30379  0.64536  0.06773  1.0000
  H   H3451     1.0  0.31687  0.50708  0.11084  1.0000
  H   H3452     1.0  0.35665  0.61689  0.01429  1.0000
  C   C2025     1.0  0.35710  0.59581  0.01100  1.0000
  H   H3453     1.0  0.33975  0.54921  0.98436  1.0000
  C   C2026     1.0  0.42621  0.70854  0.10274  1.0000
  C   C2027     1.0  0.29812  0.56135  0.02744  1.0000
  H   H3454     1.0  0.34916  0.49122  0.10872  1.0000
  H   H3455     1.0  0.43838  0.69697  0.00105  1.0000
  H   H3456     1.0  0.27929  0.68782  0.10572  1.0000
  C   C2028     1.0  0.42409  0.71404  0.13825  1.0000
  H   H3457     1.0  0.28602  0.62722  0.10883  1.0000
  S   S599      1.0  0.32825  0.73036  0.47200  1.0000
  H   H3458     1.0  0.31570  0.50581  0.15088  1.0000
  C   C2029     1.0  0.24981  0.58790  0.05174  1.0000
  Fe  Fe301     1.0  0.28290  0.72687  0.45571  1.0000
  H   H3459     1.0  0.39863  0.54202  0.17724  1.0000
  H   H3460     1.0  0.26895  0.68057  0.09734  1.0000
  H   H3461     1.0  0.25264  0.55471  0.01476  1.0000
  C   C2030     1.0  0.40693  0.53664  0.16873  1.0000
  C   C2031     1.0  0.35106  0.49701  0.11624  1.0000
  C   C2032     1.0  0.37485  0.70015  0.98343  1.0000
  H   H3462     1.0  0.43538  0.53709  0.17391  1.0000
  N   N144      1.0  0.32501  0.51191  0.12744  1.0000
  H   H3463     1.0  0.28406  0.50158  0.05287  1.0000
  S   S600      1.0  0.47828  0.64770  0.16785  1.0000
  S   S601      1.0  0.27201  0.56380  0.98443  1.0000
  C   C2033     1.0  0.41962  0.55889  0.17378  1.0000
  H   H3464     1.0  0.41982  0.69861  0.18468  1.0000
  C   C2034     1.0  0.30940  0.66110  0.08475  1.0000
  H   H3465     1.0  0.47504  0.73161  0.22027  1.0000
  H   H3466     1.0  0.25160  0.49307  0.04414  1.0000
  N   N145      1.0  0.42919  0.72272  0.15912  1.0000
  S   S602      1.0  0.33754  0.63859  0.99314  1.0000
  S   S603      1.0  0.48676  0.58442  0.15050  1.0000
  C   C2035     1.0  0.42690  0.71024  0.15398  1.0000
  H   H3467     1.0  0.33752  0.61489  0.10077  1.0000
  S   S604      1.0  0.42658  0.49593  0.15984  1.0000
  H   H3468     1.0  0.40851  0.71694  0.18610  1.0000
  H   H3469     1.0  0.32797  0.67087  0.08286  1.0000
  H   H3470     1.0  0.31326  0.48413  0.14021  1.0000
  H   H3471     1.0  0.25852  0.55345  0.47274  1.0000
  C   C2036     1.0  0.46672  0.71387  0.06044  1.0000
  C   C2037     1.0  0.25851  0.70734  0.45451  1.0000
  N   N146      1.0  0.24910  0.59458  0.03581  1.0000
  S   S605      1.0  0.25769  0.50177  0.14861  1.0000
  H   H3472     1.0  0.40081  0.53119  0.16433  1.0000
  H   H3473     1.0  0.37130  0.73146  0.43958  1.0000
  H   H3474     1.0  0.43325  0.67399  0.01371  1.0000
  C   C2038     1.0  0.25097  0.53937  0.03606  1.0000
  C   C2039     1.0  0.46469  0.72169  0.04463  1.0000
  H   H3475     1.0  0.27262  0.58800  0.02571  1.0000
  H   H3476     1.0  0.27676  0.64883  0.09426  1.0000
  H   H3477     1.0  0.25052  0.59628  0.05728  1.0000
  C   C2040     1.0  0.42944  0.56999  0.13110  1.0000
  Fe  Fe302     1.0  0.38865  0.64325  0.99012  1.0000
  H   H3478     1.0  0.46501  0.65074  0.11178  1.0000
  C   C2041     1.0  0.37706  0.71420  0.06981  1.0000
  H   H3479     1.0  0.45707  0.72944  0.10405  1.0000
  H   H3480     1.0  0.41505  0.52737  0.17397  1.0000
  H   H3481     1.0  0.42034  0.66701  0.00902  1.0000
  N   N147      1.0  0.41694  0.56098  0.15859  1.0000
  H   H3482     1.0  0.41426  0.70978  0.00759  1.0000
  C   C2042     1.0  0.35145  0.54919  0.98404  1.0000
  H   H3483     1.0  0.33688  0.68998  0.00774  1.0000
  H   H3484     1.0  0.38868  0.56914  0.17873  1.0000
  H   H3485     1.0  0.45864  0.70660  0.06605  1.0000
  S   S606      1.0  0.47317  0.65822  0.19933  1.0000
  C   C2043     1.0  0.25006  0.55255  0.46734  1.0000
  C   C2044     1.0  0.26274  0.57443  0.05437  1.0000
  H   H3486     1.0  0.31754  0.65278  0.07884  1.0000
  H   H3487     1.0  0.40130  0.72433  0.05971  1.0000
  H   H3488     1.0  0.33747  0.50484  0.16019  1.0000
  H   H3489     1.0  0.42637  0.54015  0.15203  1.0000
  H   H3490     1.0  0.41435  0.72335  0.13665  1.0000
  C   C2045     1.0  0.40668  0.71668  0.03973  1.0000
  H   H3491     1.0  0.26298  0.61952  0.03178  1.0000
  C   C2046     1.0  0.48132  0.71954  0.12681  1.0000
  H   H3492     1.0  0.33871  0.51552  0.97988  1.0000
  H   H3493     1.0  0.34854  0.50950  0.14207  1.0000
  C   C2047     1.0  0.25447  0.54256  0.01901  1.0000
  H   H3494     1.0  0.28242  0.66338  0.07980  1.0000
  H   H3495     1.0  0.29931  0.70513  0.99712  1.0000
  H   H3496     1.0  0.30336  0.50863  0.12757  1.0000
  H   H3497     1.0  0.38469  0.56219  0.16484  1.0000
  H   H3498     1.0  0.38298  0.61318  0.01138  1.0000
  C   C2048     1.0  0.38185  0.72193  0.98511  1.0000
  C   C2049     1.0  0.37596  0.70929  0.99191  1.0000
  C   C2050     1.0  0.29252  0.63046  0.11482  1.0000
  H   H3499     1.0  0.40547  0.58390  0.15759  1.0000
  C   C2051     1.0  0.37309  0.72562  0.05590  1.0000
  H   H3500     1.0  0.36257  0.49907  0.11220  1.0000
  H   H3501     1.0  0.45030  0.66714  0.11056  1.0000
  H   H3502     1.0  0.46193  0.72836  0.20303  1.0000
  S   S607      1.0  0.42056  0.48636  0.12457  1.0000
  C   C2052     1.0  0.44309  0.65775  0.00019  1.0000
  H   H3503     1.0  0.42162  0.70426  0.13625  1.0000
  H   H3504     1.0  0.28588  0.64141  0.07049  1.0000
  C   C2053     1.0  0.24916  0.52286  0.06029  1.0000
  C   C2054     1.0  0.48613  0.70864  0.22520  1.0000
  H   H3505     1.0  0.25089  0.73049  0.45449  1.0000
  C   C2055     1.0  0.27504  0.50050  0.04832  1.0000
  H   H3506     1.0  0.47392  0.63708  0.13220  1.0000
  H   H3507     1.0  0.26862  0.58369  0.08817  1.0000
  H   H3508     1.0  0.40156  0.57560  0.14519  1.0000
  H   H3509     1.0  0.44867  0.65221  0.00960  1.0000
  H   H3510     1.0  0.33269  0.70647  0.98486  1.0000
  H   H3511     1.0  0.43801  0.64930  0.99884  1.0000
  H   H3512     1.0  0.30824  0.60621  0.98879  1.0000
  C   C2056     1.0  0.43032  0.56584  0.14754  1.0000
  H   H3513     1.0  0.43673  0.70073  0.15446  1.0000
  H   H3514     1.0  0.43652  0.72296  0.04785  1.0000
  H   H3515     1.0  0.33520  0.67422  0.00279  1.0000
  H   H3516     1.0  0.44261  0.70777  0.17404  1.0000
  C   C2057     1.0  0.43399  0.54765  0.17707  1.0000
  C   C2058     1.0  0.31237  0.53684  0.11251  1.0000
  C   C2059     1.0  0.40743  0.73144  0.10283  1.0000
  H   H3517     1.0  0.26675  0.49571  0.05757  1.0000
  N   N148      1.0  0.36918  0.60067  0.02969  1.0000
  C   C2060     1.0  0.35674  0.60558  0.02138  1.0000
  C   C2061     1.0  0.36548  0.61058  0.04041  1.0000
  C   C2062     1.0  0.36945  0.58481  0.03798  1.0000
  C   C2063     1.0  0.38367  0.60197  0.01863  1.0000
  H   H3518     1.0  0.28032  0.49215  0.04141  1.0000
  C   C2064     1.0  0.36367  0.62733  0.03365  1.0000
  C   C2065     1.0  0.37682  0.57906  0.05145  1.0000
  C   C2066     1.0  0.39797  0.59800  0.02462  1.0000
  H   H3519     1.0  0.34561  0.60627  0.02925  1.0000
  C   C2067     1.0  0.48103  0.69284  0.21230  1.0000
  H   H3520     1.0  0.37398  0.60768  0.04706  1.0000
  H   H3521     1.0  0.35488  0.60897  0.04857  1.0000
  H   H3522     1.0  0.35784  0.58310  0.04244  1.0000
  H   H3523     1.0  0.37500  0.57708  0.03041  1.0000
  H   H3524     1.0  0.38598  0.59466  0.01082  1.0000
  C   C2068     1.0  0.43885  0.69461  0.99028  1.0000
  H   H3525     1.0  0.28124  0.60935  0.02522  1.0000
  H   H3526     1.0  0.26305  0.56570  0.04886  1.0000
  C   C2069     1.0  0.41975  0.70964  0.18613  1.0000
  H   H3527     1.0  0.37351  0.63000  0.02502  1.0000
  H   H3528     1.0  0.35338  0.63202  0.02925  1.0000
  H   H3529     1.0  0.36251  0.63316  0.04246  1.0000
  H   H3530     1.0  0.37612  0.56730  0.05618  1.0000
  H   H3531     1.0  0.37082  0.58506  0.06039  1.0000
  H   H3532     1.0  0.38876  0.57932  0.04868  1.0000
  H   H3533     1.0  0.40302  0.58597  0.02603  1.0000
  H   H3534     1.0  0.39635  0.60162  0.03494  1.0000
  H   H3535     1.0  0.40630  0.60400  0.01654  1.0000
  H   H3536     1.0  0.25678  0.52622  0.07805  1.0000
  S   S608      1.0  0.36681  0.65976  0.99173  1.0000
  C   C2070     1.0  0.31547  0.50441  0.12307  1.0000
  H   H3537     1.0  0.46158  0.69763  0.98257  1.0000
  C   C2071     1.0  0.39953  0.72907  0.04834  1.0000
  H   H3538     1.0  0.34726  0.69092  0.98138  1.0000
  H   H3539     1.0  0.38434  0.70387  0.06669  1.0000
  C   C2072     1.0  0.25767  0.60624  0.08955  1.0000
  S   S609      1.0  0.48694  0.60582  0.10993  1.0000
  H   H3540     1.0  0.28688  0.68460  0.08772  1.0000
  H   H3541     1.0  0.43943  0.72557  0.07316  1.0000
  H   H3542     1.0  0.25740  0.54123  0.06242  1.0000
  H   H3543     1.0  0.36670  0.71097  0.07712  1.0000
  H   H3544     1.0  0.42614  0.56141  0.12789  1.0000
  H   H3545     1.0  0.31902  0.68894  0.00638  1.0000
  H   H3546     1.0  0.29896  0.62003  0.12060  1.0000
  H   H3547     1.0  0.26242  0.68412  0.45495  1.0000
  H   H3548     1.0  0.42192  0.58095  0.12833  1.0000
  C   C2073     1.0  0.28685  0.65257  0.08678  1.0000
  C   C2074     1.0  0.45551  0.68888  0.98390  1.0000
  H   H3549     1.0  0.43026  0.72917  0.10361  1.0000
  S   S610      1.0  0.31117  0.60773  0.06314  1.0000
  H   H3550     1.0  0.45603  0.72235  0.01854  1.0000
  H   H3551     1.0  0.45713  0.66035  0.12672  1.0000
  C   C2075     1.0  0.32119  0.62034  0.99088  1.0000
  C   C2076     1.0  0.33980  0.51195  0.11653  1.0000
  N   N149      1.0  0.44248  0.63700  0.13892  1.0000
  C   C2077     1.0  0.42888  0.63037  0.14311  1.0000
  C   C2078     1.0  0.44120  0.64501  0.15073  1.0000
  C   C2079     1.0  0.45611  0.62441  0.13854  1.0000
  C   C2080     1.0  0.44261  0.64729  0.12394  1.0000
  C   C2081     1.0  0.42917  0.61937  0.13399  1.0000
  C   C2082     1.0  0.42800  0.65846  0.15201  1.0000
  C   C2083     1.0  0.47057  0.62727  0.14018  1.0000
  C   C2084     1.0  0.45456  0.65670  0.11807  1.0000
  H   H3552     1.0  0.42711  0.62431  0.15493  1.0000
  H   H3553     1.0  0.41857  0.63915  0.14210  1.0000
  H   H3554     1.0  0.45135  0.64912  0.14931  1.0000
  H   H3555     1.0  0.44024  0.63723  0.16170  1.0000
  H   H3556     1.0  0.45384  0.61467  0.14760  1.0000
  H   H3557     1.0  0.45886  0.62048  0.12812  1.0000
  H   H3558     1.0  0.44427  0.64102  0.11539  1.0000
  H   H3559     1.0  0.43150  0.65488  0.12340  1.0000
  H   H3560     1.0  0.43075  0.62430  0.12200  1.0000
  H   H3561     1.0  0.43786  0.60909  0.13592  1.0000
  H   H3562     1.0  0.41826  0.61603  0.13754  1.0000
  H   H3563     1.0  0.42860  0.66716  0.14166  1.0000
  H   H3564     1.0  0.41705  0.65529  0.15527  1.0000
  H   H3565     1.0  0.42852  0.66347  0.16085  1.0000
  H   H3566     1.0  0.46964  0.62821  0.15159  1.0000
  C   C2085     1.0  0.48111  0.70447  0.13188  1.0000
  H   H3567     1.0  0.26285  0.60399  0.01526  1.0000
  C   C2086     1.0  0.33106  0.68639  0.00133  1.0000
  H   H3568     1.0  0.45564  0.49358  0.12181  1.0000
  C   C2087     1.0  0.48835  0.69467  0.22221  1.0000
  H   H3569     1.0  0.27668  0.52279  0.03692  1.0000
  H   H3570     1.0  0.45199  0.66031  0.99039  1.0000
  H   H3571     1.0  0.32113  0.67169  0.98890  1.0000
  C   C2088     1.0  0.46183  0.48505  0.11531  1.0000
  Fe  Fe303     1.0  0.41280  0.48955  0.14787  1.0000
  H   H3572     1.0  0.35113  0.48960  0.12723  1.0000
  H   H3573     1.0  0.42107  0.72920  0.07018  1.0000
  H   H3574     1.0  0.27024  0.51352  0.02733  1.0000
  H   H3575     1.0  0.41784  0.66272  0.98682  1.0000
  H   H3576     1.0  0.38459  0.73178  0.02683  1.0000
  C   C2089     1.0  0.31803  0.61089  0.98398  1.0000
  C   C2090     1.0  0.42975  0.68114  0.97755  1.0000
  C   C2091     1.0  0.33387  0.62645  0.98469  1.0000
  H   H3577     1.0  0.46050  0.67905  0.99157  1.0000
  Fe  Fe304     1.0  0.49167  0.65428  0.17964  1.0000
  C   C2092     1.0  0.49430  0.71690  0.16363  1.0000
  H   H3578     1.0  0.24828  0.59592  0.00612  1.0000
  H   H3579     1.0  0.28862  0.70206  0.98604  1.0000
  S   S611      1.0  0.38097  0.62719  0.98256  1.0000
  H   H3580     1.0  0.31322  0.53014  0.97765  1.0000
  H   H3581     1.0  0.43715  0.73349  0.02219  1.0000
  H   H3582     1.0  0.44783  0.48646  0.93331  1.0000
  H   H3583     1.0  0.32663  0.67251  0.95586  1.0000
  S   S612      1.0  0.44745  0.69254  0.93135  1.0000
  C   C2093     1.0  0.24929  0.51915  0.92887  1.0000
  H   H3584     1.0  0.29205  0.49546  0.96569  1.0000
  S   S613      1.0  0.26230  0.69074  0.56190  1.0000
  H   H3585     1.0  0.48757  0.72842  0.82538  1.0000
  H   H3586     1.0  0.44386  0.69892  0.82900  1.0000
  C   C2094     1.0  0.31098  0.73231  0.52979  1.0000
  H   H3587     1.0  0.34378  0.57548  0.93365  1.0000
  S   S614      1.0  0.37634  0.69352  0.95714  1.0000
  C   C2095     1.0  0.41614  0.56069  0.90382  1.0000
  H   H3588     1.0  0.43572  0.64859  0.89365  1.0000
  C   C2096     1.0  0.26043  0.58694  0.92376  1.0000
  H   H3589     1.0  0.35330  0.62756  0.96687  1.0000
  C   C2097     1.0  0.46432  0.62140  0.87879  1.0000
  C   C2098     1.0  0.36229  0.54507  0.96985  1.0000
  C   C2099     1.0  0.24958  0.50971  0.94277  1.0000
  C   C2100     1.0  0.46081  0.64602  0.86291  1.0000
  H   H3590     1.0  0.32781  0.50551  0.93583  1.0000
  C   C2101     1.0  0.32625  0.49740  0.93053  1.0000
  Fe  Fe305     1.0  0.29303  0.56107  0.96679  1.0000
  S   S615      1.0  0.29002  0.58522  0.95618  1.0000
  S   S616      1.0  0.30043  0.54480  0.95208  1.0000
  H   H3591     1.0  0.31246  0.71364  0.97374  1.0000
  H   H3592     1.0  0.38840  0.71952  0.94928  1.0000
  C   C2102     1.0  0.31517  0.52564  0.90959  1.0000
  C   C2103     1.0  0.43631  0.71353  0.94777  1.0000
  H   H3593     1.0  0.26006  0.59889  0.94028  1.0000
  H   H3594     1.0  0.25771  0.59095  0.91264  1.0000
  S   S617      1.0  0.32368  0.59638  0.96141  1.0000
  H   H3595     1.0  0.28535  0.55054  0.90882  1.0000
  H   H3596     1.0  0.36677  0.53835  0.94372  1.0000
  C   C2104     1.0  0.29925  0.50129  0.95595  1.0000
  C   C2105     1.0  0.29927  0.49629  0.94210  1.0000
  Fe  Fe306     1.0  0.47382  0.68000  0.88220  1.0000
  Fe  Fe307     1.0  0.38872  0.64001  0.95978  1.0000
  H   H3597     1.0  0.32505  0.70418  0.52549  1.0000
  H   H3598     1.0  0.41205  0.59275  0.91494  1.0000
  S   S618      1.0  0.40190  0.63037  0.94028  1.0000
  S   S619      1.0  0.36686  0.65619  0.95880  1.0000
  H   H3599     1.0  0.28681  0.55305  0.92589  1.0000
  H   H3600     1.0  0.29774  0.49699  0.91519  1.0000
  Fe  Fe308     1.0  0.47489  0.58289  0.93200  1.0000
  S   S620      1.0  0.45817  0.57943  0.92190  1.0000
  S   S621      1.0  0.46662  0.59648  0.94921  1.0000
  Fe  Fe309     1.0  0.47198  0.55651  0.92209  1.0000
  S   S622      1.0  0.45829  0.53874  0.93198  1.0000
  Fe  Fe310     1.0  0.47352  0.58643  0.90043  1.0000
  S   S623      1.0  0.46325  0.60271  0.88224  1.0000
  H   H3601     1.0  0.45747  0.65340  0.85310  1.0000
  H   H3602     1.0  0.26627  0.72812  0.61600  1.0000
  Fe  Fe311     1.0  0.37520  0.50140  0.90665  1.0000
  H   H3603     1.0  0.29438  0.51330  0.95508  1.0000
  S   S624      1.0  0.35771  0.51032  0.89312  1.0000
  Fe  Fe312     1.0  0.40517  0.50229  0.91134  1.0000
  C   C2106     1.0  0.27961  0.71943  0.52209  1.0000
  S   S625      1.0  0.42616  0.51122  0.89997  1.0000
  H   H3604     1.0  0.42238  0.66818  0.96706  1.0000
  H   H3605     1.0  0.42293  0.55145  0.91068  1.0000
  Fe  Fe313     1.0  0.37823  0.50048  0.93696  1.0000
  S   S626      1.0  0.36515  0.50744  0.95803  1.0000
  C   C2107     1.0  0.32748  0.60765  0.97079  1.0000
  S   S627      1.0  0.38227  0.51693  0.91550  1.0000
  H   H3606     1.0  0.44940  0.71512  0.86035  1.0000
  H   H3607     1.0  0.45627  0.62707  0.85881  1.0000
  H   H3608     1.0  0.36927  0.57772  0.93096  1.0000
  C   C2108     1.0  0.26223  0.55042  0.95344  1.0000
  H   H3609     1.0  0.42752  0.72910  0.96174  1.0000
  C   C2109     1.0  0.31186  0.70199  0.97498  1.0000
  C   C2110     1.0  0.47005  0.64177  0.88494  1.0000
  C   C2111     1.0  0.41066  0.55363  0.89438  1.0000
  Fe  Fe314     1.0  0.46512  0.69119  0.91060  1.0000
  S   S628      1.0  0.48630  0.56312  0.89949  1.0000
  H   H3610     1.0  0.25528  0.61175  0.52917  1.0000
  H   H3611     1.0  0.38987  0.53566  0.95205  1.0000
  H   H3612     1.0  0.30553  0.52316  0.93261  1.0000
  C   C2112     1.0  0.48972  0.69412  0.83583  1.0000
  H   H3613     1.0  0.27228  0.69200  0.49915  1.0000
  C   C2113     1.0  0.48176  0.63022  0.94547  1.0000
  S   S629      1.0  0.24903  0.60501  0.97214  1.0000
  H   H3614     1.0  0.43893  0.64592  0.92831  1.0000
  H   H3615     1.0  0.40093  0.67842  0.93724  1.0000
  H   H3616     1.0  0.41316  0.57421  0.92669  1.0000
  C   C2114     1.0  0.41699  0.68745  0.90665  1.0000
  H   H3617     1.0  0.34699  0.71287  0.94282  1.0000
  C   C2115     1.0  0.42340  0.61852  0.95668  1.0000
  H   H3618     1.0  0.28773  0.50052  0.94011  1.0000
  H   H3619     1.0  0.28093  0.73260  0.53591  1.0000
  H   H3620     1.0  0.31265  0.72221  0.53875  1.0000
  H   H3621     1.0  0.26109  0.72013  0.59868  1.0000
  H   H3622     1.0  0.25356  0.72047  0.50513  1.0000
  H   H3623     1.0  0.48488  0.62905  0.95603  1.0000
  S   S630      1.0  0.28765  0.72426  0.47787  1.0000
  H   H3624     1.0  0.32766  0.56778  0.94120  1.0000
  Fe  Fe315     1.0  0.27029  0.58812  0.97512  1.0000
  H   H3625     1.0  0.34575  0.71371  0.96125  1.0000
  H   H3626     1.0  0.38783  0.67493  0.91280  1.0000
  S   S631      1.0  0.36959  0.48598  0.92846  1.0000
  H   H3627     1.0  0.47327  0.69997  0.93523  1.0000
  C   C2116     1.0  0.43792  0.61134  0.95859  1.0000
  H   H3628     1.0  0.40433  0.54530  0.90186  1.0000
  H   H3629     1.0  0.27499  0.56733  0.94275  1.0000
  H   H3630     1.0  0.33985  0.54852  0.95935  1.0000
  C   C2117     1.0  0.34003  0.56513  0.93958  1.0000
  H   H3631     1.0  0.42459  0.70371  0.91317  1.0000
  C   C2118     1.0  0.41434  0.58581  0.88861  1.0000
  H   H3632     1.0  0.48876  0.71707  0.81335  1.0000
  H   H3633     1.0  0.49261  0.68456  0.84490  1.0000
  H   H3634     1.0  0.41475  0.62129  0.96606  1.0000
  H   H3635     1.0  0.40762  0.69937  0.92519  1.0000
  H   H3636     1.0  0.43329  0.48724  0.92485  1.0000
  C   C2119     1.0  0.30557  0.51785  0.92378  1.0000
  H   H3637     1.0  0.27263  0.58638  0.92141  1.0000
  H   H3638     1.0  0.40710  0.71070  0.90730  1.0000
  C   C2120     1.0  0.45104  0.57338  0.87778  1.0000
  C   C2121     1.0  0.24816  0.71169  0.51315  1.0000
  C   C2122     1.0  0.46326  0.70670  0.94056  1.0000
  H   H3639     1.0  0.45015  0.69788  0.84495  1.0000
  H   H3640     1.0  0.25894  0.48806  0.95462  1.0000
  H   H3641     1.0  0.32726  0.52240  0.90953  1.0000
  H   H3642     1.0  0.43859  0.56565  0.91164  1.0000
  H   H3643     1.0  0.27044  0.71503  0.53062  1.0000
  N   N150      1.0  0.31048  0.50122  0.92831  1.0000
  H   H3644     1.0  0.24568  0.64410  0.52758  1.0000
  C   C2123     1.0  0.40191  0.67286  0.92827  1.0000
  H   H3645     1.0  0.25101  0.65108  0.50818  1.0000
  C   C2124     1.0  0.33466  0.48907  0.87975  1.0000
  C   C2125     1.0  0.43731  0.56632  0.88372  1.0000
  H   H3646     1.0  0.31909  0.65977  0.97145  1.0000
  C   C2126     1.0  0.43749  0.72327  0.95550  1.0000
  Fe  Fe316     1.0  0.37608  0.66971  0.96812  1.0000
  S   S632      1.0  0.48468  0.70174  0.90441  1.0000
  H   H3647     1.0  0.32930  0.72040  0.95333  1.0000
  H   H3648     1.0  0.41048  0.66332  0.90279  1.0000
  H   H3649     1.0  0.41095  0.60981  0.88178  1.0000
  C   C2127     1.0  0.44925  0.53159  0.92274  1.0000
  C   C2128     1.0  0.43678  0.52557  0.93080  1.0000
  C   C2129     1.0  0.42946  0.51946  0.92395  1.0000
  C   C2130     1.0  0.43480  0.51900  0.90902  1.0000
  C   C2131     1.0  0.44738  0.52485  0.90100  1.0000
  C   C2132     1.0  0.45450  0.53126  0.90778  1.0000
  H   H3650     1.0  0.43275  0.52565  0.94242  1.0000
  H   H3651     1.0  0.41982  0.51495  0.93027  1.0000
  H   H3652     1.0  0.45163  0.52447  0.88947  1.0000
  H   H3653     1.0  0.46422  0.53567  0.90152  1.0000
  C   C2133     1.0  0.42003  0.62162  0.94278  1.0000
  C   C2134     1.0  0.41937  0.66095  0.90901  1.0000
  H   H3654     1.0  0.39310  0.54055  0.93246  1.0000
  C   C2135     1.0  0.44906  0.60734  0.94658  1.0000
  C   C2136     1.0  0.44588  0.61131  0.93253  1.0000
  C   C2137     1.0  0.43133  0.61818  0.93067  1.0000
  C   C2138     1.0  0.42880  0.66973  0.92583  1.0000
  H   H3655     1.0  0.45461  0.60893  0.92308  1.0000
  H   H3656     1.0  0.42888  0.62084  0.91984  1.0000
  H   H3657     1.0  0.42561  0.67735  0.93351  1.0000
  C   C2139     1.0  0.44919  0.70515  0.94038  1.0000
  C   C2140     1.0  0.46915  0.62679  0.88830  1.0000
  H   H3658     1.0  0.48371  0.63820  0.91606  1.0000
  H   H3659     1.0  0.29383  0.52107  0.92228  1.0000
  N   N151      1.0  0.42487  0.57252  0.89548  1.0000
  H   H3660     1.0  0.30817  0.67809  0.96722  1.0000
  H   H3661     1.0  0.47202  0.61947  0.89827  1.0000
  H   H3662     1.0  0.34751  0.68800  0.95766  1.0000
  H   H3663     1.0  0.43918  0.65376  0.94294  1.0000
  H   H3664     1.0  0.36112  0.53396  0.96963  1.0000
  C   C2141     1.0  0.34023  0.61364  0.96473  1.0000
  H   H3665     1.0  0.42815  0.69147  0.96893  1.0000
  H   H3666     1.0  0.47402  0.62266  0.94808  1.0000
  H   H3667     1.0  0.24810  0.71114  0.59597  1.0000
  C   C2142     1.0  0.44532  0.72416  0.85150  1.0000
  H   H3668     1.0  0.34758  0.61118  0.95454  1.0000
  H   H3669     1.0  0.25060  0.54891  0.95695  1.0000
  H   H3670     1.0  0.47912  0.65464  0.93922  1.0000
  C   C2143     1.0  0.46441  0.71675  0.94801  1.0000
  S   S633      1.0  0.39847  0.65436  0.96731  1.0000
  C   C2144     1.0  0.31818  0.53392  0.95391  1.0000
  C   C2145     1.0  0.32906  0.53114  0.94129  1.0000
  C   C2146     1.0  0.34338  0.52268  0.94256  1.0000
  C   C2147     1.0  0.34693  0.51712  0.95646  1.0000
  C   C2148     1.0  0.38701  0.54474  0.94261  1.0000
  C   C2149     1.0  0.32163  0.52816  0.96784  1.0000
  H   H3671     1.0  0.32652  0.53575  0.93049  1.0000
  H   H3672     1.0  0.35170  0.52065  0.93274  1.0000
  S   S634      1.0  0.47803  0.66959  0.90485  1.0000
  C   C2150     1.0  0.41392  0.70097  0.91356  1.0000
  H   H3673     1.0  0.47379  0.64588  0.89226  1.0000
  C   C2151     1.0  0.24687  0.60900  0.52502  1.0000
  C   C2152     1.0  0.33961  0.50011  0.88271  1.0000
  C   C2153     1.0  0.35217  0.49642  0.88885  1.0000
  H   H3674     1.0  0.36865  0.55558  0.93211  1.0000
  H   H3675     1.0  0.45759  0.57104  0.88633  1.0000
  C   C2154     1.0  0.48073  0.72496  0.81990  1.0000
  H   H3676     1.0  0.33364  0.51152  0.88032  1.0000
  C   C2155     1.0  0.38792  0.68002  0.92171  1.0000
  C   C2156     1.0  0.36433  0.56997  0.95557  1.0000
  S   S635      1.0  0.49435  0.68954  0.87365  1.0000
  H   H3677     1.0  0.32498  0.69811  0.50967  1.0000
  C   C2157     1.0  0.37010  0.54873  0.94311  1.0000
  H   H3678     1.0  0.42216  0.65025  0.94209  1.0000
  C   C2158     1.0  0.30955  0.49473  0.91619  1.0000
  C   C2159     1.0  0.27016  0.70320  0.56590  1.0000
  C   C2160     1.0  0.26345  0.71830  0.56405  1.0000
  C   C2161     1.0  0.26315  0.56643  0.94510  1.0000
  C   C2162     1.0  0.28362  0.72274  0.57189  1.0000
  C   C2163     1.0  0.29032  0.70766  0.57360  1.0000
  C   C2164     1.0  0.28374  0.69798  0.57040  1.0000
  S   S636      1.0  0.46596  0.67042  0.86777  1.0000
  H   H3679     1.0  0.42540  0.71234  0.94770  1.0000
  H   H3680     1.0  0.30063  0.70343  0.57746  1.0000
  H   H3681     1.0  0.28906  0.68634  0.57171  1.0000
  H   H3682     1.0  0.37784  0.67836  0.93056  1.0000
  H   H3683     1.0  0.38676  0.69215  0.91764  1.0000
  H   H3684     1.0  0.40374  0.58878  0.89672  1.0000
  H   H3685     1.0  0.32491  0.49196  0.87506  1.0000
  C   C2165     1.0  0.33602  0.51981  0.96911  1.0000
  N   N152      1.0  0.41677  0.67277  0.91742  1.0000
  H   H3686     1.0  0.42814  0.68724  0.89896  1.0000
  H   H3687     1.0  0.42006  0.54752  0.88709  1.0000
  H   H3688     1.0  0.46652  0.64780  0.93307  1.0000
  H   H3689     1.0  0.31051  0.49869  0.95831  1.0000
  C   C2166     1.0  0.42035  0.60000  0.88101  1.0000
  C   C2167     1.0  0.26651  0.49988  0.91727  1.0000
  H   H3690     1.0  0.27279  0.49618  0.90737  1.0000
  H   H3691     1.0  0.42559  0.58516  0.92599  1.0000
  C   C2168     1.0  0.28158  0.55840  0.91627  1.0000
  H   H3692     1.0  0.33102  0.69505  0.95060  1.0000
  H   H3693     1.0  0.32193  0.72488  0.50349  1.0000
  H   H3694     1.0  0.40082  0.66141  0.93416  1.0000
  C   C2169     1.0  0.38666  0.72542  0.96974  1.0000
  C   C2170     1.0  0.43435  0.65870  0.89771  1.0000
  C   C2171     1.0  0.47242  0.64615  0.94196  1.0000
  C   C2172     1.0  0.34346  0.62296  0.97169  1.0000
  C   C2173     1.0  0.45392  0.69823  0.83299  1.0000
  C   C2174     1.0  0.24933  0.64090  0.51675  1.0000
  S   S637      1.0  0.45888  0.70065  0.88871  1.0000
  N   N153      1.0  0.30204  0.73056  0.52001  1.0000
  H   H3695     1.0  0.25662  0.70387  0.61125  1.0000
  C   C2175     1.0  0.46135  0.71124  0.82359  1.0000
  Fe  Fe317     1.0  0.47965  0.70957  0.88183  1.0000
  H   H3696     1.0  0.44192  0.55442  0.88792  1.0000
  H   H3697     1.0  0.34438  0.55680  0.93262  1.0000
  H   H3698     1.0  0.26166  0.67806  0.50207  1.0000
  H   H3699     1.0  0.46358  0.64817  0.95192  1.0000
  H   H3700     1.0  0.40923  0.68973  0.89919  1.0000
  H   H3701     1.0  0.43463  0.66803  0.88791  1.0000
  H   H3702     1.0  0.30039  0.48415  0.94507  1.0000
  H   H3703     1.0  0.46927  0.70001  0.85127  1.0000
  H   H3704     1.0  0.31189  0.53776  0.90888  1.0000
  C   C2176     1.0  0.31791  0.70447  0.51809  1.0000
  H   H3705     1.0  0.48166  0.61966  0.92281  1.0000
  H   H3706     1.0  0.30742  0.70252  0.96530  1.0000
  H   H3707     1.0  0.45762  0.68675  0.97273  1.0000
  C   C2177     1.0  0.37910  0.70395  0.96803  1.0000
  Fe  Fe318     1.0  0.30362  0.58601  0.97136  1.0000
  H   H3708     1.0  0.43865  0.58377  0.90121  1.0000
  H   H3709     1.0  0.31327  0.52389  0.89946  1.0000
  N   N154      1.0  0.25713  0.57190  0.93124  1.0000
  H   H3710     1.0  0.29245  0.71464  0.53856  1.0000
  H   H3711     1.0  0.25238  0.60732  0.51363  1.0000
  H   H3712     1.0  0.25504  0.58543  0.53317  1.0000
  H   H3713     1.0  0.28621  0.71042  0.51636  1.0000
  C   C2178     1.0  0.36532  0.58201  0.94114  1.0000
  H   H3714     1.0  0.30882  0.69864  0.52445  1.0000
  H   H3715     1.0  0.26032  0.56614  0.91029  1.0000
  H   H3716     1.0  0.48180  0.71128  0.84821  1.0000
  H   H3717     1.0  0.31562  0.49998  0.90533  1.0000
  H   H3718     1.0  0.42844  0.60175  0.88623  1.0000
  H   H3719     1.0  0.44035  0.60837  0.96946  1.0000
  C   C2179     1.0  0.43236  0.65396  0.93526  1.0000
  H   H3720     1.0  0.35438  0.58993  0.94088  1.0000
  H   H3721     1.0  0.25771  0.70317  0.51689  1.0000
  C   C2180     1.0  0.26437  0.56165  0.92074  1.0000
  H   H3722     1.0  0.26927  0.54220  0.94688  1.0000
  C   C2181     1.0  0.41860  0.67237  0.97739  1.0000
  C   C2182     1.0  0.25181  0.71445  0.60425  1.0000
  H   H3723     1.0  0.40599  0.56508  0.91171  1.0000
  H   H3724     1.0  0.43298  0.56677  0.87400  1.0000
  C   C2183     1.0  0.26457  0.68845  0.49482  1.0000
  H   H3725     1.0  0.41054  0.58314  0.87998  1.0000
  H   H3726     1.0  0.48660  0.68979  0.82792  1.0000
  H   H3727     1.0  0.44104  0.67488  0.97332  1.0000
  C   C2184     1.0  0.34404  0.55889  0.95484  1.0000
  C   C2185     1.0  0.26702  0.49040  0.93109  1.0000
  C   C2186     1.0  0.46007  0.63112  0.86616  1.0000
  S   S638      1.0  0.39845  0.48815  0.90029  1.0000
  H   H3728     1.0  0.33433  0.49854  0.91965  1.0000
  H   H3729     1.0  0.39126  0.55446  0.94221  1.0000
  H   H3730     1.0  0.25318  0.72249  0.56014  1.0000
  H   H3731     1.0  0.44409  0.65703  0.90253  1.0000
  H   H3732     1.0  0.44814  0.58541  0.87328  1.0000
  C   C2187     1.0  0.38506  0.71656  0.96120  1.0000
  H   H3733     1.0  0.26039  0.63311  0.51595  1.0000
  H   H3734     1.0  0.45864  0.56836  0.86859  1.0000
  H   H3735     1.0  0.43946  0.67209  0.91831  1.0000
  C   C2188     1.0  0.41964  0.58233  0.91914  1.0000
  H   H3736     1.0  0.28587  0.56844  0.91003  1.0000
  H   H3737     1.0  0.46958  0.70693  0.81420  1.0000
  C   C2189     1.0  0.31194  0.72043  0.51012  1.0000
  H   H3738     1.0  0.42549  0.60020  0.86914  1.0000
  C   C2190     1.0  0.43123  0.57587  0.90651  1.0000
  H   H3739     1.0  0.40300  0.56184  0.88775  1.0000
  C   C2191     1.0  0.45152  0.72506  0.95549  1.0000
  H   H3740     1.0  0.41856  0.65005  0.91668  1.0000
  C   C2192     1.0  0.46585  0.65141  0.87221  1.0000
  H   H3741     1.0  0.43730  0.72104  0.84720  1.0000
  C   C2193     1.0  0.25313  0.59915  0.93266  1.0000
  C   C2194     1.0  0.25791  0.51430  0.91616  1.0000
  C   C2195     1.0  0.25067  0.70084  0.49234  1.0000
  C   C2196     1.0  0.48984  0.62685  0.92013  1.0000
  C   C2197     1.0  0.45806  0.72925  0.83895  1.0000
  N   N155      1.0  0.32721  0.69202  0.97443  1.0000
  C   C2198     1.0  0.28889  0.72432  0.52983  1.0000
  H   H3742     1.0  0.25764  0.52158  0.90539  1.0000
  H   H3743     1.0  0.27432  0.72881  0.51426  1.0000
  S   S639      1.0  0.40172  0.48700  0.93371  1.0000
  H   H3744     1.0  0.37375  0.54339  0.97156  1.0000
  C   C2199     1.0  0.33963  0.71167  0.95406  1.0000
  S   S640      1.0  0.48936  0.59143  0.91052  1.0000
  N   N156      1.0  0.36024  0.55597  0.95550  1.0000
  H   H3745     1.0  0.26109  0.55080  0.92535  1.0000
  C   C2200     1.0  0.31974  0.67160  0.96727  1.0000
  H   H3746     1.0  0.35599  0.57559  0.96404  1.0000
  C   C2201     1.0  0.25861  0.49536  0.94388  1.0000
  C   C2202     1.0  0.33647  0.69595  0.95899  1.0000
  H   H3747     1.0  0.26651  0.54785  0.96363  1.0000
  C   C2203     1.0  0.27034  0.72810  0.56676  1.0000
  H   H3748     1.0  0.25707  0.57361  0.95310  1.0000
  H   H3749     1.0  0.27093  0.68588  0.48396  1.0000
  H   H3750     1.0  0.25177  0.61015  0.92495  1.0000
  H   H3751     1.0  0.45309  0.72940  0.91488  1.0000
  H   H3752     1.0  0.30621  0.71992  0.50176  1.0000
  H   H3753     1.0  0.47531  0.71796  0.94810  1.0000
  H   H3754     1.0  0.45271  0.72006  0.81858  1.0000
  H   H3755     1.0  0.25497  0.71048  0.48468  1.0000
  C   C2204     1.0  0.47696  0.70598  0.84233  1.0000
  H   H3756     1.0  0.37497  0.56755  0.95927  1.0000
  H   H3757     1.0  0.33699  0.56655  0.96204  1.0000
  H   H3758     1.0  0.49080  0.60222  0.96113  1.0000
  N   N157      1.0  0.46901  0.71760  0.83131  1.0000
  H   H3759     1.0  0.37364  0.58830  0.94064  1.0000
  S   S641      1.0  0.48776  0.55935  0.93423  1.0000
  H   H3760     1.0  0.46142  0.68744  0.83130  1.0000
  H   H3761     1.0  0.33852  0.66903  0.97667  1.0000
  H   H3762     1.0  0.40729  0.67958  0.97724  1.0000
  H   H3763     1.0  0.32251  0.73337  0.52365  1.0000
  C   C2205     1.0  0.32694  0.67587  0.97746  1.0000
  H   H3764     1.0  0.27094  0.80635  0.41123  1.0000
  Fe  Fe319     1.0  0.41339  0.76454  0.00050  1.0000
  S   S642      1.0  0.39222  0.77131  0.99221  1.0000
  S   S643      1.0  0.41128  0.76407  0.02448  1.0000
  C   C2206     1.0  0.33702  0.84735  0.44763  1.0000
  H   H3765     1.0  0.36482  0.79664  0.41556  1.0000
  H   H3766     1.0  0.46510  0.83106  0.14684  1.0000
  H   H3767     1.0  0.30257  0.82100  0.40355  1.0000
  C   C2207     1.0  0.47043  0.78771  0.13540  1.0000
  H   H3768     1.0  0.36676  0.75494  0.05498  1.0000
  H   H3769     1.0  0.42122  0.75410  0.42009  1.0000
  C   C2208     1.0  0.32389  0.88234  0.45736  1.0000
  S   S644      1.0  0.41866  0.74160  0.99668  1.0000
  Fe  Fe320     1.0  0.38564  0.86783  0.29113  1.0000
  S   S645      1.0  0.39271  0.87975  0.30387  1.0000
  S   S646      1.0  0.36269  0.86321  0.29681  1.0000
  Fe  Fe321     1.0  0.41617  0.86144  0.27107  1.0000
  S   S647      1.0  0.43103  0.85077  0.25244  1.0000
  H   H3770     1.0  0.48475  0.82446  0.14286  1.0000
  Fe  Fe322     1.0  0.40542  0.89008  0.28181  1.0000
  C   C2209     1.0  0.34892  0.89873  0.43669  1.0000
  S   S648      1.0  0.40505  0.84838  0.29241  1.0000
  S   S649      1.0  0.39618  0.88015  0.26887  1.0000
  S   S650      1.0  0.38721  0.77585  0.47427  1.0000
  Fe  Fe323     1.0  0.32609  0.86104  0.37567  1.0000
  S   S651      1.0  0.34124  0.86493  0.38742  1.0000
  S   S652      1.0  0.33312  0.84233  0.36413  1.0000
  Fe  Fe324     1.0  0.30142  0.88718  0.38301  1.0000
  H   H3771     1.0  0.39076  0.96545  0.36321  1.0000
  S   S653      1.0  0.27917  0.90164  0.38004  1.0000
  Fe  Fe325     1.0  0.33394  0.88869  0.37650  1.0000
  S   S654      1.0  0.34901  0.90437  0.36483  1.0000
  Fe  Fe326     1.0  0.32042  0.86955  0.40481  1.0000
  S   S655      1.0  0.32025  0.88451  0.36341  1.0000
  S   S656      1.0  0.30583  0.86321  0.39415  1.0000
  Fe  Fe327     1.0  0.41969  0.76215  0.10225  1.0000
  S   S657      1.0  0.44189  0.75825  0.08650  1.0000
  S   S658      1.0  0.40182  0.75017  0.10398  1.0000
  Fe  Fe328     1.0  0.42652  0.78745  0.11119  1.0000
  S   S659      1.0  0.44902  0.78568  0.09577  1.0000
  S   S660      1.0  0.41745  0.80299  0.12703  1.0000
  Fe  Fe329     1.0  0.43754  0.78299  0.07961  1.0000
  S   S661      1.0  0.44137  0.79401  0.05542  1.0000
  Fe  Fe330     1.0  0.45107  0.76120  0.10420  1.0000
  H   H3772     1.0  0.43846  0.88809  0.24645  1.0000
  S   S662      1.0  0.41470  0.78687  0.09429  1.0000
  S   S663      1.0  0.42920  0.76300  0.12070  1.0000
  Fe  Fe331     1.0  0.46221  0.85774  0.16547  1.0000
  S   S664      1.0  0.44150  0.85157  0.16477  1.0000
  S   S665      1.0  0.48128  0.84180  0.17469  1.0000
  Fe  Fe332     1.0  0.45161  0.89054  0.15170  1.0000
  S   S666      1.0  0.43004  0.88697  0.14963  1.0000
  S   S667      1.0  0.45968  0.91198  0.14558  1.0000
  Fe  Fe333     1.0  0.42970  0.87256  0.17251  1.0000
  S   S668      1.0  0.41008  0.87388  0.19182  1.0000
  Fe  Fe334     1.0  0.44395  0.86614  0.14204  1.0000
  S   S669      1.0  0.44432  0.85794  0.12201  1.0000
  S   S670      1.0  0.45026  0.87753  0.17493  1.0000
  S   S671      1.0  0.46564  0.87097  0.14221  1.0000
  C   C2210     1.0  0.38552  0.74660  0.42556  1.0000
  H   H3773     1.0  0.37115  0.86203  0.42125  1.0000
  H   H3774     1.0  0.47249  0.80808  0.22765  1.0000
  H   H3775     1.0  0.47994  0.85727  0.32715  1.0000
  H   H3776     1.0  0.46965  0.89726  0.20270  1.0000
  S   S672      1.0  0.47099  0.79216  0.33953  1.0000
  H   H3777     1.0  0.44628  0.76088  0.42255  1.0000
  S   S673      1.0  0.48940  0.82517  0.32140  1.0000
  H   H3778     1.0  0.27503  0.96139  0.37606  1.0000
  C   C2211     1.0  0.25682  0.91109  0.44886  1.0000
  S   S674      1.0  0.42710  0.96587  0.17677  1.0000
  H   H3779     1.0  0.43264  0.88580  0.21099  1.0000
  S   S675      1.0  0.38688  0.80256  0.44467  1.0000
  C   C2212     1.0  0.35089  0.84287  0.45158  1.0000
  C   C2213     1.0  0.43991  0.84511  0.32339  1.0000
  S   S676      1.0  0.48299  0.76781  0.36753  1.0000
  Fe  Fe335     1.0  0.44447  0.94246  0.31704  1.0000
  S   S677      1.0  0.43289  0.96208  0.30229  1.0000
  S   S678      1.0  0.43712  0.92091  0.32405  1.0000
  Fe  Fe336     1.0  0.46829  0.95775  0.31663  1.0000
  Fe  Fe337     1.0  0.43671  0.97512  0.31616  1.0000
  H   H3780     1.0  0.45203  0.79610  0.23025  1.0000
  Fe  Fe338     1.0  0.45609  0.96345  0.28937  1.0000
  S   S679      1.0  0.44626  0.95543  0.33233  1.0000
  S   S680      1.0  0.46736  0.94288  0.30302  1.0000
  Fe  Fe339     1.0  0.36946  0.93958  0.40737  1.0000
  S   S681      1.0  0.34925  0.94862  0.39745  1.0000
  S   S682      1.0  0.37971  0.91540  0.40895  1.0000
  C   C2214     1.0  0.47145  0.75139  0.04293  1.0000
  Fe  Fe340     1.0  0.34009  0.96073  0.41567  1.0000
  H   H3781     1.0  0.47226  0.75927  0.04900  1.0000
  Fe  Fe341     1.0  0.36036  0.96748  0.38525  1.0000
  C   C2215     1.0  0.44574  0.81285  0.16217  1.0000
  S   S683      1.0  0.35938  0.95018  0.42685  1.0000
  S   S684      1.0  0.38131  0.95755  0.39377  1.0000
  S   S685      1.0  0.42768  0.77331  0.97862  1.0000
  H   H3782     1.0  0.27242  0.90324  0.41803  1.0000
  H   H3783     1.0  0.42245  0.95833  0.43191  1.0000
  S   S686      1.0  0.31455  0.89370  0.39503  1.0000
  H   H3784     1.0  0.25329  0.80455  0.46497  1.0000
  C   C2216     1.0  0.30185  0.96830  0.42047  1.0000
  H   H3785     1.0  0.31468  0.97944  0.40043  1.0000
  H   H3786     1.0  0.31543  0.87612  0.45805  1.0000
  H   H3787     1.0  0.25885  0.90999  0.45993  1.0000
  H   H3788     1.0  0.25242  0.95235  0.38833  1.0000
  C   C2217     1.0  0.28765  0.96575  0.42792  1.0000
  H   H3789     1.0  0.45340  0.81538  0.28750  1.0000
  S   S687      1.0  0.45880  0.97847  0.30174  1.0000
  Fe  Fe342     1.0  0.30621  0.73594  0.46530  1.0000
  H   H3790     1.0  0.28612  0.95867  0.43888  1.0000
  H   H3791     1.0  0.40948  0.82744  0.25566  1.0000
  Fe  Fe343     1.0  0.41312  0.86133  0.30337  1.0000
  H   H3792     1.0  0.25532  0.85899  0.39664  1.0000
  H   H3793     1.0  0.45780  0.79864  0.44641  1.0000
  H   H3794     1.0  0.43019  0.79979  0.17853  1.0000
  C   C2218     1.0  0.43218  0.78832  0.25562  1.0000
  H   H3795     1.0  0.34653  0.86998  0.41420  1.0000
  H   H3796     1.0  0.33325  0.90265  0.46532  1.0000
  C   C2219     1.0  0.43715  0.98159  0.26069  1.0000
  H   H3797     1.0  0.38074  0.76843  0.44477  1.0000
  H   H3798     1.0  0.37906  0.95659  0.47009  1.0000
  Fe  Fe344     1.0  0.49252  0.73487  0.23742  1.0000
  H   H3799     1.0  0.31066  0.90231  0.44674  1.0000
  S   S688      1.0  0.38076  0.84198  0.44685  1.0000
  H   H3800     1.0  0.46574  0.87378  0.21841  1.0000
  S   S689      1.0  0.31692  0.95972  0.42921  1.0000
  C   C2220     1.0  0.45070  0.92628  0.15519  1.0000
  C   C2221     1.0  0.45895  0.93596  0.15589  1.0000
  C   C2222     1.0  0.45199  0.94789  0.16288  1.0000
  C   C2223     1.0  0.43662  0.95046  0.16886  1.0000
  C   C2224     1.0  0.42837  0.94075  0.16824  1.0000
  C   C2225     1.0  0.43539  0.92862  0.16155  1.0000
  H   H3801     1.0  0.30570  0.88596  0.33585  1.0000
  H   H3802     1.0  0.45848  0.95522  0.16341  1.0000
  H   H3803     1.0  0.41646  0.94266  0.17284  1.0000
  H   H3804     1.0  0.42893  0.92127  0.16099  1.0000
  C   C2226     1.0  0.42533  0.81797  0.12567  1.0000
  C   C2227     1.0  0.43807  0.82077  0.11491  1.0000
  C   C2228     1.0  0.44378  0.83308  0.11387  1.0000
  C   C2229     1.0  0.43713  0.84234  0.12394  1.0000
  C   C2230     1.0  0.42457  0.83936  0.13490  1.0000
  C   C2231     1.0  0.41861  0.82732  0.13564  1.0000
  H   H3805     1.0  0.44360  0.81339  0.10749  1.0000
  H   H3806     1.0  0.45353  0.83531  0.10539  1.0000
  H   H3807     1.0  0.41926  0.84652  0.14261  1.0000
  H   H3808     1.0  0.40872  0.82525  0.14399  1.0000
  H   H3809     1.0  0.45050  0.81928  0.30517  1.0000
  C   C2232     1.0  0.41110  0.81908  0.24911  1.0000
  H   H3810     1.0  0.45760  0.89524  0.33411  1.0000
  H   H3811     1.0  0.28362  0.81378  0.44855  1.0000
  H   H3812     1.0  0.42164  0.81800  0.17019  1.0000
  C   C2233     1.0  0.32850  0.91652  0.41544  1.0000
  C   C2234     1.0  0.38315  0.98035  0.43634  1.0000
  H   H3813     1.0  0.42826  0.81246  0.23058  1.0000
  N   N158      1.0  0.45914  0.80118  0.15723  1.0000
  C   C2235     1.0  0.35922  0.90622  0.37639  1.0000
  C   C2236     1.0  0.36408  0.91931  0.37335  1.0000
  C   C2237     1.0  0.37151  0.92156  0.38280  1.0000
  C   C2238     1.0  0.37384  0.91082  0.39555  1.0000
  C   C2239     1.0  0.36968  0.89732  0.39828  1.0000
  C   C2240     1.0  0.36220  0.89507  0.38874  1.0000
  H   H3814     1.0  0.36148  0.92800  0.36404  1.0000
  H   H3815     1.0  0.37496  0.93188  0.38053  1.0000
  H   H3816     1.0  0.37160  0.88895  0.40808  1.0000
  H   H3817     1.0  0.35853  0.88488  0.39109  1.0000
  C   C2241     1.0  0.34597  0.77256  0.45905  1.0000
  C   C2242     1.0  0.26574  0.89198  0.38094  1.0000
  H   H3818     1.0  0.40035  0.98161  0.24913  1.0000
  C   C2243     1.0  0.40353  0.97843  0.34474  1.0000
  C   C2244     1.0  0.33944  0.92334  0.45450  1.0000
  H   H3819     1.0  0.47131  0.87655  0.31017  1.0000
  C   C2245     1.0  0.26594  0.87763  0.38960  1.0000
  H   H3820     1.0  0.46500  0.86538  0.36541  1.0000
  H   H3821     1.0  0.46770  0.92147  0.19298  1.0000
  C   C2246     1.0  0.25128  0.81726  0.44312  1.0000
  H   H3822     1.0  0.27428  0.87236  0.39609  1.0000
  C   C2247     1.0  0.27246  0.79345  0.43312  1.0000
  H   H3823     1.0  0.28244  0.83152  0.42096  1.0000
  H   H3824     1.0  0.48022  0.89170  0.34857  1.0000
  C   C2248     1.0  0.35088  0.76093  0.47024  1.0000
  N   N159      1.0  0.24521  0.89811  0.43580  1.0000
  C   C2249     1.0  0.26700  0.80594  0.42295  1.0000
  H   H3825     1.0  0.26497  0.93912  0.37838  1.0000
  H   H3826     1.0  0.34958  0.89186  0.42891  1.0000
  H   H3827     1.0  0.48177  0.78073  0.17364  1.0000
  C   C2250     1.0  0.35606  0.85681  0.31582  1.0000
  C   C2251     1.0  0.35071  0.84376  0.32072  1.0000
  C   C2252     1.0  0.34433  0.83902  0.33570  1.0000
  C   C2253     1.0  0.34270  0.84762  0.34576  1.0000
  C   C2254     1.0  0.34827  0.86055  0.34096  1.0000
  C   C2255     1.0  0.35512  0.86505  0.32602  1.0000
  H   H3828     1.0  0.35145  0.83736  0.31287  1.0000
  H   H3829     1.0  0.34020  0.82894  0.33937  1.0000
  H   H3830     1.0  0.34734  0.86709  0.34871  1.0000
  H   H3831     1.0  0.35919  0.87516  0.32228  1.0000
  C   C2256     1.0  0.41791  0.91491  0.28844  1.0000
  C   C2257     1.0  0.42534  0.92639  0.28537  1.0000
  C   C2258     1.0  0.43200  0.92779  0.29600  1.0000
  C   C2259     1.0  0.43070  0.91812  0.30991  1.0000
  C   C2260     1.0  0.42362  0.90645  0.31278  1.0000
  C   C2261     1.0  0.41742  0.90476  0.30201  1.0000
  C   C2262     1.0  0.32854  0.91965  0.43023  1.0000
  H   H3832     1.0  0.43822  0.93628  0.29333  1.0000
  H   H3833     1.0  0.42259  0.89886  0.32342  1.0000
  H   H3834     1.0  0.41200  0.89572  0.30442  1.0000
  C   C2263     1.0  0.42471  0.85644  0.23585  1.0000
  C   C2264     1.0  0.41000  0.86409  0.23540  1.0000
  C   C2265     1.0  0.40543  0.86905  0.22191  1.0000
  C   C2266     1.0  0.41551  0.86631  0.20882  1.0000
  C   C2267     1.0  0.43005  0.85815  0.20935  1.0000
  C   C2268     1.0  0.43465  0.85332  0.22282  1.0000
  H   H3835     1.0  0.40209  0.86610  0.24543  1.0000
  H   H3836     1.0  0.39410  0.87518  0.22160  1.0000
  H   H3837     1.0  0.43783  0.85571  0.19937  1.0000
  H   H3838     1.0  0.44604  0.84740  0.22306  1.0000
  N   N160      1.0  0.38842  0.76169  0.42367  1.0000
  C   C2269     1.0  0.45838  0.80997  0.19722  1.0000
  C   C2270     1.0  0.46182  0.82380  0.19024  1.0000
  C   C2271     1.0  0.47671  0.82510  0.18547  1.0000
  H   H3839     1.0  0.44685  0.80893  0.20053  1.0000
  H   H3840     1.0  0.45295  0.83341  0.18848  1.0000
  C   C2272     1.0  0.41876  0.77404  0.03223  1.0000
  C   C2273     1.0  0.42885  0.78291  0.02380  1.0000
  C   C2274     1.0  0.43549  0.78949  0.03088  1.0000
  C   C2275     1.0  0.43206  0.78713  0.04636  1.0000
  C   C2276     1.0  0.42172  0.77852  0.05468  1.0000
  C   C2277     1.0  0.41510  0.77204  0.04764  1.0000
  H   H3841     1.0  0.43174  0.78448  0.01189  1.0000
  H   H3842     1.0  0.44351  0.79612  0.02440  1.0000
  H   H3843     1.0  0.41899  0.77661  0.06659  1.0000
  H   H3844     1.0  0.40730  0.76519  0.05424  1.0000
  H   H3845     1.0  0.29332  0.97340  0.37106  1.0000
  C   C2278     1.0  0.32252  0.89610  0.44465  1.0000
  H   H3846     1.0  0.41564  0.74154  0.14700  1.0000
  C   C2279     1.0  0.25318  0.95522  0.46931  1.0000
  H   H3847     1.0  0.26003  0.87642  0.43752  1.0000
  H   H3848     1.0  0.46920  0.76614  0.42969  1.0000
  H   H3849     1.0  0.36926  0.74720  0.44692  1.0000
  H   H3850     1.0  0.31890  0.92644  0.37538  1.0000
  H   H3851     1.0  0.28995  0.79298  0.46719  1.0000
  H   H3852     1.0  0.34246  0.82053  0.43263  1.0000
  S   S690      1.0  0.28606  0.77874  0.42694  1.0000
  H   H3853     1.0  0.35105  0.88465  0.45938  1.0000
  H   H3854     1.0  0.43661  0.88676  0.34120  1.0000
  C   C2280     1.0  0.37614  0.78931  0.41521  1.0000
  Fe  Fe345     1.0  0.37008  0.79212  0.46264  1.0000
  C   C2281     1.0  0.41710  0.90680  0.20905  1.0000
  H   H3855     1.0  0.45887  0.74119  0.14445  1.0000
  H   H3856     1.0  0.30230  0.78874  0.45060  1.0000
  H   H3857     1.0  0.35134  0.92019  0.44896  1.0000
  H   H3858     1.0  0.33100  0.98163  0.46532  1.0000
  C   C2282     1.0  0.30390  0.96504  0.37185  1.0000
  C   C2283     1.0  0.25622  0.81777  0.42796  1.0000
  C   C2284     1.0  0.29948  0.79622  0.45831  1.0000
  C   C2285     1.0  0.45283  0.79935  0.24007  1.0000
  H   H3859     1.0  0.25335  0.90734  0.40349  1.0000
  H   H3860     1.0  0.45480  0.87149  0.20680  1.0000
  H   H3861     1.0  0.32334  0.75674  0.44954  1.0000
  C   C2286     1.0  0.33054  0.91174  0.45590  1.0000
  H   H3862     1.0  0.26569  0.87586  0.33217  1.0000
  H   H3863     1.0  0.45836  0.92371  0.21165  1.0000
  H   H3864     1.0  0.44746  0.81692  0.17113  1.0000
  H   H3865     1.0  0.44417  0.82274  0.15302  1.0000
  C   C2287     1.0  0.26675  0.97400  0.46694  1.0000
  C   C2288     1.0  0.47742  0.79590  0.42849  1.0000
  H   H3866     1.0  0.38502  0.74492  0.41477  1.0000
  C   C2289     1.0  0.41828  0.98175  0.13935  1.0000
  C   C2290     1.0  0.46613  0.87520  0.35613  1.0000
  N   N161      1.0  0.39051  0.84622  0.37006  1.0000
  C   C2291     1.0  0.38401  0.84786  0.38581  1.0000
  C   C2292     1.0  0.39247  0.86123  0.36059  1.0000
  C   C2293     1.0  0.40552  0.83559  0.36866  1.0000
  C   C2294     1.0  0.38010  0.84027  0.36520  1.0000
  C   C2295     1.0  0.38257  0.83342  0.39759  1.0000
  C   C2296     1.0  0.37803  0.87239  0.35741  1.0000
  C   C2297     1.0  0.41730  0.83918  0.37444  1.0000
  C   C2298     1.0  0.38490  0.83829  0.34909  1.0000
  H   H3867     1.0  0.39054  0.85367  0.38931  1.0000
  H   H3868     1.0  0.37264  0.85509  0.38685  1.0000
  H   H3869     1.0  0.40021  0.86030  0.34976  1.0000
  H   H3870     1.0  0.39790  0.86665  0.36577  1.0000
  H   H3871     1.0  0.40442  0.82405  0.37425  1.0000
  H   H3872     1.0  0.41053  0.83514  0.35687  1.0000
  H   H3873     1.0  0.37904  0.82910  0.37208  1.0000
  H   H3874     1.0  0.36841  0.84691  0.36714  1.0000
  H   H3875     1.0  0.39346  0.82552  0.39798  1.0000
  H   H3876     1.0  0.37818  0.83617  0.40867  1.0000
  H   H3877     1.0  0.37447  0.82798  0.39609  1.0000
  H   H3878     1.0  0.38068  0.88335  0.35165  1.0000
  H   H3879     1.0  0.37314  0.86912  0.34999  1.0000
  H   H3880     1.0  0.36957  0.87394  0.36765  1.0000
  H   H3881     1.0  0.41387  0.83879  0.38647  1.0000
  H   H3882     1.0  0.41993  0.85005  0.36834  1.0000
  H   H3883     1.0  0.42784  0.83069  0.37267  1.0000
  H   H3884     1.0  0.39295  0.82759  0.34818  1.0000
  H   H3885     1.0  0.38991  0.84732  0.34123  1.0000
  H   H3886     1.0  0.37491  0.83861  0.34520  1.0000
  H   H3887     1.0  0.40863  0.75771  0.16199  1.0000
  C   C2299     1.0  0.36164  0.85791  0.42858  1.0000
  H   H3888     1.0  0.36508  0.87903  0.44436  1.0000
  H   H3889     1.0  0.39153  0.74251  0.45366  1.0000
  H   H3890     1.0  0.40641  0.73753  0.04372  1.0000
  C   C2300     1.0  0.33092  0.75789  0.45542  1.0000
  H   H3891     1.0  0.48689  0.79935  0.25031  1.0000
  H   H3892     1.0  0.45096  0.73614  0.16354  1.0000
  H   H3893     1.0  0.45044  0.80123  0.26604  1.0000
  H   H3894     1.0  0.44011  0.77959  0.26172  1.0000
  H   H3895     1.0  0.30606  0.84004  0.42198  1.0000
  H   H3896     1.0  0.33673  0.81366  0.42032  1.0000
  C   C2301     1.0  0.24750  0.89991  0.45002  1.0000
  H   H3897     1.0  0.43176  0.82508  0.23827  1.0000
  H   H3898     1.0  0.46034  0.78977  0.24579  1.0000
  C   C2302     1.0  0.30714  0.80955  0.42549  1.0000
  C   C2303     1.0  0.35778  0.88890  0.44848  1.0000
  H   H3899     1.0  0.45839  0.81591  0.41141  1.0000
  H   H3900     1.0  0.42933  0.74239  0.04429  1.0000
  H   H3901     1.0  0.42244  0.78993  0.23680  1.0000
  H   H3902     1.0  0.46349  0.82174  0.34445  1.0000
  H   H3903     1.0  0.45360  0.76977  0.39528  1.0000
  S   S691      1.0  0.44310  0.79771  0.37598  1.0000
  H   H3904     1.0  0.42215  0.96178  0.44939  1.0000
  C   C2304     1.0  0.33549  0.85690  0.43404  1.0000
  H   H3905     1.0  0.45158  0.88388  0.31663  1.0000
  H   H3906     1.0  0.41554  0.74139  0.41297  1.0000
  C   C2305     1.0  0.31994  0.81685  0.44067  1.0000
  S   S692      1.0  0.44789  0.97965  0.19785  1.0000
  S   S693      1.0  0.42634  0.87241  0.28224  1.0000
  H   H3907     1.0  0.41523  0.91698  0.20029  1.0000
  C   C2306     1.0  0.42997  0.78186  0.24367  1.0000
  C   C2307     1.0  0.36327  0.84799  0.44204  1.0000
  H   H3908     1.0  0.26462  0.88420  0.34732  1.0000
  H   H3909     1.0  0.29030  0.89316  0.34898  1.0000
  H   H3910     1.0  0.33627  0.92729  0.42736  1.0000
  H   H3911     1.0  0.25514  0.88354  0.42036  1.0000
  H   H3912     1.0  0.32750  0.84336  0.45512  1.0000
  H   H3913     1.0  0.46230  0.81688  0.24259  1.0000
  C   C2308     1.0  0.47402  0.82163  0.14360  1.0000
  H   H3914     1.0  0.25422  0.91004  0.36641  1.0000
  H   H3915     1.0  0.31997  0.80831  0.40317  1.0000
  C   C2309     1.0  0.47859  0.95585  0.35033  1.0000
  H   H3916     1.0  0.31297  0.94513  0.38638  1.0000
  N   N162      1.0  0.38336  0.73617  0.04807  1.0000
  H   H3917     1.0  0.46885  0.77619  0.13994  1.0000
  H   H3918     1.0  0.36685  0.75230  0.01739  1.0000
  N   N163      1.0  0.44107  0.97965  0.43060  1.0000
  C   C2310     1.0  0.46357  0.87671  0.20716  1.0000
  C   C2311     1.0  0.33559  0.74630  0.46671  1.0000
  H   H3919     1.0  0.25180  0.82730  0.42011  1.0000
  H   H3920     1.0  0.25278  0.88909  0.45638  1.0000
  C   C2312     1.0  0.45308  0.98048  0.13263  1.0000
  H   H3921     1.0  0.45552  0.82113  0.22578  1.0000
  H   H3922     1.0  0.47682  0.88948  0.32705  1.0000
  H   H3923     1.0  0.38989  0.96634  0.29332  1.0000
  H   H3924     1.0  0.48334  0.79891  0.15193  1.0000
  H   H3925     1.0  0.44029  0.75030  0.15101  1.0000
  C   C2313     1.0  0.46106  0.81223  0.23386  1.0000
  H   H3926     1.0  0.46529  0.97637  0.12887  1.0000
  H   H3927     1.0  0.38506  0.75825  0.04745  1.0000
  N   N164      1.0  0.28958  0.85817  0.34734  1.0000
  C   C2314     1.0  0.29633  0.84275  0.35496  1.0000
  C   C2315     1.0  0.29460  0.85901  0.33093  1.0000
  C   C2316     1.0  0.27282  0.86004  0.35186  1.0000
  C   C2317     1.0  0.29460  0.86919  0.35225  1.0000
  C   C2318     1.0  0.29167  0.83898  0.37200  1.0000
  C   C2319     1.0  0.31164  0.85604  0.32481  1.0000
  C   C2320     1.0  0.26341  0.87442  0.34431  1.0000
  C   C2321     1.0  0.29422  0.88480  0.34203  1.0000
  H   H3928     1.0  0.29365  0.83424  0.35093  1.0000
  H   H3929     1.0  0.30874  0.84075  0.35229  1.0000
  H   H3930     1.0  0.28991  0.86987  0.32440  1.0000
  H   H3931     1.0  0.29027  0.85094  0.32785  1.0000
  H   H3932     1.0  0.26943  0.85069  0.34994  1.0000
  H   H3933     1.0  0.26881  0.85966  0.36388  1.0000
  H   H3934     1.0  0.28793  0.87067  0.36340  1.0000
  H   H3935     1.0  0.30638  0.86478  0.35353  1.0000
  H   H3936     1.0  0.27987  0.83788  0.37596  1.0000
  H   H3937     1.0  0.29864  0.82808  0.37623  1.0000
  H   H3938     1.0  0.29359  0.84713  0.37700  1.0000
  H   H3939     1.0  0.31671  0.84403  0.32741  1.0000
  H   H3940     1.0  0.31406  0.85963  0.31257  1.0000
  H   H3941     1.0  0.31726  0.86214  0.32896  1.0000
  C   C2322     1.0  0.27540  0.97220  0.42124  1.0000
  S   S694      1.0  0.47189  0.74767  0.11181  1.0000
  H   H3942     1.0  0.31854  0.93620  0.35661  1.0000
  C   C2323     1.0  0.45861  0.81899  0.29440  1.0000
  H   H3943     1.0  0.28682  0.88811  0.33419  1.0000
  C   C2324     1.0  0.47339  0.80813  0.29719  1.0000
  S   S695      1.0  0.42506  0.77447  0.44515  1.0000
  C   C2325     1.0  0.46027  0.89356  0.20116  1.0000
  H   H3944     1.0  0.42902  0.74436  0.06853  1.0000
  H   H3945     1.0  0.44012  0.81927  0.25985  1.0000
  C   C2326     1.0  0.42765  0.81471  0.24145  1.0000
  C   C2327     1.0  0.44092  0.77177  0.41728  1.0000
  H   H3946     1.0  0.47500  0.80819  0.42662  1.0000
  Fe  Fe346     1.0  0.48852  0.80396  0.33844  1.0000
  C   C2328     1.0  0.42291  0.79484  0.41902  1.0000
  Fe  Fe347     1.0  0.40390  0.78771  0.45714  1.0000
  H   H3947     1.0  0.47050  0.79060  0.12341  1.0000
  S   S696      1.0  0.48316  0.80309  0.36270  1.0000
  C   C2329     1.0  0.44478  0.83512  0.33554  1.0000
  H   H3948     1.0  0.29269  0.81933  0.45914  1.0000
  C   C2330     1.0  0.43804  0.79081  0.39508  1.0000
  H   H3949     1.0  0.48266  0.83105  0.27599  1.0000
  H   H3950     1.0  0.46585  0.74323  0.02058  1.0000
  H   H3951     1.0  0.47891  0.98169  0.41874  1.0000
  H   H3952     1.0  0.41365  0.95624  0.13766  1.0000
  S   S697      1.0  0.47069  0.75101  0.24205  1.0000
  N   N165      1.0  0.38746  0.94300  0.32868  1.0000
  C   C2331     1.0  0.40038  0.94638  0.33230  1.0000
  C   C2332     1.0  0.38920  0.94767  0.31215  1.0000
  C   C2333     1.0  0.38846  0.92650  0.33372  1.0000
  C   C2334     1.0  0.37325  0.95152  0.33679  1.0000
  C   C2335     1.0  0.40308  0.93926  0.34806  1.0000
  C   C2336     1.0  0.38874  0.96427  0.30544  1.0000
  C   C2337     1.0  0.38051  0.91948  0.32646  1.0000
  C   C2338     1.0  0.35839  0.95087  0.33395  1.0000
  H   H3953     1.0  0.41101  0.94288  0.32452  1.0000
  H   H3954     1.0  0.39902  0.95850  0.33081  1.0000
  H   H3955     1.0  0.38055  0.94493  0.30842  1.0000
  H   H3956     1.0  0.39998  0.94132  0.30660  1.0000
  H   H3957     1.0  0.40035  0.92043  0.33160  1.0000
  H   H3958     1.0  0.38426  0.92339  0.34587  1.0000
  H   H3959     1.0  0.37223  0.94773  0.34892  1.0000
  H   H3960     1.0  0.37349  0.96338  0.33485  1.0000
  H   H3961     1.0  0.40720  0.92709  0.34973  1.0000
  H   H3962     1.0  0.41196  0.94364  0.34966  1.0000
  H   H3963     1.0  0.39301  0.94185  0.35676  1.0000
  H   H3964     1.0  0.26211  0.93567  0.39827  1.0000
  H   H3965     1.0  0.37796  0.97131  0.30987  1.0000
  H   H3966     1.0  0.39812  0.96782  0.30709  1.0000
  H   H3967     1.0  0.36853  0.92467  0.32730  1.0000
  H   H3968     1.0  0.38118  0.90767  0.33221  1.0000
  H   H3969     1.0  0.38618  0.91953  0.31472  1.0000
  H   H3970     1.0  0.35413  0.94118  0.34146  1.0000
  H   H3971     1.0  0.35900  0.95080  0.32239  1.0000
  H   H3972     1.0  0.34996  0.96108  0.33604  1.0000
  C   C2339     1.0  0.42395  0.97123  0.11768  1.0000
  Fe  Fe348     1.0  0.48195  0.75987  0.25411  1.0000
  C   C2340     1.0  0.48970  0.95997  0.33805  1.0000
  S   S698      1.0  0.40253  0.80416  0.47031  1.0000
  N   N166      1.0  0.43765  0.80255  0.25018  1.0000
  C   C2341     1.0  0.48050  0.86075  0.33698  1.0000
  C   C2342     1.0  0.47289  0.80699  0.15513  1.0000
  C   C2343     1.0  0.42774  0.80529  0.27756  1.0000
  C   C2344     1.0  0.44504  0.77676  0.40188  1.0000
  C   C2345     1.0  0.42684  0.79973  0.40365  1.0000
  C   C2346     1.0  0.38191  0.96601  0.46159  1.0000
  C   C2347     1.0  0.26329  0.94419  0.38786  1.0000
  H   H3973     1.0  0.40387  0.77513  0.40909  1.0000
  H   H3974     1.0  0.31833  0.82325  0.44918  1.0000
  C   C2348     1.0  0.45040  0.84988  0.31075  1.0000
  H   H3975     1.0  0.48164  0.78832  0.13588  1.0000
  H   H3976     1.0  0.43194  0.96924  0.10721  1.0000
  C   C2349     1.0  0.33281  0.82137  0.42792  1.0000
  H   H3977     1.0  0.42058  0.97149  0.14794  1.0000
  N   N167      1.0  0.41193  0.95646  0.23379  1.0000
  C   C2350     1.0  0.42457  0.96054  0.23720  1.0000
  C   C2351     1.0  0.39951  0.97015  0.23277  1.0000
  C   C2352     1.0  0.41757  0.95242  0.21891  1.0000
  C   C2353     1.0  0.40747  0.94356  0.24575  1.0000
  C   C2354     1.0  0.43912  0.94852  0.23779  1.0000
  H   H3978     1.0  0.36105  0.74905  0.43165  1.0000
  C   C2355     1.0  0.40644  0.94803  0.21295  1.0000
  C   C2356     1.0  0.39166  0.94094  0.24779  1.0000
  H   H3979     1.0  0.42770  0.97044  0.22893  1.0000
  H   H3980     1.0  0.42109  0.96362  0.24812  1.0000
  H   H3981     1.0  0.39010  0.96863  0.22924  1.0000
  H   H3982     1.0  0.40353  0.97938  0.22397  1.0000
  H   H3983     1.0  0.42172  0.96175  0.21039  1.0000
  H   H3984     1.0  0.42725  0.94285  0.21911  1.0000
  H   H3985     1.0  0.41563  0.93306  0.24401  1.0000
  H   H3986     1.0  0.40808  0.94477  0.25669  1.0000
  H   H3987     1.0  0.44661  0.95236  0.24219  1.0000
  H   H3988     1.0  0.43715  0.93788  0.24527  1.0000
  H   H3989     1.0  0.44534  0.94684  0.22662  1.0000
  C   C2357     1.0  0.48969  0.77434  0.41676  1.0000
  N   N168      1.0  0.42918  0.98040  0.12479  1.0000
  H   H3990     1.0  0.48635  0.79225  0.43486  1.0000
  Fe  Fe349     1.0  0.38392  0.81810  0.45902  1.0000
  C   C2358     1.0  0.42192  0.95574  0.12706  1.0000
  C   C2359     1.0  0.49229  0.79823  0.25945  1.0000
  H   H3991     1.0  0.39250  0.92897  0.24886  1.0000
  H   H3992     1.0  0.38580  0.94699  0.23879  1.0000
  H   H3993     1.0  0.38443  0.94348  0.25838  1.0000
  C   C2360     1.0  0.29865  0.83467  0.43177  1.0000
  H   H3994     1.0  0.41762  0.95037  0.12081  1.0000
  H   H3995     1.0  0.43261  0.94463  0.44438  1.0000
  H   H3996     1.0  0.29761  0.84073  0.44040  1.0000
  N   N169      1.0  0.44536  0.90234  0.20787  1.0000
  H   H3997     1.0  0.46936  0.97951  0.23421  1.0000
  H   H3998     1.0  0.47388  0.84769  0.30035  1.0000
  H   H3999     1.0  0.25059  0.92267  0.44564  1.0000
  H   H4000     1.0  0.45199  0.96872  0.11703  1.0000
  H   H4001     1.0  0.31512  0.79874  0.42788  1.0000
  S   S699      1.0  0.46520  0.96694  0.26502  1.0000
  H   H4002     1.0  0.47444  0.81614  0.26603  1.0000
  H   H4003     1.0  0.42542  0.88973  0.23580  1.0000
  C   C2361     1.0  0.47052  0.83379  0.32224  1.0000
  H   H4004     1.0  0.42614  0.93407  0.27476  1.0000
  H   H4005     1.0  0.29636  0.80672  0.42642  1.0000
  H   H4006     1.0  0.30887  0.96136  0.36132  1.0000
  H   H4007     1.0  0.37510  0.96017  0.44480  1.0000
  C   C2362     1.0  0.34776  0.86229  0.42454  1.0000
  N   N170      1.0  0.41565  0.83709  0.07794  1.0000
  C   C2363     1.0  0.40056  0.83307  0.08218  1.0000
  C   C2364     1.0  0.41744  0.84596  0.06223  1.0000
  C   C2365     1.0  0.41553  0.84642  0.08821  1.0000
  C   C2366     1.0  0.42738  0.82290  0.07965  1.0000
  C   C2367     1.0  0.39513  0.82616  0.09866  1.0000
  C   C2368     1.0  0.41814  0.83755  0.05053  1.0000
  C   C2369     1.0  0.42745  0.85582  0.08339  1.0000
  C   C2370     1.0  0.44392  0.82389  0.07338  1.0000
  H   H4008     1.0  0.39169  0.84299  0.07923  1.0000
  H   H4009     1.0  0.40045  0.82498  0.07597  1.0000
  H   H4010     1.0  0.42763  0.85053  0.05856  1.0000
  H   H4011     1.0  0.40811  0.85592  0.06132  1.0000
  H   H4012     1.0  0.40457  0.85443  0.09007  1.0000
  H   H4013     1.0  0.41665  0.83939  0.09932  1.0000
  H   H4014     1.0  0.42648  0.81733  0.09151  1.0000
  H   H4015     1.0  0.42533  0.81463  0.07483  1.0000
  H   H4016     1.0  0.40302  0.81592  0.10257  1.0000
  H   H4017     1.0  0.39301  0.83400  0.10587  1.0000
  H   H4018     1.0  0.38436  0.82303  0.10017  1.0000
  H   H4019     1.0  0.42747  0.82764  0.05045  1.0000
  H   H4020     1.0  0.40749  0.83429  0.05197  1.0000
  H   H4021     1.0  0.42017  0.84493  0.03939  1.0000
  H   H4022     1.0  0.43896  0.84933  0.08063  1.0000
  H   H4023     1.0  0.42695  0.86066  0.09274  1.0000
  H   H4024     1.0  0.42519  0.86526  0.07404  1.0000
  H   H4025     1.0  0.44901  0.82482  0.08198  1.0000
  H   H4026     1.0  0.44585  0.83290  0.06360  1.0000
  H   H4027     1.0  0.45028  0.81363  0.06948  1.0000
  C   C2371     1.0  0.49154  0.82158  0.27968  1.0000
  N   N171      1.0  0.33291  0.90626  0.44207  1.0000
  H   H4028     1.0  0.47399  0.82076  0.13242  1.0000
  C   C2372     1.0  0.48943  0.96408  0.36576  1.0000
  H   H4029     1.0  0.33488  0.87465  0.45518  1.0000
  C   C2373     1.0  0.46000  0.82952  0.33497  1.0000
  H   H4030     1.0  0.43313  0.97808  0.27242  1.0000
  H   H4031     1.0  0.48000  0.77259  0.15961  1.0000
  H   H4032     1.0  0.46658  0.77112  0.32398  1.0000
  C   C2374     1.0  0.46982  0.79751  0.19984  1.0000
  H   H4033     1.0  0.41477  0.80210  0.42555  1.0000
  H   H4034     1.0  0.35548  0.90720  0.43017  1.0000
  C   C2375     1.0  0.26737  0.79294  0.44824  1.0000
  H   H4035     1.0  0.30885  0.79425  0.46378  1.0000
  H   H4036     1.0  0.44741  0.79443  0.14491  1.0000
  N   N172      1.0  0.48305  0.79079  0.41413  1.0000
  H   H4037     1.0  0.49042  0.86584  0.33330  1.0000
  C   C2376     1.0  0.37959  0.96807  0.44731  1.0000
  C   C2377     1.0  0.37472  0.77302  0.41988  1.0000
  H   H4038     1.0  0.40327  0.93762  0.21985  1.0000
  N   N173      1.0  0.29138  0.94284  0.38496  1.0000
  C   C2378     1.0  0.27575  0.95230  0.38606  1.0000
  C   C2379     1.0  0.30171  0.95201  0.38521  1.0000
  C   C2380     1.0  0.29205  0.92965  0.39775  1.0000
  C   C2381     1.0  0.29596  0.93736  0.37084  1.0000
  S   S700      1.0  0.35975  0.97759  0.36140  1.0000
  Fe  Fe350     1.0  0.48876  0.77158  0.34274  1.0000
  C   C2382     1.0  0.28633  0.93307  0.41331  1.0000
  C   C2383     1.0  0.31257  0.92941  0.36661  1.0000
  H   H4039     1.0  0.27260  0.95804  0.39536  1.0000
  H   H4040     1.0  0.27988  0.88789  0.43167  1.0000
  H   H4041     1.0  0.27964  0.88571  0.41382  1.0000
  H   H4042     1.0  0.27414  0.83718  0.43830  1.0000
  H   H4043     1.0  0.28591  0.92170  0.39705  1.0000
  H   H4044     1.0  0.30374  0.92335  0.39734  1.0000
  H   H4045     1.0  0.28915  0.92950  0.37136  1.0000
  H   H4046     1.0  0.44734  0.75389  0.02452  1.0000
  H   H4047     1.0  0.45347  0.86197  0.33361  1.0000
  Fe  Fe351     1.0  0.39845  0.74888  0.98700  1.0000
  H   H4048     1.0  0.38272  0.79191  0.40373  1.0000
  C   C2384     1.0  0.44829  0.73946  0.15247  1.0000
  H   H4049     1.0  0.37810  0.75843  0.07320  1.0000
  H   H4050     1.0  0.33433  0.93439  0.44851  1.0000
  H   H4051     1.0  0.29328  0.93940  0.41542  1.0000
  H   H4052     1.0  0.28714  0.92247  0.42168  1.0000
  H   H4053     1.0  0.27447  0.93902  0.41532  1.0000
  H   H4054     1.0  0.31322  0.91892  0.36358  1.0000
  H   H4055     1.0  0.45341  0.85501  0.35251  1.0000
  H   H4056     1.0  0.31963  0.96997  0.46478  1.0000
  H   H4057     1.0  0.45608  0.88392  0.35910  1.0000
  C   C2385     1.0  0.46363  0.81119  0.40147  1.0000
  C   C2386     1.0  0.37877  0.74970  0.05460  1.0000
  C   C2387     1.0  0.45316  0.86535  0.34377  1.0000
  H   H4058     1.0  0.49038  0.87286  0.35405  1.0000
  H   H4059     1.0  0.32158  0.88510  0.46827  1.0000
  H   H4060     1.0  0.43768  0.96422  0.46271  1.0000
  C   C2388     1.0  0.43770  0.87542  0.34813  1.0000
  H   H4061     1.0  0.45456  0.81242  0.39582  1.0000
  H   H4062     1.0  0.47556  0.79054  0.39509  1.0000
  C   C2389     1.0  0.25768  0.96844  0.46160  1.0000
  H   H4063     1.0  0.33184  0.98178  0.43937  1.0000
  H   H4064     1.0  0.46001  0.83046  0.28933  1.0000
  C   C2390     1.0  0.44462  0.97241  0.12711  1.0000
  H   H4065     1.0  0.49451  0.83910  0.34360  1.0000
  C   C2391     1.0  0.27714  0.98159  0.40723  1.0000
  H   H4066     1.0  0.40242  0.75368  0.45582  1.0000
  H   H4067     1.0  0.39839  0.76420  0.40028  1.0000
  H   H4068     1.0  0.35188  0.83574  0.46219  1.0000
  H   H4069     1.0  0.43517  0.87601  0.35991  1.0000
  H   H4070     1.0  0.36557  0.89479  0.44991  1.0000
  H   H4071     1.0  0.45514  0.78994  0.43405  1.0000
  H   H4072     1.0  0.29349  0.94668  0.36138  1.0000
  H   H4073     1.0  0.49329  0.82437  0.28941  1.0000
  H   H4074     1.0  0.42898  0.87066  0.34672  1.0000
  H   H4075     1.0  0.47156  0.81774  0.39358  1.0000
  H   H4076     1.0  0.31183  0.97074  0.37335  1.0000
  H   H4077     1.0  0.45503  0.79002  0.18032  1.0000
  H   H4078     1.0  0.31921  0.91124  0.41654  1.0000
  C   C2392     1.0  0.41632  0.75297  0.41147  1.0000
  C   C2393     1.0  0.48812  0.81273  0.18866  1.0000
  H   H4079     1.0  0.35754  0.74538  0.03583  1.0000
  C   C2394     1.0  0.47550  0.76461  0.28931  1.0000
  H   H4080     1.0  0.43382  0.92541  0.20395  1.0000
  N   N174      1.0  0.30527  0.81845  0.43674  1.0000
  H   H4081     1.0  0.46184  0.78895  0.41150  1.0000
  H   H4082     1.0  0.29750  0.95684  0.39512  1.0000
  C   C2395     1.0  0.46716  0.77016  0.30179  1.0000
  H   H4083     1.0  0.37126  0.77069  0.41080  1.0000
  C   C2396     1.0  0.39025  0.97475  0.35394  1.0000
  H   H4084     1.0  0.41195  0.94586  0.20179  1.0000
  H   H4085     1.0  0.47025  0.95090  0.34918  1.0000
  C   C2397     1.0  0.38078  0.74743  0.07040  1.0000
  C   C2398     1.0  0.42929  0.95674  0.44005  1.0000
  C   C2399     1.0  0.45914  0.78722  0.16924  1.0000
  C   C2400     1.0  0.43057  0.80815  0.16795  1.0000
  H   H4086     1.0  0.40370  0.74431  0.17821  1.0000
  H   H4087     1.0  0.41419  0.97206  0.34711  1.0000
  C   C2401     1.0  0.47313  0.76688  0.31435  1.0000
  C   C2402     1.0  0.37094  0.74352  0.43660  1.0000
  S   S701      1.0  0.42067  0.85162  0.32473  1.0000
  S   S702      1.0  0.29201  0.75848  0.46669  1.0000
  H   H4088     1.0  0.27148  0.78337  0.45612  1.0000
  H   H4089     1.0  0.39642  0.95697  0.21149  1.0000
  S   S703      1.0  0.31806  0.86220  0.42927  1.0000
  C   C2403     1.0  0.47862  0.95767  0.36424  1.0000
  H   H4090     1.0  0.47018  0.95426  0.37378  1.0000
  H   H4091     1.0  0.47359  0.80872  0.16581  1.0000
  H   H4092     1.0  0.47080  0.93419  0.15097  1.0000
  H   H4093     1.0  0.42145  0.81062  0.39845  1.0000
  C   C2404     1.0  0.43959  0.80740  0.26299  1.0000
  Fe  Fe352     1.0  0.48097  0.76607  0.22198  1.0000
  C   C2405     1.0  0.41550  0.73517  0.15858  1.0000
  H   H4094     1.0  0.45562  0.80925  0.13486  1.0000
  H   H4095     1.0  0.40881  0.90042  0.20966  1.0000
  C   C2406     1.0  0.39132  0.76387  0.43744  1.0000
  H   H4096     1.0  0.32442  0.80519  0.44569  1.0000
  H   H4097     1.0  0.47293  0.75716  0.03113  1.0000
  H   H4098     1.0  0.32998  0.83294  0.42177  1.0000
  H   H4099     1.0  0.46159  0.89550  0.18896  1.0000
  S   S704      1.0  0.46544  0.78016  0.20744  1.0000
  H   H4100     1.0  0.44340  0.87742  0.23281  1.0000
  C   C2407     1.0  0.47962  0.88087  0.35638  1.0000
  H   H4101     1.0  0.45121  0.78104  0.16853  1.0000
  H   H4102     1.0  0.42762  0.80398  0.15981  1.0000
  S   S705      1.0  0.49044  0.95722  0.32067  1.0000
  C   C2408     1.0  0.43300  0.89734  0.20503  1.0000
  C   C2409     1.0  0.43748  0.88836  0.23519  1.0000
  H   H4103     1.0  0.43503  0.89730  0.19314  1.0000
  H   H4104     1.0  0.48877  0.96598  0.28156  1.0000
  C   C2410     1.0  0.40133  0.76413  0.41068  1.0000
  H   H4105     1.0  0.47066  0.79710  0.30231  1.0000
  H   H4106     1.0  0.39812  0.77237  0.43456  1.0000
  H   H4107     1.0  0.41477  0.90984  0.21982  1.0000
  H   H4108     1.0  0.43665  0.91150  0.22754  1.0000
  C   C2411     1.0  0.45762  0.79867  0.14307  1.0000
  H   H4109     1.0  0.25133  0.91907  0.42337  1.0000
  H   H4110     1.0  0.41618  0.81007  0.27608  1.0000
  C   C2412     1.0  0.25706  0.80496  0.45323  1.0000
  H   H4111     1.0  0.33909  0.92455  0.46570  1.0000
  H   H4112     1.0  0.43678  0.83137  0.34532  1.0000
  S   S706      1.0  0.46802  0.76972  0.27350  1.0000
  C   C2413     1.0  0.44394  0.90126  0.22410  1.0000
  S   S707      1.0  0.40915  0.91326  0.27545  1.0000
  H   H4113     1.0  0.44076  0.77759  0.23653  1.0000
  C   C2414     1.0  0.31222  0.81689  0.40899  1.0000
  C   C2415     1.0  0.36686  0.75078  0.02921  1.0000
  C   C2416     1.0  0.44458  0.91826  0.19969  1.0000
  Fe  Fe353     1.0  0.28723  0.75841  0.44532  1.0000
  H   H4114     1.0  0.45193  0.95702  0.43927  1.0000
  C   C2417     1.0  0.25799  0.88695  0.42917  1.0000
  C   C2418     1.0  0.38216  0.74135  0.03207  1.0000
  H   H4115     1.0  0.43264  0.94830  0.12921  1.0000
  N   N175      1.0  0.45320  0.73604  0.04282  1.0000
  Fe  Fe354     1.0  0.36935  0.96921  0.41229  1.0000
  H   H4116     1.0  0.45608  0.77706  0.30174  1.0000
  N   N176      1.0  0.46645  0.87180  0.34174  1.0000
  H   H4117     1.0  0.42891  0.79339  0.28313  1.0000
  C   C2419     1.0  0.33613  0.77093  0.45157  1.0000
  C   C2420     1.0  0.47104  0.79464  0.40552  1.0000
  H   H4118     1.0  0.40435  0.82405  0.24054  1.0000
  H   H4119     1.0  0.44670  0.85783  0.30144  1.0000
  C   C2421     1.0  0.25456  0.89888  0.37296  1.0000
  H   H4120     1.0  0.31816  0.82584  0.40677  1.0000
  H   H4121     1.0  0.45372  0.93760  0.19593  1.0000
  H   H4122     1.0  0.40630  0.80961  0.25614  1.0000
  H   H4123     1.0  0.37284  0.74114  0.07863  1.0000
  H   H4124     1.0  0.45501  0.90045  0.22630  1.0000
  H   H4125     1.0  0.49144  0.81088  0.40370  1.0000
  H   H4126     1.0  0.42138  0.78945  0.26377  1.0000
  C   C2422     1.0  0.47425  0.77616  0.17005  1.0000
  H   H4127     1.0  0.42472  0.77222  0.24917  1.0000
  C   C2423     1.0  0.42986  0.78082  0.42588  1.0000
  H   H4128     1.0  0.42954  0.81098  0.28523  1.0000
  C   C2424     1.0  0.45238  0.97771  0.25433  1.0000
  H   H4129     1.0  0.42442  0.75561  0.40084  1.0000
  C   C2425     1.0  0.39914  0.75008  0.44746  1.0000
  S   S708      1.0  0.26694  0.74889  0.45596  1.0000
  C   C2426     1.0  0.45689  0.92546  0.20027  1.0000
  H   H4130     1.0  0.44498  0.91936  0.18783  1.0000
  H   H4131     1.0  0.49353  0.78932  0.19810  1.0000
  Fe  Fe355     1.0  0.46675  0.78978  0.36405  1.0000
  H   H4132     1.0  0.47207  0.96620  0.43078  1.0000
  S   S709      1.0  0.35186  0.78931  0.45381  1.0000
  C   C2427     1.0  0.46577  0.84425  0.31020  1.0000
  H   H4133     1.0  0.32677  0.92718  0.40726  1.0000
  H   H4134     1.0  0.40664  0.98287  0.13837  1.0000
  H   H4135     1.0  0.31848  0.91677  0.45965  1.0000
  H   H4136     1.0  0.33255  0.77974  0.44271  1.0000
  S   S710      1.0  0.36584  0.80873  0.47626  1.0000
  C   C2428     1.0  0.45601  0.74739  0.04912  1.0000
  C   C2429     1.0  0.28309  0.83838  0.42811  1.0000
  H   H4137     1.0  0.47399  0.87165  0.20002  1.0000
  H   H4138     1.0  0.39066  0.74791  0.02551  1.0000
  H   H4139     1.0  0.32429  0.89168  0.43467  1.0000
  H   H4140     1.0  0.41307  0.97724  0.11460  1.0000
  H   H4141     1.0  0.42262  0.74691  0.17179  1.0000
  C   C2430     1.0  0.29472  0.81266  0.45074  1.0000
  C   C2431     1.0  0.46375  0.79052  0.43935  1.0000
  C   C2432     1.0  0.46304  0.88533  0.31528  1.0000
  S   S711      1.0  0.49083  0.77609  0.23420  1.0000
  C   C2433     1.0  0.47886  0.76391  0.42052  1.0000
  H   H4142     1.0  0.28056  0.85013  0.42216  1.0000
  H   H4143     1.0  0.33928  0.90965  0.41081  1.0000
  H   H4144     1.0  0.31721  0.92626  0.43427  1.0000
  C   C2434     1.0  0.46605  0.88592  0.32997  1.0000
  C   C2435     1.0  0.38786  0.97616  0.46486  1.0000
  H   H4145     1.0  0.44415  0.96182  0.13541  1.0000
  H   H4146     1.0  0.44806  0.95987  0.42179  1.0000
  C   C2436     1.0  0.48064  0.80536  0.27159  1.0000
  N   N177      1.0  0.48627  0.80731  0.28390  1.0000
  C   C2437     1.0  0.25511  0.87013  0.39004  1.0000
  C   C2438     1.0  0.44343  0.96314  0.43265  1.0000
  H   H4147     1.0  0.38121  0.79206  0.42278  1.0000
  H   H4148     1.0  0.26785  0.90925  0.44123  1.0000
  H   H4149     1.0  0.36502  0.77247  0.42946  1.0000
  C   C2439     1.0  0.48467  0.79893  0.19595  1.0000
  H   H4150     1.0  0.47640  0.81131  0.30599  1.0000
  H   H4151     1.0  0.45060  0.73952  0.00629  1.0000
  C   C2440     1.0  0.45756  0.98239  0.23914  1.0000
  H   H4152     1.0  0.36484  0.76205  0.03116  1.0000
  H   H4153     1.0  0.46385  0.89608  0.30734  1.0000
  H   H4154     1.0  0.47222  0.76608  0.17865  1.0000
  S   S712      1.0  0.34918  0.98069  0.40261  1.0000
  S   S713      1.0  0.48904  0.96687  0.38305  1.0000
  H   H4155     1.0  0.48496  0.75232  0.42392  1.0000
  C   C2441     1.0  0.27326  0.89133  0.42300  1.0000
  H   H4156     1.0  0.48655  0.84849  0.35836  1.0000
  H   H4157     1.0  0.26459  0.96991  0.42701  1.0000
  H   H4158     1.0  0.39242  0.74235  0.07163  1.0000
  C   C2442     1.0  0.45420  0.74238  0.02647  1.0000
  H   H4159     1.0  0.39478  0.73760  0.42915  1.0000
  H   H4160     1.0  0.47248  0.79803  0.27617  1.0000
  H   H4161     1.0  0.45791  0.98159  0.41022  1.0000
  H   H4162     1.0  0.46721  0.77962  0.44665  1.0000
  H   H4163     1.0  0.45521  0.96998  0.45534  1.0000
  H   H4164     1.0  0.44748  0.75784  0.04730  1.0000
  H   H4165     1.0  0.25141  0.87396  0.34847  1.0000
  H   H4166     1.0  0.25440  0.97434  0.45142  1.0000
  H   H4167     1.0  0.47531  0.84002  0.35230  1.0000
  H   H4168     1.0  0.45033  0.97815  0.14487  1.0000
  H   H4169     1.0  0.40948  0.74381  0.44148  1.0000
  H   H4170     1.0  0.48070  0.74158  0.04458  1.0000
  C   C2443     1.0  0.44918  0.73374  0.01814  1.0000
  H   H4171     1.0  0.47827  0.88266  0.36759  1.0000
  C   C2444     1.0  0.46928  0.97842  0.42748  1.0000
  C   C2445     1.0  0.44296  0.97390  0.45811  1.0000
  C   C2446     1.0  0.30371  0.97754  0.40634  1.0000
  H   H4172     1.0  0.47483  0.76442  0.41064  1.0000
  C   C2447     1.0  0.48421  0.84639  0.34863  1.0000
  C   C2448     1.0  0.39272  0.97602  0.24705  1.0000
  H   H4173     1.0  0.45470  0.74401  0.06125  1.0000
  C   C2449     1.0  0.48737  0.75784  0.31454  1.0000
  C   C2450     1.0  0.48976  0.75558  0.28948  1.0000
  S   S714      1.0  0.30293  0.73656  0.44301  1.0000
  C   C2451     1.0  0.32068  0.98167  0.46218  1.0000
  C   C2452     1.0  0.41277  0.74641  0.16829  1.0000
  H   H4174     1.0  0.49390  0.78376  0.29126  1.0000
  H   H4175     1.0  0.44047  0.97978  0.46717  1.0000
  C   C2453     1.0  0.34571  0.74775  0.47404  1.0000
  H   H4176     1.0  0.38979  0.96725  0.25685  1.0000
  H   H4177     1.0  0.35854  0.76212  0.47600  1.0000
  Fe  Fe356     1.0  0.27310  0.74694  0.47714  1.0000
  C   C2454     1.0  0.37642  0.98275  0.35077  1.0000
  H   H4178     1.0  0.43598  0.98114  0.35858  1.0000
  H   H4179     1.0  0.43173  0.98301  0.41155  1.0000
  H   H4180     1.0  0.44184  0.98201  0.38412  1.0000
  H   H4181     1.0  0.46668  0.91058  0.89748  1.0000
  H   H4182     1.0  0.41249  0.97053  0.71815  1.0000
  C   C2455     1.0  0.31703  0.81492  0.52545  1.0000
  Fe  Fe357     1.0  0.41852  0.96148  0.76399  1.0000
  H   H4183     1.0  0.26624  0.90664  0.64673  1.0000
  H   H4184     1.0  0.25722  0.77046  0.53791  1.0000
  Fe  Fe358     1.0  0.43313  0.84436  0.87949  1.0000
  S   S715      1.0  0.44401  0.86366  0.86754  1.0000
  S   S716      1.0  0.44311  0.82616  0.89696  1.0000
  Fe  Fe359     1.0  0.41100  0.85345  0.85962  1.0000
  S   S717      1.0  0.41998  0.87324  0.84595  1.0000
  S   S718      1.0  0.39062  0.84795  0.85709  1.0000
  Fe  Fe360     1.0  0.44232  0.85832  0.84706  1.0000
  S   S719      1.0  0.46087  0.85925  0.82693  1.0000
  Fe  Fe361     1.0  0.42066  0.87723  0.86746  1.0000
  S   S720      1.0  0.41074  0.90082  0.87012  1.0000
  S   S721      1.0  0.43343  0.83792  0.85882  1.0000
  S   S722      1.0  0.40984  0.85844  0.88130  1.0000
  Fe  Fe362     1.0  0.30395  0.86303  0.66427  1.0000
  S   S723      1.0  0.29998  0.88749  0.65549  1.0000
  S   S724      1.0  0.29238  0.85176  0.65452  1.0000
  Fe  Fe363     1.0  0.32678  0.86361  0.68085  1.0000
  S   S725      1.0  0.32395  0.88821  0.67350  1.0000
  S   S726      1.0  0.34630  0.85171  0.69171  1.0000
  Fe  Fe364     1.0  0.29955  0.88861  0.67831  1.0000
  S   S727      1.0  0.28235  0.90741  0.68642  1.0000
  Fe  Fe365     1.0  0.32465  0.88469  0.65146  1.0000
  S   S728      1.0  0.33632  0.89819  0.63089  1.0000
  S   S729      1.0  0.30195  0.86416  0.68776  1.0000
  S   S730      1.0  0.32896  0.86006  0.65824  1.0000
  Fe  Fe366     1.0  0.38467  0.85318  0.77976  1.0000
  S   S731      1.0  0.39982  0.86872  0.77442  1.0000
  S   S732      1.0  0.38649  0.83346  0.79861  1.0000
  Fe  Fe367     1.0  0.36820  0.87073  0.75535  1.0000
  S   S733      1.0  0.38221  0.88773  0.74773  1.0000
  S   S734      1.0  0.34763  0.87491  0.74643  1.0000
  Fe  Fe368     1.0  0.40133  0.86844  0.75100  1.0000
  S   S735      1.0  0.42381  0.86798  0.73584  1.0000
  Fe  Fe369     1.0  0.37937  0.88650  0.77177  1.0000
  S   S736      1.0  0.37379  0.90669  0.78098  1.0000
  S   S737      1.0  0.38771  0.85131  0.75636  1.0000
  S   S738      1.0  0.36384  0.87105  0.77935  1.0000
  H   H4185     1.0  0.43642  0.81530  0.57764  1.0000
  S   S739      1.0  0.26094  0.76914  0.56560  1.0000
  S   S740      1.0  0.46042  0.80924  0.79748  1.0000
  H   H4186     1.0  0.30137  0.85067  0.62361  1.0000
  C   C2456     1.0  0.43618  0.80907  0.92485  1.0000
  H   H4187     1.0  0.46704  0.73670  0.80325  1.0000
  H   H4188     1.0  0.41346  0.94243  0.80786  1.0000
  C   C2457     1.0  0.33536  0.84506  0.59891  1.0000
  S   S741      1.0  0.37242  0.82392  0.57645  1.0000
  H   H4189     1.0  0.31065  0.78224  0.59307  1.0000
  S   S742      1.0  0.42481  0.97771  0.87435  1.0000
  Fe  Fe370     1.0  0.45019  0.83849  0.67134  1.0000
  S   S743      1.0  0.44986  0.81562  0.67070  1.0000
  S   S744      1.0  0.42758  0.85390  0.67523  1.0000
  C   C2458     1.0  0.27831  0.79572  0.62475  1.0000
  H   H4190     1.0  0.25482  0.93710  0.48822  1.0000
  Fe  Fe371     1.0  0.46888  0.81820  0.65111  1.0000
  S   S745      1.0  0.46800  0.81449  0.62923  1.0000
  Fe  Fe372     1.0  0.46737  0.80820  0.68416  1.0000
  H   H4191     1.0  0.28095  0.95881  0.67881  1.0000
  S   S746      1.0  0.46832  0.84167  0.65105  1.0000
  S   S747      1.0  0.46609  0.83091  0.68653  1.0000
  S   S748      1.0  0.40352  0.82478  0.58454  1.0000
  Fe  Fe373     1.0  0.37941  0.83642  0.58881  1.0000
  S   S749      1.0  0.37293  0.86121  0.58283  1.0000
  Fe  Fe374     1.0  0.40684  0.77832  0.96991  1.0000
  S   S750      1.0  0.41026  0.80588  0.55207  1.0000
  Fe  Fe375     1.0  0.31523  0.94783  0.71776  1.0000
  S   S751      1.0  0.30181  0.96945  0.72297  1.0000
  S   S752      1.0  0.30849  0.92645  0.72939  1.0000
  Fe  Fe376     1.0  0.33967  0.96124  0.69510  1.0000
  H   H4192     1.0  0.25418  0.97224  0.64686  1.0000
  S   S753      1.0  0.36130  0.95545  0.67903  1.0000
  H   H4193     1.0  0.28893  0.82247  0.63428  1.0000
  H   H4194     1.0  0.38718  0.97404  0.72094  1.0000
  H   H4195     1.0  0.25058  0.93253  0.64133  1.0000
  S   S754      1.0  0.33709  0.95094  0.71911  1.0000
  S   S755      1.0  0.31913  0.95578  0.69323  1.0000
  C   C2459     1.0  0.43139  0.91015  0.82756  1.0000
  C   C2460     1.0  0.32921  0.84556  0.62508  1.0000
  H   H4196     1.0  0.25495  0.88798  0.63255  1.0000
  H   H4197     1.0  0.25601  0.80454  0.64797  1.0000
  S   S756      1.0  0.24664  0.96609  0.62284  1.0000
  H   H4198     1.0  0.44648  0.89037  0.83671  1.0000
  C   C2461     1.0  0.27132  0.97813  0.61041  1.0000
  H   H4199     1.0  0.32789  0.77988  0.60916  1.0000
  C   C2462     1.0  0.45348  0.74126  0.91044  1.0000
  H   H4200     1.0  0.36897  0.87252  0.84195  1.0000
  H   H4201     1.0  0.46852  0.77880  0.73570  1.0000
  C   C2463     1.0  0.48109  0.82342  0.85409  1.0000
  H   H4202     1.0  0.40583  0.95081  0.89687  1.0000
  C   C2464     1.0  0.28888  0.81102  0.63393  1.0000
  Fe  Fe377     1.0  0.48456  0.83175  0.66613  1.0000
  H   H4203     1.0  0.46033  0.95200  0.91324  1.0000
  Fe  Fe378     1.0  0.48438  0.79930  0.78902  1.0000
  C   C2465     1.0  0.32934  0.79869  0.49882  1.0000
  H   H4204     1.0  0.28430  0.80564  0.64550  1.0000
  H   H4205     1.0  0.33988  0.82269  0.62210  1.0000
  N   N178      1.0  0.44194  0.77681  0.58233  1.0000
  C   C2466     1.0  0.25172  0.85427  0.68287  1.0000
  C   C2467     1.0  0.26222  0.74022  0.61237  1.0000
  C   C2468     1.0  0.24838  0.97833  0.69007  1.0000
  H   H4206     1.0  0.25081  0.91964  0.73043  1.0000
  C   C2469     1.0  0.25815  0.94737  0.48222  1.0000
  H   H4207     1.0  0.31290  0.92602  0.67813  1.0000
  H   H4208     1.0  0.31195  0.80884  0.62037  1.0000
  H   H4209     1.0  0.26635  0.74393  0.60034  1.0000
  H   H4210     1.0  0.43530  0.97375  0.57217  1.0000
  H   H4211     1.0  0.41734  0.80744  0.52074  1.0000
  C   C2470     1.0  0.45145  0.81054  0.62804  1.0000
  C   C2471     1.0  0.44395  0.80105  0.63967  1.0000
  C   C2472     1.0  0.43115  0.79754  0.63829  1.0000
  C   C2473     1.0  0.42558  0.80367  0.62539  1.0000
  C   C2474     1.0  0.43291  0.81338  0.61383  1.0000
  C   C2475     1.0  0.44593  0.81662  0.61508  1.0000
  H   H4212     1.0  0.44820  0.79617  0.64963  1.0000
  H   H4213     1.0  0.42557  0.78998  0.64726  1.0000
  H   H4214     1.0  0.42864  0.81825  0.60390  1.0000
  H   H4215     1.0  0.45170  0.82396  0.60604  1.0000
  H   H4216     1.0  0.41019  0.76282  0.58731  1.0000
  C   C2476     1.0  0.43929  0.92028  0.93917  1.0000
  H   H4217     1.0  0.32448  0.96441  0.53136  1.0000
  H   H4218     1.0  0.33075  0.95908  0.62536  1.0000
  H   H4219     1.0  0.45236  0.73825  0.83100  1.0000
  C   C2477     1.0  0.43285  0.95154  0.81859  1.0000
  C   C2478     1.0  0.41102  0.80657  0.93821  1.0000
  H   H4220     1.0  0.44196  0.96755  0.55536  1.0000
  C   C2479     1.0  0.37624  0.97438  0.65682  1.0000
  H   H4221     1.0  0.44006  0.76619  0.61378  1.0000
  C   C2480     1.0  0.38956  0.91426  0.77649  1.0000
  C   C2481     1.0  0.40237  0.90911  0.76640  1.0000
  C   C2482     1.0  0.41445  0.91612  0.76192  1.0000
  C   C2483     1.0  0.41378  0.92810  0.76770  1.0000
  C   C2484     1.0  0.40145  0.93242  0.77866  1.0000
  C   C2485     1.0  0.38920  0.92575  0.78281  1.0000
  H   H4222     1.0  0.40280  0.90010  0.76160  1.0000
  H   H4223     1.0  0.42410  0.91253  0.75365  1.0000
  H   H4224     1.0  0.40132  0.94097  0.78391  1.0000
  H   H4225     1.0  0.37942  0.92964  0.79077  1.0000
  C   C2486     1.0  0.42392  0.86581  0.71848  1.0000
  C   C2487     1.0  0.43718  0.86555  0.70771  1.0000
  C   C2488     1.0  0.43814  0.86231  0.69423  1.0000
  C   C2489     1.0  0.42570  0.85964  0.69138  1.0000
  C   C2490     1.0  0.41213  0.86064  0.70186  1.0000
  C   C2491     1.0  0.41128  0.86359  0.71552  1.0000
  H   H4226     1.0  0.44677  0.86760  0.70994  1.0000
  H   H4227     1.0  0.44852  0.86184  0.68601  1.0000
  H   H4228     1.0  0.40252  0.85848  0.69968  1.0000
  H   H4229     1.0  0.40098  0.86383  0.72383  1.0000
  C   C2492     1.0  0.34669  0.85771  0.70718  1.0000
  C   C2493     1.0  0.33371  0.86562  0.71492  1.0000
  C   C2494     1.0  0.33418  0.87034  0.72723  1.0000
  C   C2495     1.0  0.34766  0.86767  0.73159  1.0000
  C   C2496     1.0  0.36071  0.85979  0.72385  1.0000
  C   C2497     1.0  0.36018  0.85468  0.71176  1.0000
  H   H4230     1.0  0.32324  0.86784  0.71161  1.0000
  H   H4231     1.0  0.32402  0.87599  0.73350  1.0000
  H   H4232     1.0  0.37116  0.85759  0.72721  1.0000
  H   H4233     1.0  0.37025  0.84848  0.70585  1.0000
  C   C2498     1.0  0.28902  0.91262  0.69886  1.0000
  C   C2499     1.0  0.29920  0.90230  0.70663  1.0000
  C   C2500     1.0  0.30482  0.90656  0.71632  1.0000
  C   C2501     1.0  0.30071  0.92121  0.71784  1.0000
  C   C2502     1.0  0.29070  0.93163  0.70989  1.0000
  C   C2503     1.0  0.28460  0.92723  0.70063  1.0000
  H   H4234     1.0  0.30260  0.89097  0.70533  1.0000
  H   H4235     1.0  0.31255  0.89859  0.72246  1.0000
  H   H4236     1.0  0.28750  0.94300  0.71106  1.0000
  H   H4237     1.0  0.27667  0.93523  0.69471  1.0000
  C   C2504     1.0  0.34786  0.88777  0.61803  1.0000
  C   C2505     1.0  0.35397  0.87263  0.62239  1.0000
  C   C2506     1.0  0.36231  0.86437  0.61171  1.0000
  C   C2507     1.0  0.36436  0.87125  0.59669  1.0000
  C   C2508     1.0  0.35871  0.88646  0.59243  1.0000
  C   C2509     1.0  0.35055  0.89471  0.60307  1.0000
  H   H4238     1.0  0.35227  0.86730  0.63394  1.0000
  H   H4239     1.0  0.36686  0.85267  0.61506  1.0000
  H   H4240     1.0  0.36038  0.89184  0.58083  1.0000
  H   H4241     1.0  0.34599  0.90641  0.59964  1.0000
  C   C2510     1.0  0.42315  0.91200  0.86842  1.0000
  C   C2511     1.0  0.43853  0.90619  0.86634  1.0000
  H   H4242     1.0  0.44294  0.89470  0.86586  1.0000
  C   C2512     1.0  0.45980  0.84751  0.81655  1.0000
  C   C2513     1.0  0.44664  0.84265  0.81899  1.0000
  C   C2514     1.0  0.44657  0.83141  0.81244  1.0000
  C   C2515     1.0  0.45976  0.82485  0.80371  1.0000
  C   C2516     1.0  0.47274  0.83015  0.80082  1.0000
  C   C2517     1.0  0.47269  0.84165  0.80701  1.0000
  H   H4243     1.0  0.43660  0.84729  0.82621  1.0000
  H   H4244     1.0  0.43647  0.82741  0.81465  1.0000
  C   C2518     1.0  0.42754  0.93997  0.90201  1.0000
  C   C2519     1.0  0.29128  0.95669  0.67022  1.0000
  C   C2520     1.0  0.39041  0.84370  0.84061  1.0000
  C   C2521     1.0  0.37903  0.83715  0.84074  1.0000
  C   C2522     1.0  0.37805  0.83393  0.82784  1.0000
  C   C2523     1.0  0.38816  0.83768  0.81456  1.0000
  C   C2524     1.0  0.39952  0.84442  0.81429  1.0000
  C   C2525     1.0  0.40077  0.84726  0.82739  1.0000
  H   H4245     1.0  0.37099  0.83441  0.85091  1.0000
  H   H4246     1.0  0.36932  0.82868  0.82812  1.0000
  H   H4247     1.0  0.40751  0.84716  0.80409  1.0000
  H   H4248     1.0  0.40960  0.85230  0.82722  1.0000
  H   H4249     1.0  0.44806  0.80625  0.92437  1.0000
  C   C2526     1.0  0.31095  0.95400  0.64162  1.0000
  H   H4250     1.0  0.30035  0.95071  0.67606  1.0000
  H   H4251     1.0  0.40623  0.76192  0.93008  1.0000
  S   S757      1.0  0.27379  0.79364  0.52440  1.0000
  C   C2527     1.0  0.30194  0.81255  0.52478  1.0000
  H   H4252     1.0  0.40442  0.94255  0.83531  1.0000
  C   C2528     1.0  0.45003  0.95198  0.92215  1.0000
  H   H4253     1.0  0.49210  0.80277  0.69560  1.0000
  H   H4254     1.0  0.31681  0.78593  0.52841  1.0000
  H   H4255     1.0  0.44745  0.80550  0.56387  1.0000
  H   H4256     1.0  0.42597  0.95717  0.72741  1.0000
  H   H4257     1.0  0.47270  0.82651  0.75000  1.0000
  H   H4258     1.0  0.46547  0.79308  0.86885  1.0000
  C   C2529     1.0  0.26466  0.84881  0.65465  1.0000
  H   H4259     1.0  0.26963  0.84667  0.64373  1.0000
  C   C2530     1.0  0.27334  0.85190  0.66249  1.0000
  S   S758      1.0  0.38944  0.97488  0.81062  1.0000
  H   H4260     1.0  0.48970  0.86250  0.68649  1.0000
  H   H4261     1.0  0.43283  0.94633  0.89122  1.0000
  H   H4262     1.0  0.34869  0.95670  0.52782  1.0000
  H   H4263     1.0  0.41094  0.95994  0.90774  1.0000
  H   H4264     1.0  0.36705  0.95818  0.52705  1.0000
  H   H4265     1.0  0.30973  0.75348  0.48881  1.0000
  H   H4266     1.0  0.46708  0.79566  0.89205  1.0000
  H   H4267     1.0  0.30395  0.91972  0.66136  1.0000
  N   N179      1.0  0.49204  0.84430  0.71597  1.0000
  C   C2531     1.0  0.26752  0.95272  0.48737  1.0000
  H   H4268     1.0  0.37305  0.89089  0.86999  1.0000
  H   H4269     1.0  0.26878  0.77635  0.48365  1.0000
  H   H4270     1.0  0.44874  0.80521  0.85157  1.0000
  H   H4271     1.0  0.45287  0.80215  0.58141  1.0000
  H   H4272     1.0  0.44739  0.96266  0.92559  1.0000
  C   C2532     1.0  0.24954  0.84850  0.66087  1.0000
  H   H4273     1.0  0.39120  0.73517  0.96442  1.0000
  H   H4274     1.0  0.27150  0.94648  0.49725  1.0000
  H   H4275     1.0  0.43618  0.75544  0.59290  1.0000
  N   N180      1.0  0.39205  0.95011  0.72687  1.0000
  C   C2533     1.0  0.38915  0.93773  0.72220  1.0000
  C   C2534     1.0  0.38613  0.96459  0.71716  1.0000
  C   C2535     1.0  0.38429  0.95051  0.74272  1.0000
  C   C2536     1.0  0.40864  0.94774  0.72543  1.0000
  C   C2537     1.0  0.39386  0.92210  0.73154  1.0000
  C   C2538     1.0  0.48428  0.75189  0.84323  1.0000
  C   C2539     1.0  0.36772  0.94947  0.74723  1.0000
  C   C2540     1.0  0.41387  0.96069  0.72732  1.0000
  H   H4276     1.0  0.37713  0.93965  0.72205  1.0000
  H   H4277     1.0  0.39533  0.93728  0.71066  1.0000
  H   H4278     1.0  0.46394  0.77032  0.93085  1.0000
  H   H4279     1.0  0.37396  0.96617  0.71799  1.0000
  H   H4280     1.0  0.39020  0.94149  0.75050  1.0000
  H   H4281     1.0  0.38458  0.96094  0.74534  1.0000
  H   H4282     1.0  0.41260  0.93802  0.73392  1.0000
  H   H4283     1.0  0.41507  0.94502  0.71464  1.0000
  H   H4284     1.0  0.38783  0.92094  0.74324  1.0000
  H   H4285     1.0  0.39115  0.91400  0.72711  1.0000
  H   H4286     1.0  0.40608  0.91881  0.73090  1.0000
  H   H4287     1.0  0.46406  0.73461  0.84360  1.0000
  H   H4288     1.0  0.46349  0.82328  0.83954  1.0000
  H   H4289     1.0  0.39026  0.95945  0.69531  1.0000
  H   H4290     1.0  0.36284  0.95196  0.75836  1.0000
  H   H4291     1.0  0.36650  0.93819  0.74811  1.0000
  H   H4292     1.0  0.36095  0.95745  0.73962  1.0000
  H   H4293     1.0  0.45968  0.75993  0.59075  1.0000
  S   S759      1.0  0.28385  0.97228  0.48621  1.0000
  H   H4294     1.0  0.45485  0.96524  0.56651  1.0000
  N   N181      1.0  0.33038  0.80205  0.52428  1.0000
  C   C2541     1.0  0.34132  0.80392  0.53191  1.0000
  C   C2542     1.0  0.32589  0.78760  0.53238  1.0000
  C   C2543     1.0  0.34694  0.81846  0.52595  1.0000
  C   C2544     1.0  0.33837  0.77347  0.53154  1.0000
  H   H4295     1.0  0.33641  0.80307  0.54396  1.0000
  H   H4296     1.0  0.35148  0.79493  0.53117  1.0000
  H   H4297     1.0  0.37332  0.88923  0.66855  1.0000
  H   H4298     1.0  0.32120  0.78769  0.54428  1.0000
  H   H4299     1.0  0.31484  0.81835  0.53609  1.0000
  H   H4300     1.0  0.26747  0.74556  0.61778  1.0000
  H   H4301     1.0  0.33772  0.82841  0.52630  1.0000
  H   H4302     1.0  0.35420  0.81871  0.53305  1.0000
  H   H4303     1.0  0.34358  0.77236  0.52001  1.0000
  H   H4304     1.0  0.34710  0.77282  0.53736  1.0000
  H   H4305     1.0  0.33340  0.76367  0.53722  1.0000
  C   C2545     1.0  0.27167  0.96613  0.47985  1.0000
  H   H4306     1.0  0.43620  0.92795  0.94676  1.0000
  C   C2546     1.0  0.39749  0.88746  0.81202  1.0000
  C   C2547     1.0  0.29581  0.93991  0.63715  1.0000
  S   S760      1.0  0.45423  0.98172  0.84634  1.0000
  C   C2548     1.0  0.28349  0.93089  0.64266  1.0000
  S   S761      1.0  0.42349  0.96937  0.78133  1.0000
  S   S762      1.0  0.29204  0.73431  0.57668  1.0000
  Fe  Fe379     1.0  0.44794  0.96464  0.86672  1.0000
  C   C2549     1.0  0.46848  0.80350  0.86847  1.0000
  H   H4307     1.0  0.30492  0.93405  0.62935  1.0000
  S   S763      1.0  0.32768  0.97902  0.74222  1.0000
  C   C2550     1.0  0.26755  0.78251  0.51695  1.0000
  H   H4308     1.0  0.37204  0.78681  0.54272  1.0000
  C   C2551     1.0  0.41137  0.94887  0.90615  1.0000
  C   C2552     1.0  0.45396  0.77164  0.59113  1.0000
  S   S764      1.0  0.45308  0.73752  0.96486  1.0000
  H   H4309     1.0  0.28695  0.92002  0.64991  1.0000
  H   H4310     1.0  0.27289  0.93708  0.64850  1.0000
  H   H4311     1.0  0.28103  0.92877  0.63296  1.0000
  S   S765      1.0  0.29543  0.77390  0.55407  1.0000
  H   H4312     1.0  0.37639  0.90770  0.84595  1.0000
  H   H4313     1.0  0.44068  0.95351  0.80770  1.0000
  Fe  Fe380     1.0  0.25785  0.78391  0.58089  1.0000
  H   H4314     1.0  0.35994  0.97188  0.50407  1.0000
  H   H4315     1.0  0.48735  0.77909  0.74890  1.0000
  S   S766      1.0  0.27911  0.77272  0.58878  1.0000
  H   H4316     1.0  0.25549  0.79174  0.63084  1.0000
  C   C2553     1.0  0.43682  0.95117  0.91638  1.0000
  H   H4317     1.0  0.45766  0.81172  0.87022  1.0000
  H   H4318     1.0  0.43552  0.95725  0.82574  1.0000
  C   C2554     1.0  0.31219  0.87698  0.61879  1.0000
  H   H4319     1.0  0.35699  0.88247  0.67226  1.0000
  H   H4320     1.0  0.31930  0.82485  0.51669  1.0000
  H   H4321     1.0  0.33396  0.83379  0.59958  1.0000
  H   H4322     1.0  0.49003  0.84247  0.84040  1.0000
  H   H4323     1.0  0.26681  0.82734  0.59807  1.0000
  H   H4324     1.0  0.30384  0.96437  0.63655  1.0000
  H   H4325     1.0  0.28388  0.93841  0.66812  1.0000
  H   H4326     1.0  0.34354  0.84657  0.57527  1.0000
  H   H4327     1.0  0.31222  0.94928  0.75113  1.0000
  H   H4328     1.0  0.48981  0.76593  0.82172  1.0000
  H   H4329     1.0  0.33416  0.87060  0.60565  1.0000
  H   H4330     1.0  0.25420  0.92467  0.67648  1.0000
  S   S767      1.0  0.34809  0.79759  0.60787  1.0000
  S   S768      1.0  0.26802  0.80119  0.56314  1.0000
  C   C2555     1.0  0.43045  0.92647  0.92683  1.0000
  H   H4331     1.0  0.29730  0.80511  0.53508  1.0000
  H   H4332     1.0  0.31038  0.83616  0.61464  1.0000
  S   S769      1.0  0.30469  0.80431  0.56653  1.0000
  C   C2556     1.0  0.26651  0.77487  0.49549  1.0000
  H   H4333     1.0  0.48653  0.77691  0.86191  1.0000
  H   H4334     1.0  0.38356  0.79442  0.55856  1.0000
  C   C2557     1.0  0.43059  0.81899  0.91290  1.0000
  H   H4335     1.0  0.42657  0.90343  0.82320  1.0000
  H   H4336     1.0  0.33683  0.97047  0.50302  1.0000
  C   C2558     1.0  0.30805  0.75398  0.50049  1.0000
  H   H4337     1.0  0.24996  0.75383  0.52711  1.0000
  H   H4338     1.0  0.45253  0.90685  0.83453  1.0000
  H   H4339     1.0  0.34940  0.92074  0.83373  1.0000
  H   H4340     1.0  0.27946  0.95527  0.65537  1.0000
  H   H4341     1.0  0.28815  0.85638  0.60551  1.0000
  N   N182      1.0  0.32533  0.91895  0.76668  1.0000
  C   C2559     1.0  0.32415  0.90404  0.76545  1.0000
  C   C2560     1.0  0.33544  0.92515  0.75263  1.0000
  C   C2561     1.0  0.30988  0.92890  0.76818  1.0000
  C   C2562     1.0  0.33155  0.91657  0.78009  1.0000
  C   C2563     1.0  0.31219  0.89680  0.77741  1.0000
  C   C2564     1.0  0.35140  0.91579  0.74916  1.0000
  C   C2565     1.0  0.30882  0.94578  0.76333  1.0000
  C   C2566     1.0  0.33498  0.93011  0.78290  1.0000
  H   H4342     1.0  0.32183  0.90477  0.75454  1.0000
  H   H4343     1.0  0.33490  0.89580  0.76597  1.0000
  H   H4344     1.0  0.33658  0.93636  0.75230  1.0000
  H   H4345     1.0  0.33041  0.92665  0.74313  1.0000
  H   H4346     1.0  0.30346  0.92662  0.76133  1.0000
  H   H4347     1.0  0.30336  0.92658  0.77977  1.0000
  H   H4348     1.0  0.32359  0.91247  0.79028  1.0000
  H   H4349     1.0  0.34175  0.90748  0.78020  1.0000
  H   H4350     1.0  0.31417  0.89465  0.78865  1.0000
  H   H4351     1.0  0.30070  0.90337  0.77700  1.0000
  H   H4352     1.0  0.31281  0.88588  0.77528  1.0000
  H   H4353     1.0  0.35776  0.92164  0.73874  1.0000
  H   H4354     1.0  0.35740  0.91415  0.75795  1.0000
  H   H4355     1.0  0.35145  0.90498  0.74727  1.0000
  H   H4356     1.0  0.29699  0.95162  0.76646  1.0000
  H   H4357     1.0  0.32484  0.93662  0.78906  1.0000
  H   H4358     1.0  0.33993  0.93743  0.77278  1.0000
  H   H4359     1.0  0.34365  0.92622  0.78957  1.0000
  H   H4360     1.0  0.25983  0.80287  0.61235  1.0000
  C   C2567     1.0  0.40056  0.97838  0.83249  1.0000
  C   C2568     1.0  0.41980  0.76753  0.58005  1.0000
  C   C2569     1.0  0.47027  0.81176  0.84137  1.0000
  H   H4361     1.0  0.47603  0.81068  0.88449  1.0000
  C   C2570     1.0  0.47408  0.83648  0.74104  1.0000
  C   C2571     1.0  0.44725  0.90139  0.82932  1.0000
  H   H4362     1.0  0.27082  0.97630  0.60004  1.0000
  C   C2572     1.0  0.33681  0.79877  0.59582  1.0000
  H   H4363     1.0  0.26976  0.88671  0.64956  1.0000
  C   C2573     1.0  0.44850  0.77488  0.56661  1.0000
  H   H4364     1.0  0.26102  0.81931  0.65234  1.0000
  H   H4365     1.0  0.46956  0.85779  0.71773  1.0000
  C   C2574     1.0  0.35533  0.96455  0.52750  1.0000
  S   S770      1.0  0.39025  0.97405  0.48283  1.0000
  H   H4366     1.0  0.46669  0.78725  0.56083  1.0000
  S   S771      1.0  0.47619  0.73359  0.86983  1.0000
  H   H4367     1.0  0.46707  0.77737  0.54761  1.0000
  Fe  Fe381     1.0  0.28960  0.78888  0.56972  1.0000
  H   H4368     1.0  0.45688  0.93722  0.89550  1.0000
  S   S772      1.0  0.46536  0.79136  0.70568  1.0000
  C   C2575     1.0  0.49271  0.78239  0.85117  1.0000
  H   H4369     1.0  0.46378  0.79005  0.84659  1.0000
  C   C2576     1.0  0.44056  0.92582  0.80319  1.0000
  N   N183      1.0  0.43212  0.81565  0.75386  1.0000
  C   C2577     1.0  0.42736  0.81907  0.73936  1.0000
  C   C2578     1.0  0.42241  0.80584  0.76502  1.0000
  C   C2579     1.0  0.44815  0.80717  0.75160  1.0000
  C   C2580     1.0  0.43045  0.83008  0.75805  1.0000
  C   C2581     1.0  0.43756  0.82667  0.72558  1.0000
  C   C2582     1.0  0.40552  0.81271  0.76812  1.0000
  C   C2583     1.0  0.45537  0.80220  0.76506  1.0000
  C   C2584     1.0  0.42947  0.82954  0.77449  1.0000
  H   H4370     1.0  0.42649  0.80878  0.73684  1.0000
  H   H4371     1.0  0.41602  0.82646  0.73994  1.0000
  H   H4372     1.0  0.42555  0.80209  0.77586  1.0000
  H   H4373     1.0  0.42397  0.79540  0.76140  1.0000
  H   H4374     1.0  0.44924  0.79712  0.74753  1.0000
  H   H4375     1.0  0.45556  0.81385  0.74297  1.0000
  H   H4376     1.0  0.43972  0.83556  0.75130  1.0000
  H   H4377     1.0  0.42016  0.83803  0.75525  1.0000
  H   H4378     1.0  0.44060  0.83612  0.72750  1.0000
  H   H4379     1.0  0.44784  0.81866  0.72168  1.0000
  H   H4380     1.0  0.43159  0.83101  0.71636  1.0000
  H   H4381     1.0  0.40308  0.82329  0.77155  1.0000
  H   H4382     1.0  0.40063  0.81433  0.75850  1.0000
  H   H4383     1.0  0.39967  0.80512  0.77741  1.0000
  H   H4384     1.0  0.45656  0.81182  0.76837  1.0000
  H   H4385     1.0  0.46687  0.79568  0.76194  1.0000
  H   H4386     1.0  0.44945  0.79495  0.77459  1.0000
  H   H4387     1.0  0.43696  0.83622  0.77512  1.0000
  H   H4388     1.0  0.43263  0.81848  0.78149  1.0000
  H   H4389     1.0  0.41803  0.83485  0.77971  1.0000
  N   N184      1.0  0.43778  0.76730  0.91304  1.0000
  C   C2585     1.0  0.45086  0.77172  0.91516  1.0000
  C   C2586     1.0  0.43759  0.77196  0.89681  1.0000
  C   C2587     1.0  0.43908  0.75082  0.91803  1.0000
  C   C2588     1.0  0.42366  0.77486  0.92213  1.0000
  C   C2589     1.0  0.45453  0.76581  0.93062  1.0000
  C   C2590     1.0  0.43261  0.78875  0.89073  1.0000
  H   H4390     1.0  0.48465  0.74166  0.79964  1.0000
  C   C2591     1.0  0.40895  0.77170  0.92138  1.0000
  H   H4391     1.0  0.46125  0.76821  0.90705  1.0000
  H   H4392     1.0  0.44898  0.78397  0.91295  1.0000
  H   H4393     1.0  0.43036  0.76632  0.89405  1.0000
  H   H4394     1.0  0.44890  0.76836  0.89000  1.0000
  H   H4395     1.0  0.43810  0.74719  0.93019  1.0000
  H   H4396     1.0  0.42961  0.74763  0.91603  1.0000
  H   H4397     1.0  0.42398  0.77162  0.93401  1.0000
  H   H4398     1.0  0.42256  0.78703  0.91948  1.0000
  C   C2592     1.0  0.25608  0.81647  0.64466  1.0000
  H   H4399     1.0  0.44511  0.76934  0.93954  1.0000
  H   H4400     1.0  0.45826  0.75360  0.93326  1.0000
  H   H4401     1.0  0.43910  0.79529  0.89322  1.0000
  H   H4402     1.0  0.43434  0.79098  0.87853  1.0000
  H   H4403     1.0  0.42052  0.79289  0.89505  1.0000
  H   H4404     1.0  0.47378  0.75935  0.84654  1.0000
  H   H4405     1.0  0.47925  0.96872  0.55804  1.0000
  H   H4406     1.0  0.31495  0.95732  0.64963  1.0000
  C   C2593     1.0  0.33003  0.97915  0.50922  1.0000
  H   H4407     1.0  0.40913  0.76990  0.91053  1.0000
  C   C2594     1.0  0.47869  0.85276  0.70939  1.0000
  H   H4408     1.0  0.31661  0.87442  0.62888  1.0000
  H   H4409     1.0  0.31131  0.88904  0.61419  1.0000
  H   H4410     1.0  0.30078  0.87487  0.62172  1.0000
  H   H4411     1.0  0.45247  0.92328  0.80396  1.0000
  H   H4412     1.0  0.31546  0.94975  0.76848  1.0000
  H   H4413     1.0  0.32107  0.85002  0.63435  1.0000
  S   S773      1.0  0.42776  0.93831  0.76047  1.0000
  H   H4414     1.0  0.48893  0.97626  0.56679  1.0000
  H   H4415     1.0  0.26534  0.73973  0.56487  1.0000
  H   H4416     1.0  0.45474  0.89933  0.81871  1.0000
  H   H4417     1.0  0.41079  0.83023  0.90452  1.0000
  N   N185      1.0  0.32388  0.85200  0.61081  1.0000
  N   N186      1.0  0.47827  0.80888  0.85374  1.0000
  H   H4418     1.0  0.43663  0.90947  0.94563  1.0000
  N   N187      1.0  0.43709  0.93665  0.91313  1.0000
  H   H4419     1.0  0.46089  0.92813  0.91283  1.0000
  H   H4420     1.0  0.39971  0.78149  0.92313  1.0000
  N   N188      1.0  0.40271  0.84020  0.65101  1.0000
  C   C2595     1.0  0.39807  0.83266  0.66701  1.0000
  C   C2596     1.0  0.39554  0.85645  0.64949  1.0000
  C   C2597     1.0  0.41961  0.83783  0.64719  1.0000
  C   C2598     1.0  0.39755  0.83321  0.64173  1.0000
  C   C2599     1.0  0.40507  0.81594  0.67110  1.0000
  C   C2600     1.0  0.37828  0.86043  0.65327  1.0000
  C   C2601     1.0  0.42670  0.85014  0.63578  1.0000
  C   C2602     1.0  0.39947  0.84059  0.62520  1.0000
  H   H4421     1.0  0.40086  0.83814  0.67434  1.0000
  H   H4422     1.0  0.38576  0.83361  0.67039  1.0000
  H   H4423     1.0  0.39895  0.86278  0.63805  1.0000
  H   H4424     1.0  0.39946  0.86120  0.65663  1.0000
  H   H4425     1.0  0.42400  0.83634  0.65716  1.0000
  H   H4426     1.0  0.42484  0.82741  0.64328  1.0000
  H   H4427     1.0  0.40361  0.82150  0.64234  1.0000
  H   H4428     1.0  0.38558  0.83268  0.64615  1.0000
  H   H4429     1.0  0.41746  0.81344  0.66811  1.0000
  H   H4430     1.0  0.40178  0.81197  0.68326  1.0000
  H   H4431     1.0  0.40086  0.80939  0.66601  1.0000
  H   H4432     1.0  0.37336  0.85580  0.64696  1.0000
  H   H4433     1.0  0.37364  0.85694  0.66527  1.0000
  H   H4434     1.0  0.37443  0.87263  0.65021  1.0000
  H   H4435     1.0  0.42466  0.85994  0.64053  1.0000
  H   H4436     1.0  0.42283  0.85358  0.62533  1.0000
  H   H4437     1.0  0.43902  0.84597  0.63300  1.0000
  H   H4438     1.0  0.39289  0.85214  0.62320  1.0000
  H   H4439     1.0  0.39532  0.83433  0.61972  1.0000
  H   H4440     1.0  0.41136  0.84014  0.61972  1.0000
  H   H4441     1.0  0.38772  0.88138  0.85783  1.0000
  H   H4442     1.0  0.33981  0.84871  0.62422  1.0000
  C   C2603     1.0  0.30412  0.74541  0.53746  1.0000
  C   C2604     1.0  0.44826  0.91522  0.86505  1.0000
  H   H4443     1.0  0.29103  0.95070  0.63030  1.0000
  N   N189      1.0  0.36449  0.90478  0.69072  1.0000
  C   C2605     1.0  0.35389  0.91497  0.70028  1.0000
  C   C2606     1.0  0.37159  0.91418  0.67659  1.0000
  C   C2607     1.0  0.37665  0.89455  0.69819  1.0000
  C   C2608     1.0  0.35577  0.89546  0.68785  1.0000
  C   C2609     1.0  0.34695  0.90739  0.71602  1.0000
  C   C2610     1.0  0.36131  0.92270  0.66575  1.0000
  C   C2611     1.0  0.38568  0.90219  0.70353  1.0000
  C   C2612     1.0  0.36471  0.88472  0.67766  1.0000
  H   H4444     1.0  0.35938  0.92333  0.70125  1.0000
  H   H4445     1.0  0.34432  0.92160  0.69516  1.0000
  H   H4446     1.0  0.38168  0.90754  0.67045  1.0000
  H   H4447     1.0  0.37586  0.92266  0.67902  1.0000
  H   H4448     1.0  0.37208  0.88628  0.70779  1.0000
  H   H4449     1.0  0.38489  0.88775  0.69062  1.0000
  H   H4450     1.0  0.35101  0.88835  0.69837  1.0000
  H   H4451     1.0  0.34566  0.90227  0.68371  1.0000
  H   H4452     1.0  0.34021  0.91606  0.72210  1.0000
  H   H4453     1.0  0.33921  0.90073  0.71601  1.0000
  H   H4454     1.0  0.35541  0.90048  0.72237  1.0000
  H   H4455     1.0  0.36746  0.92997  0.65637  1.0000
  H   H4456     1.0  0.35810  0.91511  0.66102  1.0000
  H   H4457     1.0  0.35119  0.93000  0.67094  1.0000
  H   H4458     1.0  0.37853  0.90846  0.71193  1.0000
  H   H4459     1.0  0.39173  0.90957  0.69423  1.0000
  H   H4460     1.0  0.39423  0.89361  0.70884  1.0000
  H   H4461     1.0  0.37018  0.87408  0.68406  1.0000
  C   C2613     1.0  0.49337  0.75565  0.82919  1.0000
  C   C2614     1.0  0.25568  0.76234  0.51998  1.0000
  H   H4462     1.0  0.39692  0.89372  0.83161  1.0000
  H   H4463     1.0  0.41521  0.77881  0.57424  1.0000
  C   C2615     1.0  0.40121  0.80148  0.54074  1.0000
  C   C2616     1.0  0.37556  0.88618  0.86009  1.0000
  Fe  Fe382     1.0  0.32408  0.97335  0.72260  1.0000
  H   H4464     1.0  0.28761  0.75250  0.51719  1.0000
  H   H4465     1.0  0.42653  0.92964  0.89976  1.0000
  C   C2617     1.0  0.28648  0.81831  0.60832  1.0000
  H   H4466     1.0  0.32125  0.82474  0.63389  1.0000
  S   S774      1.0  0.45822  0.97257  0.88048  1.0000
  C   C2618     1.0  0.26678  0.85484  0.67653  1.0000
  H   H4467     1.0  0.27340  0.85720  0.68267  1.0000
  C   C2619     1.0  0.45275  0.92968  0.90604  1.0000
  H   H4468     1.0  0.28445  0.82645  0.58552  1.0000
  H   H4469     1.0  0.46014  0.91057  0.86368  1.0000
  H   H4470     1.0  0.35863  0.90298  0.85104  1.0000
  H   H4471     1.0  0.44478  0.78415  0.60872  1.0000
  H   H4472     1.0  0.29242  0.74543  0.54356  1.0000
  H   H4473     1.0  0.31062  0.80137  0.63959  1.0000
  H   H4474     1.0  0.42461  0.91028  0.83893  1.0000
  C   C2620     1.0  0.30897  0.84830  0.61308  1.0000
  C   C2621     1.0  0.30031  0.85536  0.60063  1.0000
  C   C2622     1.0  0.41757  0.92698  0.86895  1.0000
  H   H4475     1.0  0.44677  0.91680  0.78354  1.0000
  H   H4476     1.0  0.48286  0.84544  0.80504  1.0000
  H   H4477     1.0  0.42526  0.76061  0.57176  1.0000
  H   H4478     1.0  0.40567  0.93158  0.87041  1.0000
  H   H4479     1.0  0.44821  0.91481  0.89480  1.0000
  C   C2623     1.0  0.33187  0.82858  0.63043  1.0000
  C   C2624     1.0  0.33625  0.98063  0.65111  1.0000
  N   N190      1.0  0.30183  0.94238  0.64896  1.0000
  Fe  Fe383     1.0  0.39698  0.80888  0.60582  1.0000
  H   H4480     1.0  0.33281  0.93984  0.63389  1.0000
  C   C2625     1.0  0.38173  0.79161  0.53778  1.0000
  C   C2626     1.0  0.48847  0.73833  0.85281  1.0000
  C   C2627     1.0  0.25664  0.97302  0.70113  1.0000
  H   H4481     1.0  0.33748  0.79391  0.48970  1.0000
  C   C2628     1.0  0.44877  0.77253  0.60754  1.0000
  H   H4482     1.0  0.31370  0.96528  0.51861  1.0000
  H   H4483     1.0  0.40464  0.94273  0.91603  1.0000
  C   C2629     1.0  0.26104  0.97370  0.62337  1.0000
  C   C2630     1.0  0.45914  0.80204  0.84336  1.0000
  H   H4484     1.0  0.33676  0.82525  0.64034  1.0000
  C   C2631     1.0  0.26445  0.79377  0.62081  1.0000
  H   H4485     1.0  0.37869  0.96627  0.65021  1.0000
  C   C2632     1.0  0.41521  0.82268  0.91367  1.0000
  H   H4486     1.0  0.30984  0.98045  0.52719  1.0000
  H   H4487     1.0  0.41924  0.93225  0.93212  1.0000
  H   H4488     1.0  0.26526  0.83278  0.62672  1.0000
  H   H4489     1.0  0.33188  0.97139  0.65045  1.0000
  H   H4490     1.0  0.42640  0.95474  0.92444  1.0000
  S   S775      1.0  0.41101  0.75645  0.96394  1.0000
  H   H4491     1.0  0.42336  0.77050  0.59990  1.0000
  H   H4492     1.0  0.27642  0.97306  0.70774  1.0000
  Fe  Fe384     1.0  0.28280  0.75892  0.57224  1.0000
  C   C2633     1.0  0.42643  0.80283  0.93747  1.0000
  C   C2634     1.0  0.32294  0.86845  0.60723  1.0000
  H   H4493     1.0  0.30141  0.86677  0.59499  1.0000
  H   H4494     1.0  0.34055  0.86362  0.58045  1.0000
  C   C2635     1.0  0.31976  0.92798  0.66669  1.0000
  H   H4495     1.0  0.46333  0.84088  0.73744  1.0000
  C   C2636     1.0  0.32653  0.81154  0.57422  1.0000
  H   H4496     1.0  0.25261  0.96561  0.71127  1.0000
  C   C2637     1.0  0.33637  0.81010  0.58314  1.0000
  H   H4497     1.0  0.47028  0.83155  0.85646  1.0000
  C   C2638     1.0  0.27286  0.98265  0.63723  1.0000
  C   C2639     1.0  0.28867  0.94781  0.66056  1.0000
  C   C2640     1.0  0.44271  0.93012  0.86583  1.0000
  H   H4498     1.0  0.32611  0.82046  0.56452  1.0000
  H   H4499     1.0  0.34591  0.90868  0.82418  1.0000
  H   H4500     1.0  0.32195  0.80893  0.49392  1.0000
  H   H4501     1.0  0.25469  0.92454  0.70179  1.0000
  C   C2641     1.0  0.33586  0.85368  0.58277  1.0000
  S   S776      1.0  0.40966  0.79857  0.62416  1.0000
  C   C2642     1.0  0.40733  0.80311  0.52551  1.0000
  Fe  Fe385     1.0  0.39606  0.81091  0.57392  1.0000
  H   H4502     1.0  0.30258  0.80820  0.51515  1.0000
  C   C2643     1.0  0.27011  0.97727  0.69917  1.0000
  H   H4503     1.0  0.29331  0.96773  0.66378  1.0000
  S   S777      1.0  0.39373  0.96982  0.76992  1.0000
  C   C2644     1.0  0.37077  0.89860  0.84713  1.0000
  H   H4504     1.0  0.34733  0.98016  0.64340  1.0000
  H   H4505     1.0  0.31975  0.87407  0.59655  1.0000
  C   C2645     1.0  0.31109  0.92783  0.65548  1.0000
  H   H4506     1.0  0.35376  0.87509  0.82230  1.0000
  S   S778      1.0  0.37912  0.78770  0.51167  1.0000
  H   H4507     1.0  0.30365  0.84838  0.59235  1.0000
  H   H4508     1.0  0.40527  0.80060  0.50465  1.0000
  C   C2646     1.0  0.43904  0.91525  0.79456  1.0000
  H   H4509     1.0  0.38923  0.97825  0.69496  1.0000
  Fe  Fe386     1.0  0.27328  0.78528  0.54859  1.0000
  H   H4510     1.0  0.30410  0.76579  0.50120  1.0000
  H   H4511     1.0  0.34049  0.81310  0.50255  1.0000
  C   C2647     1.0  0.27828  0.82047  0.59601  1.0000
  H   H4512     1.0  0.31912  0.75006  0.50337  1.0000
  H   H4513     1.0  0.45226  0.94308  0.93182  1.0000
  H   H4514     1.0  0.40797  0.96382  0.73797  1.0000
  C   C2648     1.0  0.30533  0.80263  0.63030  1.0000
  H   H4515     1.0  0.42129  0.95694  0.81734  1.0000
  C   C2649     1.0  0.29622  0.74516  0.51043  1.0000
  H   H4516     1.0  0.28814  0.82934  0.60805  1.0000
  H   H4517     1.0  0.44902  0.76344  0.56584  1.0000
  C   C2650     1.0  0.40547  0.81655  0.92631  1.0000
  C   C2651     1.0  0.42734  0.93607  0.86758  1.0000
  H   H4518     1.0  0.45581  0.80397  0.83273  1.0000
  C   C2652     1.0  0.35315  0.91606  0.82373  1.0000
  S   S779      1.0  0.37326  0.82169  0.61101  1.0000
  S   S780      1.0  0.25542  0.75110  0.49720  1.0000
  C   C2653     1.0  0.40050  0.79926  0.51637  1.0000
  C   C2654     1.0  0.25358  0.89871  0.63558  1.0000
  H   H4519     1.0  0.39357  0.81947  0.92681  1.0000
  H   H4520     1.0  0.27830  0.80973  0.59393  1.0000
  H   H4521     1.0  0.36454  0.88760  0.81056  1.0000
  H   H4522     1.0  0.45451  0.74340  0.89836  1.0000
  C   C2655     1.0  0.33797  0.80208  0.50835  1.0000
  S   S781      1.0  0.49163  0.77822  0.78084  1.0000
  C   C2656     1.0  0.45477  0.91440  0.90274  1.0000
  H   H4523     1.0  0.27819  0.78915  0.63627  1.0000
  C   C2657     1.0  0.26739  0.89740  0.64154  1.0000
  H   H4524     1.0  0.39853  0.89872  0.80545  1.0000
  C   C2658     1.0  0.36440  0.87854  0.82051  1.0000
  H   H4525     1.0  0.37290  0.90620  0.81002  1.0000
  H   H4526     1.0  0.30637  0.79134  0.62892  1.0000
  H   H4527     1.0  0.40164  0.92396  0.83881  1.0000
  H   H4528     1.0  0.44211  0.90345  0.80007  1.0000
  H   H4529     1.0  0.34687  0.84345  0.60053  1.0000
  H   H4530     1.0  0.47621  0.84449  0.74604  1.0000
  H   H4531     1.0  0.43659  0.96014  0.90620  1.0000
  N   N191      1.0  0.43028  0.92567  0.81822  1.0000
  H   H4532     1.0  0.27634  0.79278  0.49451  1.0000
  H   H4533     1.0  0.40463  0.97799  0.56429  1.0000
  C   C2659     1.0  0.36980  0.90821  0.82128  1.0000
  H   H4534     1.0  0.30459  0.75617  0.52950  1.0000
  Fe  Fe387     1.0  0.43082  0.75085  0.97417  1.0000
  H   H4535     1.0  0.43080  0.79522  0.94663  1.0000
  H   H4536     1.0  0.45845  0.76778  0.61292  1.0000
  C   C2660     1.0  0.31722  0.80153  0.57778  1.0000
  H   H4537     1.0  0.35166  0.96867  0.53784  1.0000
  H   H4538     1.0  0.47285  0.76742  0.56439  1.0000
  H   H4539     1.0  0.39299  0.87599  0.83476  1.0000
  H   H4540     1.0  0.37638  0.91635  0.82066  1.0000
  C   C2661     1.0  0.25925  0.76377  0.50468  1.0000
  C   C2662     1.0  0.24688  0.93177  0.72700  1.0000
  H   H4541     1.0  0.32491  0.85691  0.57974  1.0000
  H   H4542     1.0  0.34921  0.79452  0.50730  1.0000
  S   S782      1.0  0.39137  0.79396  0.59498  1.0000
  C   C2663     1.0  0.26421  0.82116  0.62845  1.0000
  H   H4543     1.0  0.48679  0.82212  0.86308  1.0000
  C   C2664     1.0  0.32481  0.94983  0.62954  1.0000
  H   H4544     1.0  0.28844  0.79011  0.61764  1.0000
  H   H4545     1.0  0.45153  0.91779  0.93506  1.0000
  H   H4546     1.0  0.32274  0.79021  0.50476  1.0000
  C   C2665     1.0  0.47766  0.78423  0.72988  1.0000
  H   H4547     1.0  0.42804  0.91700  0.92412  1.0000
  C   C2666     1.0  0.47500  0.80040  0.88222  1.0000
  N   N192      1.0  0.27924  0.81137  0.62376  1.0000
  C   C2667     1.0  0.31778  0.79002  0.59031  1.0000
  H   H4548     1.0  0.39142  0.88274  0.80694  1.0000
  H   H4549     1.0  0.42297  0.94760  0.86801  1.0000
  H   H4550     1.0  0.35303  0.88657  0.84043  1.0000
  Fe  Fe388     1.0  0.30741  0.97795  0.69838  1.0000
  H   H4551     1.0  0.42845  0.93383  0.83757  1.0000
  H   H4552     1.0  0.41080  0.92424  0.81182  1.0000
  H   H4553     1.0  0.29369  0.82330  0.52403  1.0000
  H   H4554     1.0  0.27738  0.89746  0.63227  1.0000
  C   C2668     1.0  0.27063  0.78426  0.50162  1.0000
  C   C2669     1.0  0.46466  0.77697  0.55963  1.0000
  H   H4555     1.0  0.42475  0.79611  0.57659  1.0000
  H   H4556     1.0  0.48581  0.79223  0.88158  1.0000
  C   C2670     1.0  0.39344  0.96666  0.70052  1.0000
  H   H4557     1.0  0.39140  0.93907  0.82743  1.0000
  H   H4558     1.0  0.40901  0.88051  0.81110  1.0000
  H   H4559     1.0  0.32388  0.93816  0.66447  1.0000
  C   C2671     1.0  0.35500  0.97721  0.51369  1.0000
  C   C2672     1.0  0.38829  0.79585  0.54682  1.0000
  C   C2673     1.0  0.36833  0.97154  0.67152  1.0000
  H   H4560     1.0  0.35403  0.81903  0.51463  1.0000
  H   H4561     1.0  0.48296  0.82518  0.79413  1.0000
  S   S783      1.0  0.45534  0.94053  0.86544  1.0000
  H   H4562     1.0  0.44666  0.93089  0.82650  1.0000
  C   C2674     1.0  0.44345  0.80435  0.57597  1.0000
  H   H4563     1.0  0.43865  0.93709  0.79593  1.0000
  C   C2675     1.0  0.36477  0.88305  0.83448  1.0000
  C   C2676     1.0  0.40247  0.93438  0.83038  1.0000
  C   C2677     1.0  0.43056  0.76726  0.58952  1.0000
  Fe  Fe389     1.0  0.36815  0.80810  0.59835  1.0000
  H   H4564     1.0  0.46368  0.74271  0.91268  1.0000
  N   N193      1.0  0.37388  0.89424  0.83253  1.0000
  H   H4565     1.0  0.46285  0.77804  0.58637  1.0000
  C   C2678     1.0  0.43471  0.93491  0.82587  1.0000
  C   C2679     1.0  0.41441  0.93180  0.81626  1.0000
  H   H4566     1.0  0.31913  0.92236  0.64674  1.0000
  C   C2680     1.0  0.38773  0.79338  0.52251  1.0000
  H   H4567     1.0  0.34343  0.81790  0.58032  1.0000
  H   H4568     1.0  0.42828  0.79377  0.59412  1.0000
  C   C2681     1.0  0.32750  0.78872  0.59939  1.0000
  H   H4569     1.0  0.37374  0.86906  0.81817  1.0000
  H   H4570     1.0  0.32175  0.94827  0.61992  1.0000
  C   C2682     1.0  0.25991  0.77167  0.52612  1.0000
  H   H4571     1.0  0.34936  0.73879  0.48279  1.0000
  S   S784      1.0  0.39842  0.79861  0.95351  1.0000
  C   C2683     1.0  0.39040  0.88761  0.82845  1.0000
  H   H4572     1.0  0.25639  0.82201  0.62158  1.0000
  H   H4573     1.0  0.26755  0.78361  0.61641  1.0000
  H   H4574     1.0  0.44117  0.78236  0.55910  1.0000
  Fe  Fe390     1.0  0.38448  0.79345  0.48662  1.0000
  H   H4575     1.0  0.32996  0.91899  0.66606  1.0000
  C   C2684     1.0  0.31903  0.97191  0.52249  1.0000
  H   H4576     1.0  0.35153  0.92554  0.81421  1.0000
  H   H4577     1.0  0.45203  0.90597  0.91295  1.0000
  C   C2685     1.0  0.26188  0.97589  0.63676  1.0000
  H   H4578     1.0  0.36934  0.87725  0.86316  1.0000
  C   C2686     1.0  0.43390  0.79263  0.58262  1.0000
  H   H4579     1.0  0.42767  0.91772  0.79253  1.0000
  H   H4580     1.0  0.29777  0.81158  0.60466  1.0000
  H   H4581     1.0  0.33758  0.97843  0.66261  1.0000
  H   H4582     1.0  0.25568  0.93652  0.71827  1.0000
  C   C2687     1.0  0.44499  0.97280  0.56265  1.0000
  H   H4583     1.0  0.47152  0.97222  0.57642  1.0000
  H   H4584     1.0  0.24534  0.93659  0.73664  1.0000
  H   H4585     1.0  0.39816  0.96777  0.83861  1.0000
  H   H4586     1.0  0.44835  0.98253  0.58317  1.0000
  C   C2688     1.0  0.47778  0.97644  0.56523  1.0000
  H   H4587     1.0  0.24856  0.90915  0.68978  1.0000
  H   H4588     1.0  0.40576  0.96488  0.69823  1.0000
  C   C2689     1.0  0.47891  0.79103  0.71486  1.0000
  H   H4589     1.0  0.25447  0.90678  0.62486  1.0000
  C   C2690     1.0  0.24519  0.92134  0.68599  1.0000
  H   H4590     1.0  0.46984  0.74849  0.81356  1.0000
  H   H4591     1.0  0.29015  0.74358  0.50290  1.0000
  C   C2691     1.0  0.49098  0.83086  0.83993  1.0000
  H   H4592     1.0  0.35966  0.97966  0.69154  1.0000
  H   H4593     1.0  0.25091  0.74230  0.58854  1.0000
  C   C2692     1.0  0.47498  0.73870  0.80852  1.0000
  C   C2693     1.0  0.24512  0.74489  0.61728  1.0000
  C   C2694     1.0  0.48827  0.78440  0.73734  1.0000
  H   H4594     1.0  0.48799  0.78214  0.84203  1.0000
  H   H4595     1.0  0.48755  0.83129  0.82979  1.0000
  C   C2695     1.0  0.36523  0.98203  0.68004  1.0000
  H   H4596     1.0  0.47838  0.81095  0.83065  1.0000
  H   H4597     1.0  0.31071  0.74452  0.54562  1.0000
  Fe  Fe391     1.0  0.39898  0.97926  0.78616  1.0000
  C   C2696     1.0  0.49317  0.79827  0.85087  1.0000
  S   S785      1.0  0.48679  0.80839  0.66448  1.0000
  H   H4598     1.0  0.24676  0.85631  0.69384  1.0000
  H   H4599     1.0  0.41040  0.98087  0.84899  1.0000
  H   H4600     1.0  0.47048  0.87010  0.69188  1.0000
  H   H4601     1.0  0.48774  0.86090  0.72860  1.0000
  H   H4602     1.0  0.34316  0.98003  0.76314  1.0000
  H   H4603     1.0  0.24737  0.88887  0.66518  1.0000
  H   H4604     1.0  0.47410  0.84509  0.70602  1.0000
  C   C2697     1.0  0.48097  0.86573  0.69599  1.0000
  C   C2698     1.0  0.48712  0.83188  0.72839  1.0000
  H   H4605     1.0  0.48308  0.87506  0.69907  1.0000
  H   H4606     1.0  0.48374  0.82403  0.72405  1.0000
  C   C2699     1.0  0.49098  0.79765  0.70723  1.0000
  H   H4607     1.0  0.45428  0.98231  0.74397  1.0000
  S   S786      1.0  0.42269  0.98157  0.74633  1.0000
  H   H4608     1.0  0.43896  0.73360  0.85677  1.0000
  Fe  Fe392     1.0  0.51156  0.11358  0.16244  1.0000
  H   H4609     1.0  0.67751  0.03841  0.06259  1.0000
  S   S787      1.0  0.53215  0.10615  0.17196  1.0000
  H   H4610     1.0  0.68172  0.98922  0.37498  1.0000
  S   S788      1.0  0.70199  0.02129  0.46653  1.0000
  H   H4611     1.0  0.52836  0.01970  0.42922  1.0000
  Fe  Fe393     1.0  0.51260  0.04642  0.24851  1.0000
  C   C2700     1.0  0.55408  0.22230  0.12866  1.0000
  S   S789      1.0  0.52901  0.06008  0.24678  1.0000
  H   H4612     1.0  0.63134  0.04471  0.10162  1.0000
  S   S790      1.0  0.69930  0.04414  0.12412  1.0000
  H   H4613     1.0  0.62774  0.06513  0.08462  1.0000
  H   H4614     1.0  0.53411  0.98964  0.26681  1.0000
  S   S791      1.0  0.51687  0.02170  0.25513  1.0000
  H   H4615     1.0  0.52652  0.01915  0.33595  1.0000
  Fe  Fe394     1.0  0.52010  0.00601  0.37375  1.0000
  S   S792      1.0  0.50292  0.02625  0.37875  1.0000
  C   C2701     1.0  0.63685  0.13647  0.99357  1.0000
  H   H4616     1.0  0.53522  0.07399  0.37153  1.0000
  H   H4617     1.0  0.67870  0.12024  0.01848  1.0000
  H   H4618     1.0  0.62623  0.16458  0.99841  1.0000
  H   H4619     1.0  0.50403  0.02224  0.17258  1.0000
  S   S793      1.0  0.50778  0.00102  0.35978  1.0000
  H   H4620     1.0  0.68101  0.00316  0.16138  1.0000
  C   C2702     1.0  0.53306  0.15031  0.13324  1.0000
  H   H4621     1.0  0.54340  0.99968  0.32783  1.0000
  C   C2703     1.0  0.64247  0.11942  0.99665  1.0000
  S   S794      1.0  0.51060  0.99052  0.39419  1.0000
  C   C2704     1.0  0.63631  0.20687  0.98178  1.0000
  H   H4622     1.0  0.71155  0.08858  0.02614  1.0000
  H   H4623     1.0  0.67728  0.22422  0.09344  1.0000
  H   H4624     1.0  0.50936  0.01945  0.43014  1.0000
  C   C2705     1.0  0.55046  0.98834  0.43075  1.0000
  H   H4625     1.0  0.66593  0.05082  0.17355  1.0000
  Fe  Fe395     1.0  0.72673  0.01837  0.45794  1.0000
  S   S795      1.0  0.72510  0.03923  0.44043  1.0000
  H   H4626     1.0  0.54503  0.22935  0.13528  1.0000
  Fe  Fe396     1.0  0.72678  0.04975  0.45764  1.0000
  H   H4627     1.0  0.71266  0.00332  0.39795  1.0000
  Fe  Fe397     1.0  0.70050  0.04297  0.45002  1.0000
  S   S796      1.0  0.68534  0.05185  0.43363  1.0000
  N   N194      1.0  0.53531  0.98575  0.43158  1.0000
  H   H4628     1.0  0.50431  0.98696  0.44621  1.0000
  Fe  Fe398     1.0  0.60254  0.01903  0.39769  1.0000
  S   S797      1.0  0.61008  0.03817  0.40003  1.0000
  S   S798      1.0  0.57833  0.01713  0.40643  1.0000
  Fe  Fe399     1.0  0.63323  0.00657  0.38021  1.0000
  S   S799      1.0  0.64334  0.02486  0.38056  1.0000
  H   H4629     1.0  0.61651  0.20681  0.99926  1.0000
  Fe  Fe400     1.0  0.63126  0.02180  0.40452  1.0000
  S   S800      1.0  0.64204  0.01744  0.42406  1.0000
  Fe  Fe401     1.0  0.62144  0.03969  0.37605  1.0000
  S   S801      1.0  0.61654  0.06079  0.35902  1.0000
  S   S802      1.0  0.62251  0.00243  0.40433  1.0000
  S   S803      1.0  0.61259  0.02160  0.37357  1.0000
  Fe  Fe402     1.0  0.71488  0.18910  0.10287  1.0000
  C   C2706     1.0  0.66295  0.07364  0.46230  1.0000
  S   S804      1.0  0.70302  0.19640  0.12408  1.0000
  H   H4630     1.0  0.73016  0.22603  0.15332  1.0000
  H   H4631     1.0  0.55813  0.08371  0.35687  1.0000
  S   S805      1.0  0.70805  0.17248  0.09541  1.0000
  Fe  Fe403     1.0  0.61422  0.12829  0.16350  1.0000
  S   S806      1.0  0.59612  0.13048  0.15197  1.0000
  S   S807      1.0  0.62430  0.10588  0.17594  1.0000
  Fe  Fe404     1.0  0.61678  0.16048  0.15071  1.0000
  S   S808      1.0  0.59817  0.16548  0.13901  1.0000
  S   S809      1.0  0.63216  0.17630  0.14379  1.0000
  Fe  Fe405     1.0  0.58664  0.15177  0.15965  1.0000
  S   S810      1.0  0.56177  0.15833  0.16810  1.0000
  Fe  Fe406     1.0  0.60916  0.14388  0.13254  1.0000
  S   S811      1.0  0.61377  0.14332  0.10868  1.0000
  S   S812      1.0  0.60415  0.14903  0.17229  1.0000
  S   S813      1.0  0.62835  0.13943  0.14317  1.0000
  Fe  Fe407     1.0  0.60043  0.04069  0.27062  1.0000
  S   S814      1.0  0.59885  0.06010  0.27982  1.0000
  H   H4632     1.0  0.57585  0.00091  0.36344  1.0000
  H   H4633     1.0  0.64295  0.04235  0.17062  1.0000
  H   H4634     1.0  0.69169  0.01574  0.41564  1.0000
  Fe  Fe408     1.0  0.62336  0.05098  0.27922  1.0000
  S   S815      1.0  0.63740  0.04525  0.29602  1.0000
  Fe  Fe409     1.0  0.60655  0.07078  0.25589  1.0000
  S   S816      1.0  0.59590  0.09334  0.24454  1.0000
  S   S817      1.0  0.60629  0.05194  0.24683  1.0000
  Fe  Fe410     1.0  0.69133  0.06540  0.07075  1.0000
  C   C2707     1.0  0.74475  0.19302  0.12712  1.0000
  S   S818      1.0  0.69842  0.05820  0.04906  1.0000
  Fe  Fe411     1.0  0.66444  0.07535  0.09390  1.0000
  S   S819      1.0  0.67791  0.08091  0.10625  1.0000
  S   S820      1.0  0.63990  0.07717  0.10278  1.0000
  Fe  Fe412     1.0  0.69073  0.09051  0.08397  1.0000
  H   H4635     1.0  0.57606  0.04979  0.40243  1.0000
  Fe  Fe413     1.0  0.69337  0.05920  0.10301  1.0000
  S   S821      1.0  0.67544  0.08714  0.07194  1.0000
  S   S822      1.0  0.67902  0.05316  0.09190  1.0000
  C   C2708     1.0  0.69266  0.11978  0.03919  1.0000
  C   C2709     1.0  0.61669  0.10271  0.19507  1.0000
  C   C2710     1.0  0.62209  0.08931  0.20423  1.0000
  C   C2711     1.0  0.61588  0.08647  0.21946  1.0000
  C   C2712     1.0  0.60423  0.09702  0.22560  1.0000
  C   C2713     1.0  0.59884  0.11041  0.21645  1.0000
  C   C2714     1.0  0.60500  0.11321  0.20120  1.0000
  H   H4636     1.0  0.63116  0.08115  0.19961  1.0000
  H   H4637     1.0  0.62022  0.07616  0.22645  1.0000
  H   H4638     1.0  0.58982  0.11858  0.22114  1.0000
  H   H4639     1.0  0.60054  0.12343  0.19423  1.0000
  C   C2715     1.0  0.62022  0.12500  0.10662  1.0000
  C   C2716     1.0  0.61505  0.11352  0.11765  1.0000
  C   C2717     1.0  0.62064  0.09883  0.11613  1.0000
  C   C2718     1.0  0.63181  0.09559  0.10386  1.0000
  C   C2719     1.0  0.63700  0.10707  0.09284  1.0000
  C   C2720     1.0  0.63099  0.12180  0.09408  1.0000
  H   H4640     1.0  0.60662  0.11595  0.12727  1.0000
  H   H4641     1.0  0.61662  0.08997  0.12467  1.0000
  H   H4642     1.0  0.64556  0.10462  0.08330  1.0000
  H   H4643     1.0  0.63499  0.13067  0.08554  1.0000
  C   C2721     1.0  0.71503  0.16353  0.03371  1.0000
  H   H4644     1.0  0.56484  0.02998  0.31483  1.0000
  C   C2722     1.0  0.50632  0.02492  0.11619  1.0000
  H   H4645     1.0  0.52420  0.08919  0.22726  1.0000
  S   S823      1.0  0.63091  0.06368  0.25623  1.0000
  H   H4646     1.0  0.56314  0.99766  0.43989  1.0000
  H   H4647     1.0  0.65872  0.21395  0.11407  1.0000
  C   C2723     1.0  0.71808  0.23346  0.00917  1.0000
  C   C2724     1.0  0.49860  0.01665  0.09175  1.0000
  H   H4648     1.0  0.50784  0.04352  0.09101  1.0000
  C   C2725     1.0  0.66903  0.00907  0.33334  1.0000
  C   C2726     1.0  0.65910  0.00575  0.34691  1.0000
  H   H4649     1.0  0.55232  0.05700  0.35766  1.0000
  H   H4650     1.0  0.65364  0.01416  0.35320  1.0000
  C   C2727     1.0  0.62223  0.05704  0.34125  1.0000
  C   C2728     1.0  0.61519  0.06594  0.32980  1.0000
  C   C2729     1.0  0.61939  0.06233  0.31584  1.0000
  C   C2730     1.0  0.63114  0.05025  0.31319  1.0000
  C   C2731     1.0  0.63837  0.04170  0.32451  1.0000
  C   C2732     1.0  0.63371  0.04485  0.33858  1.0000
  H   H4651     1.0  0.60647  0.07556  0.33173  1.0000
  H   H4652     1.0  0.61391  0.06910  0.30705  1.0000
  H   H4653     1.0  0.64762  0.03257  0.32235  1.0000
  H   H4654     1.0  0.63932  0.03812  0.34727  1.0000
  H   H4655     1.0  0.66736  0.07432  0.05327  1.0000
  H   H4656     1.0  0.58488  0.08524  0.35266  1.0000
  H   H4657     1.0  0.68847  0.05853  0.16925  1.0000
  C   C2733     1.0  0.66361  0.02646  0.08187  1.0000
  C   C2734     1.0  0.51243  0.03336  0.12377  1.0000
  H   H4658     1.0  0.66688  0.08324  0.46285  1.0000
  C   C2735     1.0  0.64582  0.99379  0.22152  1.0000
  H   H4659     1.0  0.51704  0.98785  0.27997  1.0000
  N   N195      1.0  0.74176  0.20691  0.13275  1.0000
  C   C2736     1.0  0.67343  0.04209  0.43108  1.0000
  C   C2737     1.0  0.66534  0.04851  0.41989  1.0000
  C   C2738     1.0  0.65589  0.04101  0.41738  1.0000
  C   C2739     1.0  0.65424  0.02712  0.42626  1.0000
  C   C2740     1.0  0.66225  0.02076  0.43753  1.0000
  C   C2741     1.0  0.67192  0.02814  0.43986  1.0000
  H   H4660     1.0  0.66645  0.05932  0.41305  1.0000
  H   H4661     1.0  0.64973  0.04604  0.40872  1.0000
  H   H4662     1.0  0.66103  0.01001  0.44444  1.0000
  H   H4663     1.0  0.67820  0.02300  0.44838  1.0000
  C   C2742     1.0  0.66517  0.06274  0.16813  1.0000
  C   C2743     1.0  0.63321  0.06255  0.07365  1.0000
  H   H4664     1.0  0.71801  0.02214  0.15170  1.0000
  C   C2744     1.0  0.69270  0.21465  0.12054  1.0000
  C   C2745     1.0  0.67846  0.21860  0.12929  1.0000
  C   C2746     1.0  0.50796  0.00244  0.21148  1.0000
  H   H4665     1.0  0.69600  0.08948  0.01304  1.0000
  H   H4666     1.0  0.70950  0.22228  0.10201  1.0000
  H   H4667     1.0  0.67409  0.21056  0.13867  1.0000
  H   H4668     1.0  0.50869  0.18338  0.07262  1.0000
  C   C2747     1.0  0.61986  0.21684  0.16373  1.0000
  C   C2748     1.0  0.61278  0.20502  0.17100  1.0000
  C   C2749     1.0  0.61667  0.19224  0.16522  1.0000
  C   C2750     1.0  0.62777  0.19128  0.15232  1.0000
  C   C2751     1.0  0.63542  0.20271  0.14567  1.0000
  C   C2752     1.0  0.63140  0.21550  0.15126  1.0000
  H   H4669     1.0  0.60403  0.20591  0.18083  1.0000
  H   H4670     1.0  0.61107  0.18321  0.17068  1.0000
  H   H4671     1.0  0.64445  0.20166  0.13616  1.0000
  H   H4672     1.0  0.64729  0.01696  0.06338  1.0000
  H   H4673     1.0  0.60086  0.00895  0.34482  1.0000
  H   H4674     1.0  0.71906  0.16942  0.05180  1.0000
  S   S824      1.0  0.68123  0.16933  0.98503  1.0000
  C   C2753     1.0  0.56411  0.07803  0.36600  1.0000
  C   C2754     1.0  0.55400  0.01016  0.37518  1.0000
  H   H4675     1.0  0.71273  0.02018  0.38488  1.0000
  C   C2755     1.0  0.57727  0.00856  0.38185  1.0000
  C   C2756     1.0  0.56926  0.01492  0.39390  1.0000
  C   C2757     1.0  0.55366  0.01933  0.39625  1.0000
  C   C2758     1.0  0.54604  0.01700  0.38690  1.0000
  H   H4676     1.0  0.56215  0.15558  0.12620  1.0000
  C   C2759     1.0  0.65658  0.99145  0.35250  1.0000
  H   H4677     1.0  0.54745  0.02451  0.40540  1.0000
  H   H4678     1.0  0.53398  0.02034  0.38883  1.0000
  C   C2760     1.0  0.54415  0.05083  0.25534  1.0000
  C   C2761     1.0  0.55305  0.05901  0.25753  1.0000
  C   C2762     1.0  0.56516  0.05182  0.26434  1.0000
  C   C2763     1.0  0.56820  0.03642  0.26929  1.0000
  C   C2764     1.0  0.55930  0.02824  0.26714  1.0000
  C   C2765     1.0  0.54743  0.03542  0.26005  1.0000
  H   H4679     1.0  0.55050  0.07095  0.25416  1.0000
  H   H4680     1.0  0.57195  0.05823  0.26603  1.0000
  H   H4681     1.0  0.56175  0.01631  0.27074  1.0000
  H   H4682     1.0  0.54095  0.02895  0.25815  1.0000
  H   H4683     1.0  0.63691  0.01712  0.11144  1.0000
  H   H4684     1.0  0.68711  0.00109  0.11628  1.0000
  C   C2766     1.0  0.72363  0.21771  0.15480  1.0000
  H   H4685     1.0  0.62557  0.05860  0.06962  1.0000
  H   H4686     1.0  0.64906  0.20271  0.11011  1.0000
  C   C2767     1.0  0.53983  0.06286  0.37779  1.0000
  H   H4687     1.0  0.63727  0.14017  0.00335  1.0000
  H   H4688     1.0  0.49907  0.03963  0.16068  1.0000
  C   C2768     1.0  0.63729  0.03988  0.46830  1.0000
  C   C2769     1.0  0.52268  0.02471  0.32547  1.0000
  C   C2770     1.0  0.63718  0.02934  0.08101  1.0000
  H   H4689     1.0  0.70138  0.99477  0.22323  1.0000
  C   C2771     1.0  0.53970  0.12054  0.17265  1.0000
  C   C2772     1.0  0.53131  0.13508  0.17147  1.0000
  C   C2773     1.0  0.53788  0.14655  0.17103  1.0000
  C   C2774     1.0  0.55296  0.14356  0.17151  1.0000
  C   C2775     1.0  0.56101  0.12888  0.17384  1.0000
  C   C2776     1.0  0.55442  0.11740  0.17431  1.0000
  H   H4690     1.0  0.51986  0.13761  0.17060  1.0000
  H   H4691     1.0  0.53140  0.15781  0.16978  1.0000
  H   H4692     1.0  0.57233  0.12636  0.17523  1.0000
  H   H4693     1.0  0.56089  0.10616  0.17544  1.0000
  C   C2777     1.0  0.52539  0.99966  0.42482  1.0000
  N   N196      1.0  0.72944  0.98965  0.15976  1.0000
  H   H4694     1.0  0.63434  0.11402  0.99507  1.0000
  H   H4695     1.0  0.71351  0.03493  0.97992  1.0000
  H   H4696     1.0  0.71931  0.21407  0.16686  1.0000
  H   H4697     1.0  0.50626  0.02383  0.08465  1.0000
  H   H4698     1.0  0.66447  0.20127  0.07889  1.0000
  C   C2778     1.0  0.68146  0.06427  0.16101  1.0000
  H   H4699     1.0  0.66318  0.21970  0.05769  1.0000
  H   H4700     1.0  0.60420  0.99538  0.30262  1.0000
  H   H4701     1.0  0.68117  0.13748  0.98553  1.0000
  H   H4702     1.0  0.69504  0.02504  0.10787  1.0000
  C   C2779     1.0  0.71560  0.99319  0.17151  1.0000
  H   H4703     1.0  0.64287  0.03679  0.05646  1.0000
  C   C2780     1.0  0.51046  0.99166  0.19080  1.0000
  S   S825      1.0  0.73580  0.17720  0.06599  1.0000
  H   H4704     1.0  0.68951  0.02682  0.15302  1.0000
  H   H4705     1.0  0.70158  0.12886  0.00777  1.0000
  H   H4706     1.0  0.65369  0.05600  0.12742  1.0000
  C   C2781     1.0  0.59344  0.23119  0.13824  1.0000
  H   H4707     1.0  0.73394  0.10895  0.10147  1.0000
  H   H4708     1.0  0.52455  0.04824  0.31424  1.0000
  H   H4709     1.0  0.65581  0.01768  0.11121  1.0000
  C   C2782     1.0  0.50319  0.11152  0.23758  1.0000
  H   H4710     1.0  0.68382  0.17809  0.01974  1.0000
  H   H4711     1.0  0.72077  0.11744  0.99213  1.0000
  N   N197      1.0  0.72278  0.01841  0.40299  1.0000
  H   H4712     1.0  0.62167  0.18002  0.98390  1.0000
  H   H4713     1.0  0.72253  0.01260  0.17434  1.0000
  Fe  Fe414     1.0  0.63005  0.04390  0.24909  1.0000
  H   H4714     1.0  0.70064  0.05448  0.02003  1.0000
  C   C2783     1.0  0.52063  0.03785  0.29250  1.0000
  C   C2784     1.0  0.51828  0.08760  0.20816  1.0000
  S   S826      1.0  0.69465  0.11364  0.07550  1.0000
  H   H4715     1.0  0.67814  0.10366  0.03240  1.0000
  H   H4716     1.0  0.56172  0.01180  0.32312  1.0000
  C   C2785     1.0  0.68792  0.18419  0.03783  1.0000
  Fe  Fe415     1.0  0.71149  0.18745  0.07299  1.0000
  C   C2786     1.0  0.68219  0.13506  0.03541  1.0000
  H   H4717     1.0  0.66960  0.01690  0.21331  1.0000
  C   C2787     1.0  0.64808  0.05721  0.13889  1.0000
  C   C2788     1.0  0.61545  0.98874  0.35226  1.0000
  H   H4718     1.0  0.65587  0.05689  0.07645  1.0000
  C   C2789     1.0  0.62086  0.20901  0.98744  1.0000
  H   H4719     1.0  0.54510  0.03726  0.30233  1.0000
  H   H4720     1.0  0.55550  0.02018  0.29864  1.0000
  H   H4721     1.0  0.63504  0.07319  0.06598  1.0000
  H   H4722     1.0  0.71254  0.04127  0.40425  1.0000
  N   N198      1.0  0.56840  0.06156  0.36692  1.0000
  C   C2790     1.0  0.57890  0.05900  0.35250  1.0000
  C   C2791     1.0  0.57656  0.05341  0.37916  1.0000
  C   C2792     1.0  0.58275  0.04312  0.34995  1.0000
  C   C2793     1.0  0.57709  0.08567  0.36354  1.0000
  H   H4723     1.0  0.57436  0.06654  0.34293  1.0000
  H   H4724     1.0  0.58975  0.06165  0.35150  1.0000
  H   H4725     1.0  0.55692  0.04353  0.37335  1.0000
  H   H4726     1.0  0.57940  0.04132  0.37988  1.0000
  H   H4727     1.0  0.58750  0.05650  0.37680  1.0000
  H   H4728     1.0  0.57294  0.03986  0.34884  1.0000
  H   H4729     1.0  0.59125  0.04269  0.33946  1.0000
  H   H4730     1.0  0.58775  0.03480  0.35871  1.0000
  H   H4731     1.0  0.57243  0.09757  0.36363  1.0000
  H   H4732     1.0  0.58342  0.08104  0.37243  1.0000
  H   H4733     1.0  0.56516  0.06730  0.39558  1.0000
  H   H4734     1.0  0.51524  0.07680  0.21381  1.0000
  C   C2794     1.0  0.64845  0.05155  0.07359  1.0000
  H   H4735     1.0  0.71835  0.09998  0.00363  1.0000
  S   S827      1.0  0.51451  0.22832  0.13284  1.0000
  H   H4736     1.0  0.51566  0.02132  0.10714  1.0000
  H   H4737     1.0  0.68676  0.14190  0.02468  1.0000
  H   H4738     1.0  0.58479  0.22426  0.12398  1.0000
  H   H4739     1.0  0.73692  0.00733  0.37548  1.0000
  H   H4740     1.0  0.61907  0.00482  0.29741  1.0000
  H   H4741     1.0  0.53652  0.16085  0.11034  1.0000
  H   H4742     1.0  0.62833  0.02726  0.06343  1.0000
  H   H4743     1.0  0.73825  0.99719  0.13642  1.0000
  S   S828      1.0  0.58287  0.02730  0.27842  1.0000
  H   H4744     1.0  0.72479  0.19723  0.14986  1.0000
  N   N199      1.0  0.57230  0.21647  0.14603  1.0000
  C   C2795     1.0  0.56432  0.21057  0.13820  1.0000
  C   C2796     1.0  0.58355  0.20359  0.15236  1.0000
  C   C2797     1.0  0.71341  0.99608  0.33458  1.0000
  H   H4745     1.0  0.62541  0.03518  0.08469  1.0000
  C   C2798     1.0  0.69183  0.02041  0.11955  1.0000
  C   C2799     1.0  0.57703  0.19123  0.16423  1.0000
  H   H4746     1.0  0.62303  0.98504  0.30115  1.0000
  C   C2800     1.0  0.72267  0.03474  0.39798  1.0000
  H   H4747     1.0  0.57252  0.20355  0.13081  1.0000
  H   H4748     1.0  0.55708  0.20329  0.14624  1.0000
  H   H4749     1.0  0.59053  0.20717  0.15745  1.0000
  H   H4750     1.0  0.59166  0.19847  0.14340  1.0000
  S   S829      1.0  0.74100  0.99673  0.45307  1.0000
  H   H4751     1.0  0.51637  0.09110  0.25019  1.0000
  H   H4752     1.0  0.50366  0.06374  0.16251  1.0000
  C   C2801     1.0  0.51294  0.17721  0.06371  1.0000
  H   H4753     1.0  0.67289  0.06574  0.45786  1.0000
  H   H4754     1.0  0.64023  0.02733  0.12251  1.0000
  H   H4755     1.0  0.65360  0.11528  0.99015  1.0000
  H   H4756     1.0  0.56945  0.19535  0.17394  1.0000
  H   H4757     1.0  0.57121  0.18567  0.15971  1.0000
  H   H4758     1.0  0.58630  0.18259  0.16830  1.0000
  C   C2802     1.0  0.68384  0.00031  0.13943  1.0000
  H   H4759     1.0  0.72984  0.22659  0.03882  1.0000
  C   C2803     1.0  0.65235  0.21961  0.06584  1.0000
  H   H4760     1.0  0.65654  0.15358  0.99065  1.0000
  H   H4761     1.0  0.63735  0.22428  0.14601  1.0000
  H   H4762     1.0  0.74087  0.21399  0.10106  1.0000
  N   N200      1.0  0.68244  0.03210  0.26074  1.0000
  C   C2804     1.0  0.68251  0.04498  0.26668  1.0000
  C   C2805     1.0  0.69518  0.01964  0.26498  1.0000
  C   C2806     1.0  0.66761  0.02765  0.26794  1.0000
  C   C2807     1.0  0.68416  0.03716  0.24420  1.0000
  C   C2808     1.0  0.66965  0.05867  0.26431  1.0000
  C   C2809     1.0  0.71093  0.02299  0.25914  1.0000
  C   C2810     1.0  0.66731  0.01128  0.27027  1.0000
  C   C2811     1.0  0.68772  0.02505  0.23544  1.0000
  H   H4763     1.0  0.68213  0.04145  0.27880  1.0000
  H   H4764     1.0  0.69298  0.04908  0.26152  1.0000
  H   H4765     1.0  0.69570  0.00965  0.26117  1.0000
  H   H4766     1.0  0.69339  0.01608  0.27723  1.0000
  H   H4767     1.0  0.66343  0.02988  0.27926  1.0000
  H   H4768     1.0  0.65883  0.03441  0.26177  1.0000
  H   H4769     1.0  0.67381  0.04500  0.24138  1.0000
  H   H4770     1.0  0.69314  0.04351  0.23935  1.0000
  H   H4771     1.0  0.67051  0.06707  0.26971  1.0000
  H   H4772     1.0  0.67027  0.06393  0.25244  1.0000
  H   H4773     1.0  0.65852  0.05605  0.26941  1.0000
  H   H4774     1.0  0.71340  0.02752  0.24707  1.0000
  H   H4775     1.0  0.71265  0.03048  0.26507  1.0000
  H   H4776     1.0  0.71936  0.01250  0.26124  1.0000
  H   H4777     1.0  0.67233  0.00453  0.27976  1.0000
  H   H4778     1.0  0.67313  0.00667  0.26047  1.0000
  H   H4779     1.0  0.65555  0.01014  0.27294  1.0000
  H   H4780     1.0  0.69853  0.01720  0.23649  1.0000
  H   H4781     1.0  0.68867  0.03037  0.22353  1.0000
  H   H4782     1.0  0.67866  0.01902  0.23850  1.0000
  N   N201      1.0  0.66593  0.14537  0.10450  1.0000
  C   C2812     1.0  0.68110  0.13969  0.10830  1.0000
  C   C2813     1.0  0.66818  0.14955  0.08790  1.0000
  C   C2814     1.0  0.65675  0.13374  0.11045  1.0000
  C   C2815     1.0  0.65776  0.15843  0.11141  1.0000
  C   C2816     1.0  0.68127  0.13284  0.12473  1.0000
  C   C2817     1.0  0.67437  0.16359  0.08019  1.0000
  C   C2818     1.0  0.66351  0.11932  0.10487  1.0000
  C   C2819     1.0  0.64245  0.16668  0.10759  1.0000
  H   H4783     1.0  0.68816  0.13122  0.10205  1.0000
  H   H4784     1.0  0.65771  0.15079  0.08433  1.0000
  H   H4785     1.0  0.67611  0.14048  0.08290  1.0000
  H   H4786     1.0  0.65444  0.13072  0.12269  1.0000
  H   H4787     1.0  0.64558  0.13812  0.10765  1.0000
  H   H4788     1.0  0.65539  0.15492  0.12367  1.0000
  H   H4789     1.0  0.66483  0.16655  0.10905  1.0000
  H   H4790     1.0  0.69305  0.12964  0.12596  1.0000
  H   H4791     1.0  0.67515  0.14076  0.13191  1.0000
  H   H4792     1.0  0.67623  0.16502  0.06805  1.0000
  H   H4793     1.0  0.66640  0.17368  0.08311  1.0000
  H   H4794     1.0  0.68532  0.16275  0.08255  1.0000
  H   H4795     1.0  0.65610  0.11143  0.11053  1.0000
  H   H4796     1.0  0.67469  0.11388  0.10729  1.0000
  H   H4797     1.0  0.66410  0.12121  0.09288  1.0000
  H   H4798     1.0  0.63327  0.16196  0.11574  1.0000
  H   H4799     1.0  0.64161  0.16652  0.09648  1.0000
  H   H4800     1.0  0.64045  0.17853  0.10782  1.0000
  H   H4801     1.0  0.68734  0.14870  0.10489  1.0000
  H   H4802     1.0  0.70909  0.02207  0.42451  1.0000
  C   C2820     1.0  0.61103  0.21401  0.97781  1.0000
  H   H4803     1.0  0.71616  0.09976  0.05087  1.0000
  C   C2821     1.0  0.67077  0.07179  0.04249  1.0000
  C   C2822     1.0  0.56838  0.05555  0.39481  1.0000
  H   H4804     1.0  0.71049  0.21260  0.99958  1.0000
  C   C2823     1.0  0.54407  0.18698  0.09371  1.0000
  H   H4805     1.0  0.63336  0.06300  0.46816  1.0000
  H   H4806     1.0  0.67120  0.02009  0.32919  1.0000
  H   H4807     1.0  0.51333  0.14333  0.07684  1.0000
  C   C2824     1.0  0.69276  0.02761  0.12986  1.0000
  C   C2825     1.0  0.67374  0.02782  0.06622  1.0000
  Fe  Fe416     1.0  0.67258  0.19362  0.98328  1.0000
  H   H4808     1.0  0.68737  0.01967  0.39799  1.0000
  H   H4809     1.0  0.64310  0.11514  0.00845  1.0000
  C   C2826     1.0  0.56643  0.22864  0.16852  1.0000
  C   C2827     1.0  0.50017  0.12524  0.20508  1.0000
  H   H4810     1.0  0.51686  0.17731  0.14421  1.0000
  H   H4811     1.0  0.52316  0.16868  0.06566  1.0000
  H   H4812     1.0  0.64021  0.17480  0.98670  1.0000
  H   H4813     1.0  0.68400  0.01887  0.06644  1.0000
  H   H4814     1.0  0.49766  0.05535  0.10301  1.0000
  H   H4815     1.0  0.62910  0.22167  0.11261  1.0000
  C   C2828     1.0  0.68913  0.10078  0.01034  1.0000
  H   H4816     1.0  0.70271  0.14147  0.06659  1.0000
  C   C2829     1.0  0.72036  0.11071  0.00359  1.0000
  H   H4817     1.0  0.67145  0.04158  0.46627  1.0000
  C   C2830     1.0  0.50474  0.05813  0.17397  1.0000
  H   H4818     1.0  0.58299  0.16647  0.11203  1.0000
  H   H4819     1.0  0.49639  0.99613  0.26552  1.0000
  C   C2831     1.0  0.70938  0.21120  0.01168  1.0000
  H   H4820     1.0  0.71493  0.12494  0.01866  1.0000
  H   H4821     1.0  0.72184  0.03898  0.38622  1.0000
  C   C2832     1.0  0.72710  0.11603  0.09387  1.0000
  H   H4822     1.0  0.72053  0.99839  0.32329  1.0000
  S   S830      1.0  0.54459  0.00608  0.36407  1.0000
  H   H4823     1.0  0.52879  0.19401  0.11251  1.0000
  H   H4824     1.0  0.51754  0.00902  0.44501  1.0000
  C   C2833     1.0  0.71517  0.00477  0.18003  1.0000
  H   H4825     1.0  0.71052  0.19912  0.01643  1.0000
  C   C2834     1.0  0.55478  0.05564  0.36864  1.0000
  H   H4826     1.0  0.50561  0.10941  0.08489  1.0000
  H   H4827     1.0  0.73170  0.10896  0.00556  1.0000
  C   C2835     1.0  0.61277  0.02071  0.31789  1.0000
  H   H4828     1.0  0.55572  0.18125  0.08974  1.0000
  C   C2836     1.0  0.52011  0.01256  0.43285  1.0000
  C   C2837     1.0  0.71934  0.01452  0.41964  1.0000
  C   C2838     1.0  0.53893  0.00238  0.31768  1.0000
  C   C2839     1.0  0.64801  0.01951  0.22819  1.0000
  H   H4829     1.0  0.64551  0.21441  0.06204  1.0000
  H   H4830     1.0  0.55296  0.21609  0.16453  1.0000
  H   H4831     1.0  0.63543  0.07452  0.17475  1.0000
  H   H4832     1.0  0.51056  0.15656  0.08721  1.0000
  C   C2840     1.0  0.72021  0.09602  0.04029  1.0000
  H   H4833     1.0  0.62621  0.22296  0.09443  1.0000
  H   H4834     1.0  0.50111  0.08182  0.24306  1.0000
  H   H4835     1.0  0.55318  0.23336  0.15273  1.0000
  C   C2841     1.0  0.50445  0.15040  0.08372  1.0000
  H   H4836     1.0  0.66774  0.99415  0.20769  1.0000
  S   S831      1.0  0.50313  0.04793  0.22916  1.0000
  C   C2842     1.0  0.71711  0.11036  0.08981  1.0000
  H   H4837     1.0  0.65640  0.00104  0.30634  1.0000
  C   C2843     1.0  0.63928  0.02747  0.06517  1.0000
  Fe  Fe417     1.0  0.50570  0.02333  0.23706  1.0000
  C   C2844     1.0  0.54076  0.18823  0.10994  1.0000
  C   C2845     1.0  0.68742  0.00680  0.12433  1.0000
  H   H4838     1.0  0.73844  0.03518  0.41079  1.0000
  H   H4839     1.0  0.52110  0.19538  0.13603  1.0000
  C   C2846     1.0  0.54107  0.17706  0.13601  1.0000
  C   C2847     1.0  0.49872  0.09993  0.10811  1.0000
  N   N202      1.0  0.57323  0.07816  0.20956  1.0000
  C   C2848     1.0  0.55975  0.08590  0.21932  1.0000
  C   C2849     1.0  0.56750  0.07100  0.20087  1.0000
  C   C2850     1.0  0.58144  0.08978  0.19930  1.0000
  C   C2851     1.0  0.58298  0.06707  0.21935  1.0000
  C   C2852     1.0  0.56291  0.09512  0.22840  1.0000
  C   C2853     1.0  0.55882  0.05891  0.21002  1.0000
  C   C2854     1.0  0.59139  0.08636  0.18453  1.0000
  C   C2855     1.0  0.59675  0.05678  0.21185  1.0000
  H   H4840     1.0  0.55176  0.09351  0.21258  1.0000
  H   H4841     1.0  0.55354  0.07783  0.22749  1.0000
  H   H4842     1.0  0.57661  0.06579  0.19270  1.0000
  H   H4843     1.0  0.56006  0.07958  0.19410  1.0000
  H   H4844     1.0  0.57346  0.10044  0.19623  1.0000
  H   H4845     1.0  0.58867  0.09237  0.20500  1.0000
  H   H4846     1.0  0.58755  0.07285  0.22498  1.0000
  H   H4847     1.0  0.57640  0.06014  0.22875  1.0000
  H   H4848     1.0  0.55211  0.10072  0.23454  1.0000
  H   H4849     1.0  0.56929  0.08807  0.23681  1.0000
  H   H4850     1.0  0.56881  0.10391  0.22137  1.0000
  H   H4851     1.0  0.55642  0.05360  0.20237  1.0000
  H   H4852     1.0  0.56531  0.05003  0.21735  1.0000
  H   H4853     1.0  0.54784  0.06357  0.21657  1.0000
  H   H4854     1.0  0.59719  0.09557  0.17872  1.0000
  H   H4855     1.0  0.58467  0.08591  0.17705  1.0000
  H   H4856     1.0  0.60015  0.07613  0.18601  1.0000
  H   H4857     1.0  0.60665  0.06186  0.20823  1.0000
  H   H4858     1.0  0.59507  0.05354  0.20246  1.0000
  H   H4859     1.0  0.59934  0.04617  0.21991  1.0000
  N   N203      1.0  0.65786  0.21862  0.09101  1.0000
  H   H4860     1.0  0.60178  0.99367  0.32691  1.0000
  H   H4861     1.0  0.67017  0.02846  0.08871  1.0000
  H   H4862     1.0  0.51160  0.06398  0.17696  1.0000
  C   C2856     1.0  0.65488  0.21059  0.08117  1.0000
  C   C2857     1.0  0.49869  0.10246  0.09307  1.0000
  H   H4863     1.0  0.58928  0.00493  0.38008  1.0000
  H   H4864     1.0  0.51040  0.11958  0.23151  1.0000
  H   H4865     1.0  0.50542  0.00573  0.09615  1.0000
  C   C2858     1.0  0.74362  0.98867  0.16432  1.0000
  H   H4866     1.0  0.71370  0.22296  0.14985  1.0000
  H   H4867     1.0  0.66842  0.02680  0.05788  1.0000
  C   C2859     1.0  0.72872  0.00081  0.14533  1.0000
  H   H4868     1.0  0.68626  0.99223  0.35540  1.0000
  H   H4869     1.0  0.59410  0.01936  0.30941  1.0000
  C   C2860     1.0  0.73333  0.21552  0.03606  1.0000
  H   H4870     1.0  0.64544  0.20494  0.08677  1.0000
  H   H4871     1.0  0.72078  0.20039  0.03520  1.0000
  H   H4872     1.0  0.65335  0.05099  0.06188  1.0000
  S   S832      1.0  0.72509  0.98447  0.28475  1.0000
  C   C2861     1.0  0.52488  0.18424  0.14269  1.0000
  H   H4873     1.0  0.64587  0.23105  0.06582  1.0000
  S   S833      1.0  0.64846  0.20109  0.99395  1.0000
  C   C2862     1.0  0.71137  0.17144  0.04485  1.0000
  H   H4874     1.0  0.72557  0.15559  0.03213  1.0000
  H   H4875     1.0  0.55610  0.08080  0.37615  1.0000
  H   H4876     1.0  0.55861  0.05035  0.39899  1.0000
  C   C2863     1.0  0.65467  0.08386  0.15054  1.0000
  H   H4877     1.0  0.50953  0.12042  0.19681  1.0000
  C   C2864     1.0  0.69161  0.17633  0.02662  1.0000
  H   H4878     1.0  0.52250  0.02601  0.12759  1.0000
  C   C2865     1.0  0.70535  0.16626  0.02430  1.0000
  H   H4879     1.0  0.64410  0.99199  0.30337  1.0000
  H   H4880     1.0  0.61895  0.02355  0.30634  1.0000
  H   H4881     1.0  0.64655  0.03030  0.46619  1.0000
  H   H4882     1.0  0.72784  0.10291  0.03245  1.0000
  C   C2866     1.0  0.49782  0.14009  0.09796  1.0000
  H   H4883     1.0  0.59270  0.03676  0.31312  1.0000
  H   H4884     1.0  0.54061  0.06390  0.38862  1.0000
  C   C2867     1.0  0.68427  0.00778  0.14974  1.0000
  H   H4885     1.0  0.71619  0.09897  0.09433  1.0000
  H   H4886     1.0  0.57149  0.18318  0.10414  1.0000
  H   H4887     1.0  0.53155  0.05598  0.37992  1.0000
  N   N204      1.0  0.61876  0.00508  0.32557  1.0000
  H   H4888     1.0  0.54707  0.19607  0.11053  1.0000
  H   H4889     1.0  0.74048  0.19751  0.15617  1.0000
  H   H4890     1.0  0.63179  0.09187  0.14617  1.0000
  H   H4891     1.0  0.70215  0.00308  0.33374  1.0000
  H   H4892     1.0  0.62625  0.01903  0.24250  1.0000
  H   H4893     1.0  0.67691  0.12258  0.12876  1.0000
  C   C2868     1.0  0.72098  0.21232  0.03078  1.0000
  C   C2869     1.0  0.74077  0.19298  0.00935  1.0000
  C   C2870     1.0  0.63914  0.06671  0.16719  1.0000
  S   S834      1.0  0.65140  0.07862  0.00814  1.0000
  S   S835      1.0  0.71589  0.20509  0.08099  1.0000
  C   C2871     1.0  0.67920  0.06511  0.01452  1.0000
  C   C2872     1.0  0.71124  0.01537  0.39697  1.0000
  C   C2873     1.0  0.56965  0.00623  0.37248  1.0000
  H   H4894     1.0  0.68640  0.11330  0.04928  1.0000
  H   H4895     1.0  0.56152  0.16063  0.10731  1.0000
  S   S836      1.0  0.70754  0.06932  0.08152  1.0000
  H   H4896     1.0  0.51648  0.03796  0.28282  1.0000
  H   H4897     1.0  0.53113  0.00430  0.41353  1.0000
  H   H4898     1.0  0.65540  0.07789  0.45443  1.0000
  C   C2874     1.0  0.68529  0.06396  0.03775  1.0000
  C   C2875     1.0  0.69799  0.18202  0.04673  1.0000
  S   S837      1.0  0.70189  0.05586  0.46561  1.0000
  C   C2876     1.0  0.49604  0.22222  0.08831  1.0000
  C   C2877     1.0  0.65888  0.20796  0.10569  1.0000
  H   H4899     1.0  0.69057  0.21694  0.03013  1.0000
  Fe  Fe418     1.0  0.73259  0.16315  0.08902  1.0000
  S   S838      1.0  0.51169  0.11809  0.13829  1.0000
  C   C2878     1.0  0.68560  0.10930  0.02264  1.0000
  C   C2879     1.0  0.70825  0.11957  0.08002  1.0000
  C   C2880     1.0  0.66048  0.07618  0.03333  1.0000
  C   C2881     1.0  0.70814  0.98368  0.22346  1.0000
  H   H4900     1.0  0.51541  0.99733  0.42290  1.0000
  N   N205      1.0  0.69876  0.11109  0.02718  1.0000
  H   H4901     1.0  0.54873  0.02767  0.32935  1.0000
  H   H4902     1.0  0.51592  0.04332  0.11603  1.0000
  S   S839      1.0  0.71089  0.15770  0.00923  1.0000
  H   H4903     1.0  0.59909  0.21574  0.98219  1.0000
  H   H4904     1.0  0.64924  0.08216  0.03711  1.0000
  C   C2882     1.0  0.70944  0.13433  0.07426  1.0000
  H   H4905     1.0  0.54800  0.18470  0.13570  1.0000
  S   S840      1.0  0.69402  0.19320  0.05954  1.0000
  C   C2883     1.0  0.71912  0.14002  0.07857  1.0000
  C   C2884     1.0  0.70855  0.11958  0.01442  1.0000
  C   C2885     1.0  0.63421  0.00076  0.23152  1.0000
  H   H4906     1.0  0.73398  0.05170  0.39734  1.0000
  N   N206      1.0  0.54371  0.17380  0.12100  1.0000
  H   H4907     1.0  0.66296  0.01461  0.08612  1.0000
  H   H4908     1.0  0.51665  0.01655  0.30321  1.0000
  C   C2886     1.0  0.55600  0.02349  0.31957  1.0000
  C   C2887     1.0  0.67284  0.19515  0.10577  1.0000
  H   H4909     1.0  0.68077  0.14124  0.04402  1.0000
  C   C2888     1.0  0.68945  0.06059  0.02376  1.0000
  H   H4910     1.0  0.50703  0.04606  0.32626  1.0000
  H   H4911     1.0  0.68632  0.05908  0.15133  1.0000
  N   N207      1.0  0.53369  0.01894  0.31268  1.0000
  H   H4912     1.0  0.61824  0.01128  0.34568  1.0000
  C   C2889     1.0  0.51929  0.04156  0.32465  1.0000
  C   C2890     1.0  0.73296  0.20407  0.14854  1.0000
  C   C2891     1.0  0.53343  0.16448  0.12096  1.0000
  C   C2892     1.0  0.67628  0.99818  0.32520  1.0000
  H   H4913     1.0  0.71027  0.21797  0.03704  1.0000
  H   H4914     1.0  0.67089  0.13396  0.03558  1.0000
  H   H4915     1.0  0.69930  0.09020  0.04312  1.0000
  C   C2893     1.0  0.73606  0.21002  0.00542  1.0000
  C   C2894     1.0  0.65895  0.14780  0.98152  1.0000
  C   C2895     1.0  0.65969  0.01245  0.21836  1.0000
  C   C2896     1.0  0.52711  0.99301  0.32132  1.0000
  H   H4916     1.0  0.64412  0.10390  0.13703  1.0000
  C   C2897     1.0  0.70708  0.09604  0.03394  1.0000
  H   H4917     1.0  0.64669  0.08785  0.13023  1.0000
  H   H4918     1.0  0.70192  0.12196  0.04261  1.0000
  C   C2898     1.0  0.68892  0.02128  0.14498  1.0000
  H   H4919     1.0  0.53448  0.01625  0.29097  1.0000
  H   H4920     1.0  0.68241  0.07600  0.15783  1.0000
  C   C2899     1.0  0.69834  0.22512  0.10851  1.0000
  H   H4921     1.0  0.72682  0.08450  0.04285  1.0000
  H   H4922     1.0  0.73325  0.18767  0.00666  1.0000
  C   C2900     1.0  0.63061  0.17031  0.98699  1.0000
  H   H4923     1.0  0.50703  0.16431  0.05255  1.0000
  S   S841      1.0  0.68874  0.00267  0.30835  1.0000
  H   H4924     1.0  0.68544  0.21320  0.01545  1.0000
  Fe  Fe419     1.0  0.65904  0.07684  0.98418  1.0000
  C   C2901     1.0  0.51741  0.09665  0.21935  1.0000
  H   H4925     1.0  0.52268  0.04360  0.33387  1.0000
  H   H4926     1.0  0.67741  0.19215  0.03938  1.0000
  H   H4927     1.0  0.52177  0.17104  0.12163  1.0000
  H   H4928     1.0  0.54249  0.19829  0.08657  1.0000
  C   C2902     1.0  0.73782  0.00915  0.39742  1.0000
  H   H4929     1.0  0.52787  0.15291  0.14422  1.0000
  H   H4930     1.0  0.51184  0.02170  0.32718  1.0000
  H   H4931     1.0  0.72900  0.02344  0.13351  1.0000
  H   H4932     1.0  0.64386  0.04694  0.14431  1.0000
  C   C2903     1.0  0.72800  0.13092  0.08835  1.0000
  H   H4933     1.0  0.71789  0.99997  0.34184  1.0000
  S   S842      1.0  0.64955  0.03562  0.23203  1.0000
  S   S843      1.0  0.62424  0.03055  0.27199  1.0000
  N   N208      1.0  0.72141  0.21681  0.01444  1.0000
  H   H4934     1.0  0.67042  0.01758  0.47582  1.0000
  H   H4935     1.0  0.52935  0.04444  0.28819  1.0000
  H   H4936     1.0  0.66585  0.08500  0.14342  1.0000
  C   C2904     1.0  0.61519  0.99495  0.30473  1.0000
  C   C2905     1.0  0.66466  0.07288  0.01930  1.0000
  H   H4937     1.0  0.66102  0.06882  0.17728  1.0000
  H   H4938     1.0  0.63860  0.06685  0.13800  1.0000
  H   H4939     1.0  0.71979  0.15145  0.07423  1.0000
  C   C2906     1.0  0.65984  0.05834  0.14650  1.0000
  H   H4940     1.0  0.63056  0.07018  0.16050  1.0000
  H   H4941     1.0  0.54425  0.14291  0.13338  1.0000
  H   H4942     1.0  0.52595  0.14399  0.13134  1.0000
  H   H4943     1.0  0.53614  0.18151  0.09194  1.0000
  H   H4944     1.0  0.68252  0.06241  0.00380  1.0000
  C   C2907     1.0  0.69485  0.02152  0.40395  1.0000
  H   H4945     1.0  0.51641  0.18530  0.05340  1.0000
  C   C2908     1.0  0.52652  0.02164  0.29981  1.0000
  C   C2909     1.0  0.63529  0.01363  0.23486  1.0000
  H   H4946     1.0  0.53000  0.08509  0.20185  1.0000
  H   H4947     1.0  0.64112  0.01210  0.29863  1.0000
  H   H4948     1.0  0.66918  0.06211  0.13765  1.0000
  H   H4949     1.0  0.62434  0.99625  0.23664  1.0000
  H   H4950     1.0  0.72927  0.99118  0.42810  1.0000
  H   H4951     1.0  0.50411  0.13196  0.21019  1.0000
  H   H4952     1.0  0.57125  0.17854  0.12369  1.0000
  C   C2910     1.0  0.64357  0.09204  0.14050  1.0000
  C   C2911     1.0  0.63766  0.05123  0.17684  1.0000
  N   N209      1.0  0.50190  0.10290  0.22734  1.0000
  H   H4953     1.0  0.62563  0.05098  0.18105  1.0000
  C   C2912     1.0  0.64540  0.23175  0.09406  1.0000
  H   H4954     1.0  0.51091  0.04330  0.30000  1.0000
  H   H4955     1.0  0.52438  0.18572  0.15382  1.0000
  H   H4956     1.0  0.60336  0.22186  0.13756  1.0000
  N   N210      1.0  0.64814  0.03643  0.08359  1.0000
  H   H4957     1.0  0.50429  0.03657  0.13364  1.0000
  N   N211      1.0  0.65452  0.06785  0.15781  1.0000
  C   C2913     1.0  0.65859  0.99961  0.21505  1.0000
  C   C2914     1.0  0.56075  0.22342  0.15782  1.0000
  H   H4958     1.0  0.72823  0.01636  0.42381  1.0000
  S   S844      1.0  0.73924  0.17837  0.09869  1.0000
  C   C2915     1.0  0.57186  0.17408  0.11411  1.0000
  C   C2916     1.0  0.55964  0.16533  0.11712  1.0000
  H   H4959     1.0  0.54470  0.16684  0.14412  1.0000
  H   H4960     1.0  0.51116  0.04655  0.17455  1.0000
  H   H4961     1.0  0.71286  0.99355  0.42124  1.0000
  C   C2917     1.0  0.54745  0.02535  0.30756  1.0000
  H   H4962     1.0  0.50428  0.01442  0.12409  1.0000
  H   H4963     1.0  0.66456  0.04674  0.15175  1.0000
  H   H4964     1.0  0.70358  0.01149  0.18228  1.0000
  H   H4965     1.0  0.54837  0.99789  0.30915  1.0000
  H   H4966     1.0  0.65252  0.09038  0.15909  1.0000
  H   H4967     1.0  0.64248  0.04874  0.18671  1.0000
  C   C2918     1.0  0.64315  0.03850  0.09932  1.0000
  H   H4968     1.0  0.67847  0.09945  0.00891  1.0000
  H   H4969     1.0  0.55429  0.99579  0.42007  1.0000
  H   H4970     1.0  0.61214  0.98994  0.36391  1.0000
  C   C2919     1.0  0.49663  0.04654  0.09822  1.0000
  C   C2920     1.0  0.51691  0.99556  0.20007  1.0000
  H   H4971     1.0  0.66747  0.12736  0.99657  1.0000
  H   H4972     1.0  0.64980  0.04532  0.10123  1.0000
  C   C2921     1.0  0.62975  0.22839  0.10116  1.0000
  H   H4973     1.0  0.74150  0.18864  0.02108  1.0000
  H   H4974     1.0  0.69257  0.03359  0.40316  1.0000
  H   H4975     1.0  0.69445  0.10703  0.99956  1.0000
  H   H4976     1.0  0.49797  0.18906  0.11532  1.0000
  H   H4977     1.0  0.70554  0.99697  0.16671  1.0000
  S   S845      1.0  0.51705  0.00717  0.22246  1.0000
  H   H4978     1.0  0.67181  0.18773  0.11696  1.0000
  C   C2922     1.0  0.64446  0.00190  0.30677  1.0000
  C   C2923     1.0  0.73252  0.21906  0.12321  1.0000
  H   H4979     1.0  0.67416  0.18839  0.09777  1.0000
  H   H4980     1.0  0.68105  0.21478  0.07910  1.0000
  H   H4981     1.0  0.71079  0.99802  0.43829  1.0000
  C   C2924     1.0  0.64309  0.05339  0.46792  1.0000
  C   C2925     1.0  0.64417  0.02421  0.11161  1.0000
  H   H4982     1.0  0.68319  0.19919  0.10360  1.0000
  S   S846      1.0  0.69137  0.19659  0.99089  1.0000
  H   H4983     1.0  0.52363  0.10557  0.21347  1.0000
  H   H4984     1.0  0.73841  0.01793  0.14829  1.0000
  C   C2926     1.0  0.71811  0.99836  0.42706  1.0000
  H   H4985     1.0  0.50039  0.10121  0.26129  1.0000
  H   H4986     1.0  0.72182  0.21608  0.12410  1.0000
  H   H4987     1.0  0.63763  0.01801  0.08810  1.0000
  C   C2927     1.0  0.50110  0.17045  0.06148  1.0000
  H   H4988     1.0  0.51673  0.99722  0.32893  1.0000
  H   H4989     1.0  0.74263  0.02380  0.37515  1.0000
  C   C2928     1.0  0.51785  0.21932  0.06845  1.0000
  S   S847      1.0  0.73019  0.02849  0.47451  1.0000
  H   H4990     1.0  0.54865  0.21658  0.12382  1.0000
  H   H4991     1.0  0.52439  0.99219  0.31118  1.0000
  S   S848      1.0  0.73989  0.13838  0.09383  1.0000
  H   H4992     1.0  0.52955  0.21939  0.06383  1.0000
  Fe  Fe420     1.0  0.70113  0.17277  0.99033  1.0000
  C   C2929     1.0  0.59609  0.02462  0.31730  1.0000
  N   N212      1.0  0.64477  0.14537  0.97955  1.0000
  H   H4993     1.0  0.64795  0.23230  0.99540  1.0000
  S   S849      1.0  0.52217  0.22629  0.09220  1.0000
  H   H4994     1.0  0.64018  0.99140  0.32943  1.0000
  H   H4995     1.0  0.67615  0.99118  0.24364  1.0000
  C   C2930     1.0  0.67259  0.22333  0.08453  1.0000
  H   H4996     1.0  0.54109  0.98764  0.39979  1.0000
  H   H4997     1.0  0.50561  0.10495  0.11154  1.0000
  H   H4998     1.0  0.65050  0.05563  0.45673  1.0000
  C   C2931     1.0  0.51119  0.22241  0.08242  1.0000
  H   H4999     1.0  0.61449  0.02876  0.32323  1.0000
  H   H5000     1.0  0.54359  0.00500  0.44466  1.0000
  C   C2932     1.0  0.61373  0.99362  0.32141  1.0000
  S   S850      1.0  0.64466  0.98704  0.36972  1.0000
  H   H5001     1.0  0.62475  0.13861  0.99363  1.0000
  H   H5002     1.0  0.63142  0.04273  0.45910  1.0000
  C   C2933     1.0  0.55201  0.99477  0.44303  1.0000
  H   H5003     1.0  0.57684  0.22146  0.17157  1.0000
  C   C2934     1.0  0.58016  0.22779  0.13470  1.0000
  H   H5004     1.0  0.51131  0.09367  0.19999  1.0000
  C   C2935     1.0  0.74325  0.01195  0.38046  1.0000
  H   H5005     1.0  0.74408  0.99927  0.16627  1.0000
  H   H5006     1.0  0.51686  0.10817  0.25344  1.0000
  H   H5007     1.0  0.50683  0.13371  0.10391  1.0000
  H   H5008     1.0  0.73280  0.23294  0.10114  1.0000
  H   H5009     1.0  0.71768  0.99921  0.19106  1.0000
  Fe  Fe421     1.0  0.49644  0.98769  0.38066  1.0000
  H   H5010     1.0  0.56036  0.22941  0.11926  1.0000
  H   H5011     1.0  0.71840  0.00163  0.14169  1.0000
  H   H5012     1.0  0.74428  0.21460  0.02822  1.0000
  S   S851      1.0  0.71860  0.98792  0.24522  1.0000
  H   H5013     1.0  0.70841  0.99004  0.36538  1.0000
  H   H5014     1.0  0.58858  0.02172  0.32818  1.0000
  C   C2936     1.0  0.61305  0.00430  0.34200  1.0000
  H   H5015     1.0  0.51460  0.21427  0.04939  1.0000
  S   S852      1.0  0.49550  0.09869  0.16900  1.0000
  C   C2937     1.0  0.73624  0.03943  0.39957  1.0000
  S   S853      1.0  0.74208  0.06563  0.45118  1.0000
  H   H5016     1.0  0.73558  0.21334  0.99359  1.0000
  H   H5017     1.0  0.73781  0.99715  0.40134  1.0000
  H   H5018     1.0  0.49502  0.17426  0.09584  1.0000
  C   C2938     1.0  0.63559  0.00221  0.32270  1.0000
  C   C2939     1.0  0.50954  0.10223  0.25126  1.0000
  H   H5019     1.0  0.73410  0.19088  0.12647  1.0000
  Fe  Fe422     1.0  0.73996  0.19344  0.07625  1.0000
  H   H5020     1.0  0.55804  0.22835  0.17915  1.0000
  C   C2940     1.0  0.73994  0.22290  0.10666  1.0000
  H   H5021     1.0  0.73545  0.20712  0.04619  1.0000
  C   C2941     1.0  0.67112  0.13393  0.98536  1.0000
  H   H5022     1.0  0.63896  0.01064  0.32618  1.0000
  C   C2942     1.0  0.50938  0.21647  0.06027  1.0000
  H   H5023     1.0  0.52896  0.99333  0.19830  1.0000
  C   C2943     1.0  0.72860  0.01687  0.14503  1.0000
  C   C2944     1.0  0.69307  0.21854  0.01796  1.0000
  H   H5024     1.0  0.72904  0.22956  0.12704  1.0000
  H   H5025     1.0  0.55165  0.98646  0.45366  1.0000
  C   C2945     1.0  0.66951  0.23273  0.12546  1.0000
  H   H5026     1.0  0.51827  0.98541  0.25398  1.0000
  H   H5027     1.0  0.51758  0.98649  0.18192  1.0000
  H   H5028     1.0  0.49641  0.14268  0.06388  1.0000
  H   H5029     1.0  0.69020  0.23046  0.01274  1.0000
  H   H5030     1.0  0.62893  0.23177  0.99582  1.0000
  C   C2946     1.0  0.68829  0.98398  0.36558  1.0000
  C   C2947     1.0  0.67362  0.98389  0.33067  1.0000
  H   H5031     1.0  0.52711  0.98669  0.45483  1.0000
  Fe  Fe423     1.0  0.61759  0.06229  0.66319  1.0000
  S   S854      1.0  0.61665  0.03839  0.66860  1.0000
  S   S855      1.0  0.62416  0.07102  0.63857  1.0000
  Fe  Fe424     1.0  0.60883  0.06362  0.69575  1.0000
  S   S856      1.0  0.60832  0.03954  0.70329  1.0000
  S   S857      1.0  0.59823  0.07667  0.71351  1.0000
  Fe  Fe425     1.0  0.62917  0.03635  0.68565  1.0000
  S   S858      1.0  0.64887  0.01719  0.68677  1.0000
  Fe  Fe426     1.0  0.59581  0.04420  0.68547  1.0000
  S   S859      1.0  0.57577  0.03403  0.69080  1.0000
  S   S860      1.0  0.63111  0.06003  0.67964  1.0000
  S   S861      1.0  0.59537  0.06840  0.67853  1.0000
  Fe  Fe427     1.0  0.73770  0.06668  0.57567  1.0000
  S   S862      1.0  0.73603  0.04901  0.56573  1.0000
  H   H5032     1.0  0.54264  0.21353  0.92190  1.0000
  Fe  Fe428     1.0  0.70548  0.06927  0.59395  1.0000
  S   S863      1.0  0.70102  0.05224  0.58496  1.0000
  S   S864      1.0  0.69080  0.07966  0.61284  1.0000
  Fe  Fe429     1.0  0.72386  0.03976  0.58858  1.0000
  S   S865      1.0  0.72770  0.01550  0.59916  1.0000
  Fe  Fe430     1.0  0.71352  0.06308  0.56290  1.0000
  C   C2948     1.0  0.55702  0.05950  0.67919  1.0000
  S   S866      1.0  0.72769  0.05616  0.59871  1.0000
  S   S867      1.0  0.71586  0.08141  0.57167  1.0000
  H   H5033     1.0  0.70611  0.02506  0.64654  1.0000
  H   H5034     1.0  0.68405  0.05444  0.65113  1.0000
  H   H5035     1.0  0.65677  0.12799  0.96754  1.0000
  H   H5036     1.0  0.70290  0.04830  0.65319  1.0000
  H   H5037     1.0  0.58415  0.18387  0.93457  1.0000
  C   C2949     1.0  0.71623  0.00491  0.71300  1.0000
  N   N213      1.0  0.54315  0.21301  0.86556  1.0000
  N   N214      1.0  0.65524  0.19071  0.91390  1.0000
  H   H5038     1.0  0.64588  0.02924  0.92964  1.0000
  C   C2950     1.0  0.54736  0.03722  0.68779  1.0000
  H   H5039     1.0  0.59857  0.21426  0.90155  1.0000
  C   C2951     1.0  0.67200  0.16929  0.90126  1.0000
  Fe  Fe431     1.0  0.51512  0.07585  0.77460  1.0000
  H   H5040     1.0  0.51620  0.04056  0.88252  1.0000
  S   S868      1.0  0.67935  0.01141  0.73869  1.0000
  H   H5041     1.0  0.66304  0.99206  0.70570  1.0000
  H   H5042     1.0  0.56425  0.22416  0.90618  1.0000
  H   H5043     1.0  0.73673  0.10123  0.50552  1.0000
  Fe  Fe432     1.0  0.58959  0.08370  0.80464  1.0000
  S   S869      1.0  0.60676  0.09763  0.79485  1.0000
  S   S870      1.0  0.56484  0.09179  0.80972  1.0000
  Fe  Fe433     1.0  0.61222  0.05487  0.81008  1.0000
  S   S871      1.0  0.63132  0.06620  0.80070  1.0000
  S   S872      1.0  0.61730  0.03011  0.81744  1.0000
  Fe  Fe434     1.0  0.61765  0.08340  0.81348  1.0000
  S   S873      1.0  0.62603  0.08868  0.83066  1.0000
  Fe  Fe435     1.0  0.61886  0.07907  0.78296  1.0000
  S   S874      1.0  0.63238  0.07989  0.75965  1.0000
  S   S875      1.0  0.59936  0.07101  0.82413  1.0000
  S   S876      1.0  0.60070  0.06635  0.79145  1.0000
  Fe  Fe436     1.0  0.67038  0.99850  0.89376  1.0000
  H   H5044     1.0  0.50831  0.14855  0.81559  1.0000
  S   S877      1.0  0.67804  0.01712  0.89777  1.0000
  H   H5045     1.0  0.71712  0.99322  0.68965  1.0000
  H   H5046     1.0  0.67629  0.17656  0.91839  1.0000
  C   C2952     1.0  0.64796  0.04736  0.50797  1.0000
  Fe  Fe437     1.0  0.64289  0.99540  0.88573  1.0000
  S   S878      1.0  0.61967  0.00884  0.88482  1.0000
  S   S879      1.0  0.66067  0.00794  0.87361  1.0000
  Fe  Fe438     1.0  0.66938  0.05913  0.95979  1.0000
  H   H5047     1.0  0.62982  0.21489  0.90650  1.0000
  H   H5048     1.0  0.70229  0.02809  0.62288  1.0000
  S   S880      1.0  0.65985  0.09831  0.96771  1.0000
  H   H5049     1.0  0.51665  0.09243  0.72035  1.0000
  H   H5050     1.0  0.52194  0.22269  0.85902  1.0000
  Fe  Fe439     1.0  0.64977  0.08967  0.95453  1.0000
  S   S881      1.0  0.63014  0.10322  0.94480  1.0000
  Fe  Fe440     1.0  0.61992  0.16385  0.84868  1.0000
  S   S882      1.0  0.61455  0.15000  0.87154  1.0000
  S   S883      1.0  0.62909  0.15413  0.82836  1.0000
  Fe  Fe441     1.0  0.60969  0.19278  0.85965  1.0000
  S   S884      1.0  0.60348  0.18107  0.88326  1.0000
  C   C2953     1.0  0.70610  0.01565  0.70278  1.0000
  Fe  Fe442     1.0  0.62502  0.16478  0.87794  1.0000
  S   S885      1.0  0.64237  0.15720  0.89178  1.0000
  Fe  Fe443     1.0  0.59371  0.16783  0.87421  1.0000
  S   S886      1.0  0.57046  0.16415  0.88380  1.0000
  S   S887      1.0  0.63203  0.17742  0.85477  1.0000
  S   S888      1.0  0.59836  0.18080  0.85093  1.0000
  Fe  Fe444     1.0  0.52261  0.14827  0.84873  1.0000
  H   H5051     1.0  0.69198  0.02418  0.60631  1.0000
  S   S889      1.0  0.54147  0.15896  0.83484  1.0000
  C   C2954     1.0  0.71239  0.02488  0.93265  1.0000
  H   H5052     1.0  0.70279  0.06508  0.94427  1.0000
  H   H5053     1.0  0.52536  0.03928  0.68445  1.0000
  S   S890      1.0  0.51816  0.12784  0.84582  1.0000
  S   S891      1.0  0.52274  0.13910  0.87264  1.0000
  C   C2955     1.0  0.64184  0.20972  0.96651  1.0000
  C   C2956     1.0  0.55429  0.21811  0.87027  1.0000
  H   H5054     1.0  0.64018  0.04355  0.51845  1.0000
  H   H5055     1.0  0.65363  0.20822  0.96203  1.0000
  H   H5056     1.0  0.51398  0.04313  0.84423  1.0000
  C   C2957     1.0  0.56248  0.16344  0.86977  1.0000
  C   C2958     1.0  0.54698  0.16551  0.87220  1.0000
  C   C2959     1.0  0.54047  0.16535  0.86096  1.0000
  C   C2960     1.0  0.54944  0.16246  0.84747  1.0000
  C   C2961     1.0  0.56490  0.16080  0.84486  1.0000
  C   C2962     1.0  0.57143  0.16113  0.85605  1.0000
  H   H5057     1.0  0.53996  0.16727  0.88276  1.0000
  H   H5058     1.0  0.52845  0.16738  0.86279  1.0000
  H   H5059     1.0  0.57190  0.15875  0.83439  1.0000
  H   H5060     1.0  0.58344  0.15895  0.85423  1.0000
  C   C2963     1.0  0.60245  0.05984  0.61345  1.0000
  H   H5061     1.0  0.70581  0.05751  0.49566  1.0000
  H   H5062     1.0  0.49839  0.09696  0.88424  1.0000
  H   H5063     1.0  0.71256  0.02029  0.69180  1.0000
  H   H5064     1.0  0.54743  0.02600  0.75792  1.0000
  C   C2964     1.0  0.74031  0.99467  0.62044  1.0000
  H   H5065     1.0  0.51443  0.09500  0.91446  1.0000
  C   C2965     1.0  0.55892  0.04440  0.68572  1.0000
  H   H5066     1.0  0.63923  0.12869  0.95417  1.0000
  H   H5067     1.0  0.72380  0.11687  0.59380  1.0000
  H   H5068     1.0  0.56055  0.22514  0.86068  1.0000
  H   H5069     1.0  0.62384  0.15931  0.97450  1.0000
  H   H5070     1.0  0.53634  0.13554  0.76820  1.0000
  H   H5071     1.0  0.60592  0.06639  0.61917  1.0000
  C   C2966     1.0  0.63386  0.11800  0.92993  1.0000
  C   C2967     1.0  0.64783  0.12175  0.92563  1.0000
  C   C2968     1.0  0.65039  0.13387  0.91391  1.0000
  C   C2969     1.0  0.63907  0.14211  0.90640  1.0000
  C   C2970     1.0  0.62518  0.13827  0.91061  1.0000
  C   C2971     1.0  0.62256  0.12628  0.92242  1.0000
  H   H5072     1.0  0.65659  0.11536  0.93138  1.0000
  H   H5073     1.0  0.66120  0.13672  0.91060  1.0000
  H   H5074     1.0  0.61639  0.14462  0.90488  1.0000
  H   H5075     1.0  0.61176  0.12340  0.92574  1.0000
  C   C2972     1.0  0.67570  0.02208  0.91467  1.0000
  C   C2973     1.0  0.67525  0.03683  0.91444  1.0000
  C   C2974     1.0  0.67388  0.04124  0.92754  1.0000
  C   C2975     1.0  0.67349  0.03080  0.94093  1.0000
  C   C2976     1.0  0.67386  0.01607  0.94118  1.0000
  C   C2977     1.0  0.67477  0.01174  0.92814  1.0000
  H   H5076     1.0  0.67602  0.04488  0.90405  1.0000
  H   H5077     1.0  0.67358  0.05262  0.92719  1.0000
  H   H5078     1.0  0.67364  0.00791  0.95150  1.0000
  H   H5079     1.0  0.67524  0.00033  0.92842  1.0000
  C   C2978     1.0  0.62626  0.10709  0.82976  1.0000
  C   C2979     1.0  0.62422  0.11156  0.84293  1.0000
  C   C2980     1.0  0.62431  0.12616  0.84265  1.0000
  C   C2981     1.0  0.62715  0.13623  0.82916  1.0000
  C   C2982     1.0  0.62937  0.13170  0.81598  1.0000
  C   C2983     1.0  0.62869  0.11723  0.81627  1.0000
  H   H5080     1.0  0.62230  0.10377  0.85341  1.0000
  H   H5081     1.0  0.62236  0.12950  0.85289  1.0000
  H   H5082     1.0  0.63160  0.13941  0.80549  1.0000
  H   H5083     1.0  0.63033  0.11386  0.80605  1.0000
  C   C2984     1.0  0.55709  0.08960  0.79629  1.0000
  C   C2985     1.0  0.56503  0.09057  0.78161  1.0000
  C   C2986     1.0  0.55826  0.08944  0.77092  1.0000
  C   C2987     1.0  0.54369  0.08711  0.77498  1.0000
  C   C2988     1.0  0.53580  0.08629  0.78964  1.0000
  C   C2989     1.0  0.54250  0.08748  0.80026  1.0000
  H   H5084     1.0  0.57625  0.09244  0.77844  1.0000
  H   H5085     1.0  0.56433  0.09027  0.75955  1.0000
  C   C2990     1.0  0.69893  0.04143  0.51518  1.0000
  H   H5086     1.0  0.53630  0.08687  0.81154  1.0000
  C   C2991     1.0  0.61631  0.02358  0.83650  1.0000
  C   C2992     1.0  0.62490  0.00967  0.84161  1.0000
  C   C2993     1.0  0.62575  0.00502  0.85651  1.0000
  C   C2994     1.0  0.61762  0.01403  0.86646  1.0000
  C   C2995     1.0  0.60834  0.02758  0.86152  1.0000
  C   C2996     1.0  0.60780  0.03241  0.84652  1.0000
  H   H5087     1.0  0.63129  0.00267  0.83397  1.0000
  H   H5088     1.0  0.63265  0.99442  0.86030  1.0000
  H   H5089     1.0  0.60194  0.03452  0.86920  1.0000
  H   H5090     1.0  0.60082  0.04294  0.84276  1.0000
  H   H5091     1.0  0.69934  0.05203  0.63525  1.0000
  H   H5092     1.0  0.68039  0.12041  0.93767  1.0000
  C   C2997     1.0  0.65695  0.20508  0.91592  1.0000
  H   H5093     1.0  0.51289  0.11426  0.82414  1.0000
  S   S892      1.0  0.51683  0.05780  0.79489  1.0000
  H   H5094     1.0  0.69285  0.02744  0.53661  1.0000
  Fe  Fe445     1.0  0.69295  0.17560  0.96140  1.0000
  C   C2998     1.0  0.65545  0.03232  0.64481  1.0000
  H   H5095     1.0  0.65377  0.14569  0.95634  1.0000
  H   H5096     1.0  0.66986  0.17384  0.88996  1.0000
  C   C2999     1.0  0.53007  0.05756  0.83654  1.0000
  H   H5097     1.0  0.49506  0.08354  0.85210  1.0000
  C   C3000     1.0  0.51932  0.05942  0.90421  1.0000
  C   C3001     1.0  0.70194  0.13691  0.95550  1.0000
  S   S893      1.0  0.51644  0.06974  0.66904  1.0000
  H   H5098     1.0  0.51894  0.16232  0.80444  1.0000
  C   C3002     1.0  0.64737  0.18275  0.92857  1.0000
  C   C3003     1.0  0.73432  0.00970  0.61557  1.0000
  H   H5099     1.0  0.65872  0.03910  0.50773  1.0000
  H   H5100     1.0  0.60265  0.18571  0.93262  1.0000
  H   H5101     1.0  0.50092  0.09540  0.68683  1.0000
  C   C3004     1.0  0.50210  0.02307  0.81756  1.0000
  H   H5102     1.0  0.73867  0.04065  0.92380  1.0000
  S   S894      1.0  0.65158  0.98699  0.90657  1.0000
  H   H5103     1.0  0.61584  0.04692  0.94474  1.0000
  H   H5104     1.0  0.63679  0.03881  0.49694  1.0000
  H   H5105     1.0  0.51033  0.12177  0.90382  1.0000
  C   C3005     1.0  0.63496  0.13538  0.96274  1.0000
  H   H5106     1.0  0.73913  0.06206  0.52385  1.0000
  H   H5107     1.0  0.67578  0.14758  0.93474  1.0000
  C   C3006     1.0  0.72958  0.22022  0.96294  1.0000
  H   H5108     1.0  0.65638  0.11826  0.85085  1.0000
  C   C3007     1.0  0.71838  0.07086  0.92386  1.0000
  C   C3008     1.0  0.73343  0.01971  0.62401  1.0000
  H   H5109     1.0  0.67879  0.19830  0.92243  1.0000
  H   H5110     1.0  0.56434  0.04108  0.63825  1.0000
  H   H5111     1.0  0.57441  0.20565  0.90824  1.0000
  H   H5112     1.0  0.69934  0.02501  0.70802  1.0000
  H   H5113     1.0  0.64406  0.08019  0.65036  1.0000
  H   H5114     1.0  0.56572  0.06519  0.67786  1.0000
  C   C3009     1.0  0.65706  0.01586  0.70128  1.0000
  C   C3010     1.0  0.66347  0.00189  0.70872  1.0000
  C   C3011     1.0  0.66997  0.00056  0.72044  1.0000
  C   C3012     1.0  0.67066  0.01320  0.72437  1.0000
  C   C3013     1.0  0.66443  0.02722  0.71679  1.0000
  C   C3014     1.0  0.65738  0.02855  0.70539  1.0000
  C   C3015     1.0  0.50097  0.08284  0.93294  1.0000
  H   H5115     1.0  0.70116  0.04052  0.96000  1.0000
  H   H5116     1.0  0.66490  0.03703  0.71981  1.0000
  H   H5117     1.0  0.65242  0.03938  0.69965  1.0000
  C   C3016     1.0  0.60807  0.07687  0.72632  1.0000
  C   C3017     1.0  0.59994  0.08053  0.73981  1.0000
  C   C3018     1.0  0.60733  0.08125  0.75017  1.0000
  C   C3019     1.0  0.62292  0.07872  0.74691  1.0000
  C   C3020     1.0  0.63108  0.07516  0.73336  1.0000
  C   C3021     1.0  0.62368  0.07399  0.72316  1.0000
  H   H5118     1.0  0.58787  0.08301  0.74218  1.0000
  H   H5119     1.0  0.60094  0.08425  0.76045  1.0000
  H   H5120     1.0  0.64314  0.07330  0.73073  1.0000
  H   H5121     1.0  0.63001  0.07130  0.71271  1.0000
  C   C3022     1.0  0.64283  0.07301  0.63166  1.0000
  C   C3023     1.0  0.65057  0.07008  0.61775  1.0000
  C   C3024     1.0  0.66539  0.07182  0.61197  1.0000
  C   C3025     1.0  0.67241  0.07688  0.61989  1.0000
  C   C3026     1.0  0.66465  0.07986  0.63376  1.0000
  C   C3027     1.0  0.64999  0.07774  0.63972  1.0000
  H   H5122     1.0  0.64508  0.06649  0.61143  1.0000
  H   H5123     1.0  0.67122  0.06962  0.60121  1.0000
  H   H5124     1.0  0.66997  0.08384  0.63993  1.0000
  C   C3028     1.0  0.72557  0.07037  0.63146  1.0000
  N   N215      1.0  0.63918  0.02914  0.76602  1.0000
  C   C3029     1.0  0.64971  0.03944  0.75811  1.0000
  C   C3030     1.0  0.63569  0.02381  0.75437  1.0000
  C   C3031     1.0  0.64736  0.01616  0.77583  1.0000
  C   C3032     1.0  0.62548  0.03752  0.77497  1.0000
  C   C3033     1.0  0.65655  0.04464  0.76794  1.0000
  C   C3034     1.0  0.62855  0.03605  0.74259  1.0000
  C   C3035     1.0  0.63894  0.00389  0.78480  1.0000
  C   C3036     1.0  0.61097  0.03168  0.77913  1.0000
  H   H5125     1.0  0.65916  0.03434  0.75007  1.0000
  H   H5126     1.0  0.64399  0.04967  0.75140  1.0000
  H   H5127     1.0  0.62823  0.01593  0.75915  1.0000
  H   H5128     1.0  0.64604  0.01731  0.74841  1.0000
  H   H5129     1.0  0.65806  0.01084  0.76917  1.0000
  H   H5130     1.0  0.65045  0.01985  0.78426  1.0000
  H   H5131     1.0  0.62785  0.03819  0.78537  1.0000
  H   H5132     1.0  0.62259  0.04921  0.76883  1.0000
  H   H5133     1.0  0.64799  0.04884  0.77709  1.0000
  H   H5134     1.0  0.66546  0.03573  0.77232  1.0000
  H   H5135     1.0  0.66189  0.05393  0.76111  1.0000
  H   H5136     1.0  0.63689  0.04212  0.73470  1.0000
  H   H5137     1.0  0.62445  0.03092  0.73597  1.0000
  H   H5138     1.0  0.61895  0.04406  0.74750  1.0000
  H   H5139     1.0  0.62944  0.00789  0.79346  1.0000
  C   C3037     1.0  0.71098  0.04145  0.93170  1.0000
  S   S895      1.0  0.68148  0.06505  0.97357  1.0000
  H   H5140     1.0  0.60499  0.03295  0.79051  1.0000
  H   H5141     1.0  0.61251  0.01991  0.77916  1.0000
  H   H5142     1.0  0.60321  0.03861  0.77192  1.0000
  N   N216      1.0  0.66035  0.03886  0.82799  1.0000
  C   C3038     1.0  0.64645  0.03639  0.83973  1.0000
  C   C3039     1.0  0.65988  0.03331  0.81502  1.0000
  C   C3040     1.0  0.65974  0.05530  0.82373  1.0000
  C   C3041     1.0  0.67372  0.03045  0.83454  1.0000
  C   C3042     1.0  0.64299  0.04377  0.85294  1.0000
  C   C3043     1.0  0.66230  0.01642  0.81744  1.0000
  C   C3044     1.0  0.66933  0.06147  0.80870  1.0000
  C   C3045     1.0  0.68925  0.02964  0.82399  1.0000
  H   H5143     1.0  0.63637  0.04059  0.83487  1.0000
  H   H5144     1.0  0.64695  0.02440  0.84453  1.0000
  H   H5145     1.0  0.66837  0.03660  0.80502  1.0000
  H   H5146     1.0  0.64899  0.03831  0.81170  1.0000
  H   H5147     1.0  0.64809  0.06162  0.82339  1.0000
  H   H5148     1.0  0.66284  0.05884  0.83229  1.0000
  H   H5149     1.0  0.67422  0.03522  0.84355  1.0000
  H   H5150     1.0  0.67267  0.01891  0.84025  1.0000
  H   H5151     1.0  0.65253  0.04088  0.85834  1.0000
  H   H5152     1.0  0.63939  0.05599  0.84964  1.0000
  H   H5153     1.0  0.63354  0.03981  0.86141  1.0000
  H   H5154     1.0  0.65464  0.01163  0.82739  1.0000
  H   H5155     1.0  0.66020  0.01371  0.80788  1.0000
  H   H5156     1.0  0.67400  0.01090  0.81814  1.0000
  H   H5157     1.0  0.66488  0.06118  0.79937  1.0000
  H   H5158     1.0  0.68125  0.05585  0.80725  1.0000
  H   H5159     1.0  0.69433  0.03862  0.82412  1.0000
  H   H5160     1.0  0.68924  0.02991  0.81250  1.0000
  H   H5161     1.0  0.69668  0.01884  0.82771  1.0000
  H   H5162     1.0  0.70468  0.11120  0.61409  1.0000
  C   C3046     1.0  0.64137  0.04051  0.89607  1.0000
  H   H5163     1.0  0.56352  0.07004  0.74378  1.0000
  Fe  Fe446     1.0  0.49693  0.05844  0.67595  1.0000
  C   C3047     1.0  0.63016  0.21618  0.86214  1.0000
  C   C3048     1.0  0.53629  0.20165  0.87782  1.0000
  C   C3049     1.0  0.70737  0.06291  0.51529  1.0000
  N   N217      1.0  0.52863  0.13618  0.79145  1.0000
  C   C3050     1.0  0.51478  0.14849  0.79173  1.0000
  C   C3051     1.0  0.53109  0.12881  0.77880  1.0000
  C   C3052     1.0  0.52819  0.12496  0.80588  1.0000
  H   H5164     1.0  0.55876  0.20649  0.94707  1.0000
  H   H5165     1.0  0.51779  0.21496  0.89111  1.0000
  C   C3053     1.0  0.51450  0.11789  0.81198  1.0000
  H   H5166     1.0  0.50475  0.14462  0.79216  1.0000
  H   H5167     1.0  0.53914  0.11794  0.78038  1.0000
  H   H5168     1.0  0.53802  0.11561  0.80501  1.0000
  H   H5169     1.0  0.52949  0.12956  0.81465  1.0000
  H   H5170     1.0  0.65535  0.23076  0.97252  1.0000
  H   H5171     1.0  0.68060  0.00877  0.66019  1.0000
  H   H5172     1.0  0.74406  0.07750  0.63279  1.0000
  H   H5173     1.0  0.52482  0.19689  0.90086  1.0000
  H   H5174     1.0  0.53328  0.03304  0.84095  1.0000
  C   C3054     1.0  0.69931  0.00085  0.64346  1.0000
  H   H5175     1.0  0.51664  0.05438  0.72022  1.0000
  H   H5176     1.0  0.55895  0.12399  0.79659  1.0000
  H   H5177     1.0  0.63737  0.04750  0.92161  1.0000
  H   H5178     1.0  0.51969  0.06633  0.83643  1.0000
  H   H5179     1.0  0.53713  0.06089  0.82540  1.0000
  H   H5180     1.0  0.52462  0.13256  0.91461  1.0000
  H   H5181     1.0  0.52252  0.03327  0.86625  1.0000
  C   C3055     1.0  0.53414  0.04497  0.68298  1.0000
  H   H5182     1.0  0.55530  0.06579  0.62452  1.0000
  S   S896      1.0  0.49868  0.16028  0.85233  1.0000
  C   C3056     1.0  0.50200  0.07479  0.71125  1.0000
  H   H5183     1.0  0.73116  0.09465  0.48638  1.0000
  H   H5184     1.0  0.65621  0.15268  0.86228  1.0000
  H   H5185     1.0  0.57903  0.06925  0.61769  1.0000
  C   C3057     1.0  0.54398  0.06716  0.67403  1.0000
  H   H5186     1.0  0.54871  0.02555  0.69291  1.0000
  S   S897      1.0  0.68711  0.98792  0.84282  1.0000
  S   S898      1.0  0.70165  0.09628  0.95113  1.0000
  H   H5187     1.0  0.56850  0.05629  0.83260  1.0000
  C   C3058     1.0  0.73881  0.01473  0.63706  1.0000
  H   H5188     1.0  0.65730  0.15369  0.83729  1.0000
  H   H5189     1.0  0.67591  0.00830  0.64410  1.0000
  C   C3059     1.0  0.73794  0.08916  0.50737  1.0000
  C   C3060     1.0  0.50900  0.06426  0.72407  1.0000
  C   C3061     1.0  0.66745  0.14450  0.83670  1.0000
  H   H5190     1.0  0.64592  0.21189  0.92024  1.0000
  H   H5191     1.0  0.58347  0.05168  0.61367  1.0000
  N   N218      1.0  0.72861  0.99374  0.70593  1.0000
  H   H5192     1.0  0.54100  0.14806  0.79818  1.0000
  H   H5193     1.0  0.54260  0.22901  0.92876  1.0000
  N   N219      1.0  0.56456  0.04892  0.73917  1.0000
  C   C3062     1.0  0.56639  0.05530  0.72275  1.0000
  C   C3063     1.0  0.57438  0.03357  0.74122  1.0000
  H   H5194     1.0  0.67990  0.16054  0.84867  1.0000
  C   C3064     1.0  0.55838  0.07160  0.71815  1.0000
  C   C3065     1.0  0.57184  0.02309  0.73312  1.0000
  H   H5195     1.0  0.57843  0.05446  0.71727  1.0000
  H   H5196     1.0  0.56213  0.04892  0.71746  1.0000
  H   H5197     1.0  0.58640  0.03413  0.73732  1.0000
  H   H5198     1.0  0.54256  0.04762  0.73797  1.0000
  H   H5199     1.0  0.54648  0.07382  0.72400  1.0000
  H   H5200     1.0  0.56420  0.07926  0.71985  1.0000
  H   H5201     1.0  0.55879  0.07422  0.70611  1.0000
  H   H5202     1.0  0.55985  0.02415  0.73366  1.0000
  H   H5203     1.0  0.57782  0.02522  0.72136  1.0000
  H   H5204     1.0  0.57656  0.01143  0.73811  1.0000
  N   N220      1.0  0.66786  0.13441  0.85178  1.0000
  C   C3066     1.0  0.66669  0.14397  0.86218  1.0000
  C   C3067     1.0  0.65443  0.12746  0.85646  1.0000
  H   H5205     1.0  0.49799  0.02299  0.84063  1.0000
  C   C3068     1.0  0.64898  0.12133  0.87313  1.0000
  C   C3069     1.0  0.70054  0.04580  0.53836  1.0000
  Fe  Fe447     1.0  0.67340  0.98731  0.86595  1.0000
  H   H5206     1.0  0.50395  0.12570  0.81015  1.0000
  H   H5207     1.0  0.68208  0.11537  0.84357  1.0000
  H   H5208     1.0  0.73883  0.02703  0.94055  1.0000
  C   C3070     1.0  0.63936  0.22112  0.86789  1.0000
  H   H5209     1.0  0.64001  0.11544  0.87464  1.0000
  H   H5210     1.0  0.64387  0.13037  0.87919  1.0000
  H   H5211     1.0  0.65781  0.11335  0.87836  1.0000
  H   H5212     1.0  0.68230  0.11767  0.87450  1.0000
  N   N221      1.0  0.65122  0.05197  0.47975  1.0000
  H   H5213     1.0  0.57311  0.03664  0.83685  1.0000
  H   H5214     1.0  0.53511  0.21340  0.83792  1.0000
  C   C3071     1.0  0.52610  0.05576  0.86348  1.0000
  H   H5215     1.0  0.63785  0.19052  0.93408  1.0000
  C   C3072     1.0  0.69703  0.03728  0.53062  1.0000
  H   H5216     1.0  0.70795  0.00136  0.64882  1.0000
  H   H5217     1.0  0.54181  0.15248  0.77887  1.0000
  H   H5218     1.0  0.50881  0.07178  0.70067  1.0000
  H   H5219     1.0  0.67100  0.01917  0.49352  1.0000
  H   H5220     1.0  0.66282  0.19763  0.93786  1.0000
  C   C3073     1.0  0.68422  0.01150  0.64790  1.0000
  H   H5221     1.0  0.63199  0.05007  0.89411  1.0000
  C   C3074     1.0  0.55971  0.20865  0.93494  1.0000
  H   H5222     1.0  0.65860  0.13110  0.82721  1.0000
  C   C3075     1.0  0.51353  0.09564  0.70943  1.0000
  H   H5223     1.0  0.65079  0.21514  0.86772  1.0000
  C   C3076     1.0  0.58658  0.20678  0.93148  1.0000
  C   C3077     1.0  0.63204  0.21508  0.95690  1.0000
  H   H5224     1.0  0.73632  0.08086  0.53701  1.0000
  C   C3078     1.0  0.50422  0.08660  0.88996  1.0000
  H   H5225     1.0  0.52788  0.19811  0.87442  1.0000
  H   H5226     1.0  0.54278  0.07871  0.66852  1.0000
  H   H5227     1.0  0.72843  0.03121  0.62066  1.0000
  C   C3079     1.0  0.68373  0.14033  0.94110  1.0000
  H   H5228     1.0  0.64650  0.01875  0.90979  1.0000
  C   C3080     1.0  0.69141  0.14636  0.94757  1.0000
  H   H5229     1.0  0.62487  0.20462  0.89663  1.0000
  C   C3081     1.0  0.58620  0.05805  0.62019  1.0000
  H   H5230     1.0  0.73975  0.10767  0.58182  1.0000
  H   H5231     1.0  0.51004  0.07272  0.93242  1.0000
  C   C3082     1.0  0.74009  0.00081  0.69385  1.0000
  H   H5232     1.0  0.60331  0.06599  0.60176  1.0000
  H   H5233     1.0  0.52528  0.23146  0.87117  1.0000
  H   H5234     1.0  0.69116  0.02704  0.66219  1.0000
  C   C3083     1.0  0.59221  0.19100  0.92853  1.0000
  H   H5235     1.0  0.66566  0.13771  0.87380  1.0000
  C   C3084     1.0  0.71945  0.04030  0.96893  1.0000
  C   C3085     1.0  0.69720  0.11550  0.95027  1.0000
  H   H5236     1.0  0.54359  0.06252  0.64247  1.0000
  H   H5237     1.0  0.59502  0.19098  0.91660  1.0000
  H   H5238     1.0  0.66152  0.21201  0.90510  1.0000
  C   C3086     1.0  0.70553  0.05878  0.53071  1.0000
  C   C3087     1.0  0.61664  0.21726  0.96253  1.0000
  C   C3088     1.0  0.73922  0.08593  0.49222  1.0000
  C   C3089     1.0  0.55125  0.04562  0.84940  1.0000
  H   H5239     1.0  0.72417  0.01867  0.93074  1.0000
  C   C3090     1.0  0.68221  0.12282  0.85046  1.0000
  H   H5240     1.0  0.69883  0.04657  0.93445  1.0000
  H   H5241     1.0  0.71645  0.02517  0.95834  1.0000
  C   C3091     1.0  0.61185  0.04166  0.91988  1.0000
  C   C3092     1.0  0.61461  0.00766  0.92770  1.0000
  C   C3093     1.0  0.60427  0.04048  0.90815  1.0000
  H   H5242     1.0  0.63109  0.02201  0.90204  1.0000
  H   H5243     1.0  0.60345  0.04117  0.93056  1.0000
  H   H5244     1.0  0.61387  0.05310  0.91657  1.0000
  H   H5245     1.0  0.71737  0.08248  0.92436  1.0000
  H   H5246     1.0  0.69844  0.10903  0.86340  1.0000
  H   H5247     1.0  0.60288  0.01369  0.92776  1.0000
  H   H5248     1.0  0.61412  0.99702  0.93591  1.0000
  H   H5249     1.0  0.62015  0.00471  0.91690  1.0000
  H   H5250     1.0  0.59195  0.04298  0.91230  1.0000
  H   H5251     1.0  0.60719  0.02955  0.90534  1.0000
  H   H5252     1.0  0.60650  0.04901  0.89786  1.0000
  H   H5253     1.0  0.53285  0.09575  0.84431  1.0000
  C   C3094     1.0  0.52824  0.08590  0.84604  1.0000
  Fe  Fe448     1.0  0.70295  0.20088  0.96704  1.0000
  H   H5254     1.0  0.72696  0.08715  0.51445  1.0000
  H   H5255     1.0  0.52230  0.08810  0.83706  1.0000
  H   H5256     1.0  0.52017  0.08515  0.85684  1.0000
  H   H5257     1.0  0.55883  0.21270  0.84434  1.0000
  N   N222      1.0  0.58286  0.05086  0.63642  1.0000
  C   C3095     1.0  0.59191  0.03511  0.63813  1.0000
  C   C3096     1.0  0.56653  0.05023  0.64172  1.0000
  C   C3097     1.0  0.58738  0.05836  0.64571  1.0000
  C   C3098     1.0  0.58891  0.02503  0.65370  1.0000
  C   C3099     1.0  0.55499  0.06413  0.63643  1.0000
  C   C3100     1.0  0.58157  0.07527  0.64385  1.0000
  H   H5258     1.0  0.65244  0.20122  0.89170  1.0000
  H   H5259     1.0  0.60410  0.03483  0.63527  1.0000
  H   H5260     1.0  0.54487  0.19141  0.88043  1.0000
  H   H5261     1.0  0.56336  0.04756  0.65399  1.0000
  H   H5262     1.0  0.58367  0.05353  0.65764  1.0000
  H   H5263     1.0  0.59974  0.05600  0.64413  1.0000
  H   H5264     1.0  0.57718  0.02373  0.65760  1.0000
  H   H5265     1.0  0.59604  0.01379  0.65341  1.0000
  H   H5266     1.0  0.59198  0.02899  0.66190  1.0000
  H   H5267     1.0  0.55620  0.07427  0.63870  1.0000
  H   H5268     1.0  0.57085  0.07798  0.65179  1.0000
  H   H5269     1.0  0.58029  0.08125  0.63258  1.0000
  H   H5270     1.0  0.58989  0.08000  0.64602  1.0000
  Fe  Fe449     1.0  0.70521  0.03383  0.48149  1.0000
  C   C3101     1.0  0.57419  0.21658  0.91013  1.0000
  C   C3102     1.0  0.54130  0.07219  0.84553  1.0000
  H   H5271     1.0  0.55612  0.04596  0.85850  1.0000
  C   C3103     1.0  0.52017  0.12257  0.92095  1.0000
  C   C3104     1.0  0.52723  0.08967  0.69811  1.0000
  H   H5272     1.0  0.73750  0.08353  0.59594  1.0000
  H   H5273     1.0  0.57246  0.19806  0.86968  1.0000
  H   H5274     1.0  0.59597  0.21262  0.92652  1.0000
  C   C3105     1.0  0.50633  0.12286  0.91556  1.0000
  N   N223      1.0  0.53709  0.05746  0.84872  1.0000
  C   C3106     1.0  0.73896  0.07770  0.62370  1.0000
  C   C3107     1.0  0.49546  0.18849  0.87401  1.0000
  H   H5275     1.0  0.63640  0.21747  0.94513  1.0000
  H   H5276     1.0  0.65337  0.02182  0.65257  1.0000
  H   H5277     1.0  0.51609  0.09556  0.93218  1.0000
  C   C3108     1.0  0.52820  0.20657  0.89242  1.0000
  H   H5278     1.0  0.51192  0.10791  0.70640  1.0000
  N   N224      1.0  0.71917  0.04494  0.94117  1.0000
  S   S899      1.0  0.60364  0.21754  0.85560  1.0000
  H   H5279     1.0  0.71865  0.07066  0.62391  1.0000
  H   H5280     1.0  0.73423  0.02437  0.69490  1.0000
  H   H5281     1.0  0.52518  0.04892  0.90974  1.0000
  C   C3109     1.0  0.61546  0.22406  0.86203  1.0000
  H   H5282     1.0  0.55990  0.04591  0.82555  1.0000
  H   H5283     1.0  0.66450  0.16175  0.90762  1.0000
  C   C3110     1.0  0.66567  0.04049  0.47812  1.0000
  C   C3111     1.0  0.72153  0.98571  0.69929  1.0000
  C   C3112     1.0  0.73573  0.03918  0.93605  1.0000
  C   C3113     1.0  0.62732  0.04003  0.94421  1.0000
  S   S900      1.0  0.70894  0.07057  0.53990  1.0000
  N   N225      1.0  0.73567  0.09312  0.61427  1.0000
  H   H5284     1.0  0.70886  0.99916  0.72272  1.0000
  H   H5285     1.0  0.51026  0.13647  0.77066  1.0000
  C   C3114     1.0  0.67073  0.18175  0.90892  1.0000
  H   H5286     1.0  0.68157  0.10235  0.86764  1.0000
  N   N226      1.0  0.68417  0.02777  0.64243  1.0000
  C   C3115     1.0  0.69439  0.03104  0.64997  1.0000
  C   C3116     1.0  0.66870  0.03688  0.64711  1.0000
  C   C3117     1.0  0.68996  0.03207  0.62595  1.0000
  C   C3118     1.0  0.69503  0.04745  0.64708  1.0000
  H   H5287     1.0  0.67833  0.01733  0.62105  1.0000
  H   H5288     1.0  0.74259  0.10095  0.54235  1.0000
  H   H5289     1.0  0.66800  0.04864  0.64122  1.0000
  H   H5290     1.0  0.68837  0.04430  0.62221  1.0000
  H   H5291     1.0  0.51457  0.06172  0.86219  1.0000
  H   H5292     1.0  0.66617  0.03684  0.65912  1.0000
  C   C3119     1.0  0.55117  0.20596  0.85255  1.0000
  C   C3120     1.0  0.64654  0.19467  0.90199  1.0000
  H   H5293     1.0  0.62907  0.03674  0.47860  1.0000
  H   H5294     1.0  0.54787  0.07207  0.85346  1.0000
  H   H5295     1.0  0.67797  0.18908  0.90091  1.0000
  H   H5296     1.0  0.64679  0.03710  0.88543  1.0000
  C   C3121     1.0  0.73362  0.23299  0.96337  1.0000
  H   H5297     1.0  0.70801  0.14148  0.96040  1.0000
  S   S901      1.0  0.69390  0.03101  0.50565  1.0000
  C   C3122     1.0  0.70435  0.05416  0.50753  1.0000
  H   H5298     1.0  0.52440  0.08497  0.79281  1.0000
  H   H5299     1.0  0.67797  0.15739  0.86805  1.0000
  H   H5300     1.0  0.70358  0.00285  0.63131  1.0000
  H   H5301     1.0  0.71098  0.07303  0.50931  1.0000
  H   H5302     1.0  0.57591  0.04214  0.76554  1.0000
  H   H5303     1.0  0.51599  0.15709  0.78127  1.0000
  S   S902      1.0  0.53533  0.08498  0.76194  1.0000
  H   H5304     1.0  0.63978  0.16692  0.96491  1.0000
  H   H5305     1.0  0.52496  0.09265  0.68689  1.0000
  C   C3123     1.0  0.66700  0.20366  0.92652  1.0000
  H   H5306     1.0  0.64460  0.13574  0.85298  1.0000
  S   S903      1.0  0.68322  0.19998  0.95935  1.0000
  S   S904      1.0  0.68768  0.16576  0.94524  1.0000
  H   H5307     1.0  0.55983  0.12757  0.77697  1.0000
  H   H5308     1.0  0.64998  0.04397  0.89920  1.0000
  C   C3124     1.0  0.57010  0.05375  0.76205  1.0000
  N   N227      1.0  0.57144  0.10815  0.85089  1.0000
  C   C3125     1.0  0.56924  0.09308  0.85148  1.0000
  C   C3126     1.0  0.55842  0.11935  0.84569  1.0000
  C   C3127     1.0  0.57110  0.10879  0.86642  1.0000
  C   C3128     1.0  0.58636  0.10995  0.84068  1.0000
  C   C3129     1.0  0.58019  0.07973  0.85865  1.0000
  C   C3130     1.0  0.55689  0.11950  0.83019  1.0000
  C   C3131     1.0  0.56945  0.12415  0.86927  1.0000
  C   C3132     1.0  0.58892  0.12581  0.83364  1.0000
  H   H5309     1.0  0.55774  0.09185  0.85765  1.0000
  H   H5310     1.0  0.57020  0.09163  0.84019  1.0000
  H   H5311     1.0  0.55871  0.13071  0.84571  1.0000
  H   H5312     1.0  0.54777  0.11752  0.85361  1.0000
  H   H5313     1.0  0.56161  0.10425  0.87436  1.0000
  H   H5314     1.0  0.58145  0.10174  0.86996  1.0000
  H   H5315     1.0  0.59560  0.10405  0.84650  1.0000
  H   H5316     1.0  0.58899  0.10426  0.83139  1.0000
  H   H5317     1.0  0.57864  0.06941  0.85689  1.0000
  H   H5318     1.0  0.59203  0.08036  0.85370  1.0000
  H   H5319     1.0  0.57791  0.07863  0.87077  1.0000
  H   H5320     1.0  0.56771  0.11860  0.82205  1.0000
  H   H5321     1.0  0.55161  0.11046  0.83069  1.0000
  H   H5322     1.0  0.54950  0.13008  0.82598  1.0000
  H   H5323     1.0  0.55820  0.13127  0.86863  1.0000
  H   H5324     1.0  0.57815  0.12987  0.86180  1.0000
  H   H5325     1.0  0.57069  0.12284  0.88069  1.0000
  H   H5326     1.0  0.59390  0.12973  0.84048  1.0000
  H   H5327     1.0  0.57901  0.13414  0.83081  1.0000
  H   H5328     1.0  0.59686  0.12575  0.82277  1.0000
  H   H5329     1.0  0.66416  0.15512  0.97136  1.0000
  Fe  Fe450     1.0  0.51603  0.11980  0.87017  1.0000
  H   H5330     1.0  0.67361  0.04255  0.48346  1.0000
  H   H5331     1.0  0.53532  0.21418  0.94120  1.0000
  H   H5332     1.0  0.71493  0.04630  0.91981  1.0000
  C   C3133     1.0  0.72866  0.10679  0.58925  1.0000
  N   N228      1.0  0.49933  0.09113  0.71042  1.0000
  C   C3134     1.0  0.63624  0.02719  0.90762  1.0000
  C   C3135     1.0  0.55740  0.13272  0.78654  1.0000
  H   H5333     1.0  0.70595  0.01957  0.94333  1.0000
  C   C3136     1.0  0.68635  0.12494  0.94273  1.0000
  H   H5334     1.0  0.61050  0.04906  0.61332  1.0000
  C   C3137     1.0  0.58797  0.22198  0.89963  1.0000
  H   H5335     1.0  0.59005  0.02950  0.63037  1.0000
  H   H5336     1.0  0.67437  0.98970  0.72643  1.0000
  H   H5337     1.0  0.64963  0.05810  0.50852  1.0000
  H   H5338     1.0  0.69065  0.14385  0.85852  1.0000
  H   H5339     1.0  0.71893  0.08952  0.60506  1.0000
  H   H5340     1.0  0.70743  0.02385  0.92396  1.0000
  C   C3138     1.0  0.52717  0.07039  0.89586  1.0000
  H   H5341     1.0  0.64447  0.07519  0.48089  1.0000
  C   C3139     1.0  0.53251  0.05991  0.67590  1.0000
  C   C3140     1.0  0.71496  0.06150  0.93972  1.0000
  C   C3141     1.0  0.63487  0.03684  0.92873  1.0000
  H   H5342     1.0  0.66701  0.21493  0.92732  1.0000
  H   H5343     1.0  0.54858  0.07449  0.83435  1.0000
  H   H5344     1.0  0.63126  0.16861  0.93753  1.0000
  H   H5345     1.0  0.67713  0.14991  0.83252  1.0000
  H   H5346     1.0  0.72034  0.06520  0.94638  1.0000
  H   H5347     1.0  0.73149  0.03513  0.96815  1.0000
  H   H5348     1.0  0.68360  0.16250  0.90002  1.0000
  N   N229      1.0  0.57260  0.21581  0.92627  1.0000
  C   C3142     1.0  0.54176  0.14316  0.78878  1.0000
  H   H5349     1.0  0.54828  0.19647  0.83586  1.0000
  H   H5350     1.0  0.62731  0.02969  0.95289  1.0000
  S   S905      1.0  0.60442  0.22444  0.95051  1.0000
  H   H5351     1.0  0.51026  0.12022  0.78557  1.0000
  C   C3143     1.0  0.50783  0.09648  0.92566  1.0000
  Fe  Fe451     1.0  0.68394  0.98757  0.75023  1.0000
  C   C3144     1.0  0.54113  0.20301  0.84411  1.0000
  H   H5352     1.0  0.73658  0.19664  0.96499  1.0000
  H   H5353     1.0  0.62370  0.19781  0.91602  1.0000
  H   H5354     1.0  0.56166  0.19744  0.93285  1.0000
  H   H5355     1.0  0.74182  0.05156  0.94939  1.0000
  H   H5356     1.0  0.55859  0.19508  0.85611  1.0000
  H   H5357     1.0  0.71855  0.07536  0.64086  1.0000
  C   C3145     1.0  0.56373  0.04638  0.83519  1.0000
  C   C3146     1.0  0.73956  0.20654  0.96534  1.0000
  C   C3147     1.0  0.63033  0.20350  0.90575  1.0000
  H   H5358     1.0  0.63527  0.99890  0.77780  1.0000
  H   H5359     1.0  0.52878  0.06098  0.87105  1.0000
  H   H5360     1.0  0.62759  0.14569  0.95802  1.0000
  H   H5361     1.0  0.69771  0.98930  0.64718  1.0000
  C   C3148     1.0  0.50384  0.06218  0.90589  1.0000
  C   C3149     1.0  0.51962  0.08401  0.88880  1.0000
  H   H5362     1.0  0.62830  0.12890  0.97237  1.0000
  H   H5363     1.0  0.72133  0.10642  0.58230  1.0000
  H   H5364     1.0  0.57312  0.02790  0.75304  1.0000
  C   C3150     1.0  0.70502  0.12153  0.95661  1.0000
  S   S906      1.0  0.67173  0.07929  0.94144  1.0000
  S   S907      1.0  0.67376  0.03546  0.95729  1.0000
  C   C3151     1.0  0.54429  0.21683  0.93137  1.0000
  Fe  Fe452     1.0  0.50304  0.04805  0.78654  1.0000
  H   H5365     1.0  0.71349  0.11429  0.96236  1.0000
  C   C3152     1.0  0.66478  0.02402  0.48450  1.0000
  C   C3153     1.0  0.54444  0.03725  0.76016  1.0000
  C   C3154     1.0  0.68609  0.11246  0.86489  1.0000
  C   C3155     1.0  0.57020  0.05847  0.74544  1.0000
  H   H5366     1.0  0.69195  0.12785  0.84419  1.0000
  H   H5367     1.0  0.69901  0.04256  0.55025  1.0000
  H   H5368     1.0  0.54858  0.22537  0.87827  1.0000
  C   C3156     1.0  0.68308  0.02723  0.61588  1.0000
  C   C3157     1.0  0.71358  0.03740  0.95695  1.0000
  H   H5369     1.0  0.64665  0.99480  0.79075  1.0000
  H   H5370     1.0  0.65493  0.17852  0.93647  1.0000
  H   H5371     1.0  0.63392  0.00859  0.93446  1.0000
  H   H5372     1.0  0.51591  0.10812  0.80746  1.0000
  H   H5373     1.0  0.73615  0.07528  0.49351  1.0000
  Fe  Fe453     1.0  0.68161  0.08624  0.95639  1.0000
  H   H5374     1.0  0.72983  0.05850  0.63619  1.0000
  H   H5375     1.0  0.53909  0.06833  0.89495  1.0000
  H   H5376     1.0  0.57613  0.06072  0.76462  1.0000
  H   H5377     1.0  0.70439  0.09491  0.62869  1.0000
  H   H5378     1.0  0.66597  0.14585  0.81431  1.0000
  S   S908      1.0  0.71405  0.17699  0.96672  1.0000
  H   H5379     1.0  0.63397  0.04629  0.94697  1.0000
  H   H5380     1.0  0.67863  0.12956  0.82127  1.0000
  H   H5381     1.0  0.64522  0.04093  0.64736  1.0000
  C   C3158     1.0  0.50103  0.01609  0.80715  1.0000
  C   C3159     1.0  0.72999  0.09249  0.60143  1.0000
  H   H5382     1.0  0.52518  0.04296  0.82586  1.0000
  H   H5383     1.0  0.61642  0.01828  0.94332  1.0000
  H   H5384     1.0  0.71010  0.07119  0.91762  1.0000
  H   H5385     1.0  0.58188  0.05917  0.73946  1.0000
  H   H5386     1.0  0.54220  0.06004  0.74848  1.0000
  C   C3160     1.0  0.70807  0.10550  0.62471  1.0000
  H   H5387     1.0  0.66206  0.06601  0.48543  1.0000
  H   H5388     1.0  0.57457  0.21081  0.87870  1.0000
  C   C3161     1.0  0.51048  0.15632  0.80473  1.0000
  H   H5389     1.0  0.58492  0.20549  0.94360  1.0000
  H   H5390     1.0  0.51580  0.06914  0.72815  1.0000
  C   C3162     1.0  0.66771  0.13709  0.82435  1.0000
  H   H5391     1.0  0.55854  0.05596  0.76877  1.0000
  S   S909      1.0  0.52972  0.09764  0.87889  1.0000
  C   C3163     1.0  0.62319  0.01628  0.93239  1.0000
  C   C3164     1.0  0.54821  0.04906  0.74595  1.0000
  H   H5392     1.0  0.67437  0.03647  0.61152  1.0000
  H   H5393     1.0  0.72704  0.11517  0.61882  1.0000
  N   N230      1.0  0.62621  0.03056  0.92195  1.0000
  H   H5394     1.0  0.69808  0.01010  0.70126  1.0000
  C   C3165     1.0  0.72497  0.10378  0.62335  1.0000
  H   H5395     1.0  0.53530  0.21081  0.89684  1.0000
  C   C3166     1.0  0.51724  0.12599  0.77570  1.0000
  H   H5396     1.0  0.53217  0.03964  0.76465  1.0000
  C   C3167     1.0  0.64836  0.13848  0.96642  1.0000
  C   C3168     1.0  0.67969  0.15176  0.85893  1.0000
  H   H5397     1.0  0.66871  0.07333  0.80792  1.0000
  H   H5398     1.0  0.54909  0.03435  0.85222  1.0000
  H   H5399     1.0  0.52102  0.11881  0.76756  1.0000
  H   H5400     1.0  0.70162  0.11250  0.63276  1.0000
  H   H5401     1.0  0.54973  0.03707  0.76902  1.0000
  C   C3169     1.0  0.52521  0.03991  0.87239  1.0000
  H   H5402     1.0  0.56601  0.13925  0.78430  1.0000
  H   H5403     1.0  0.56142  0.19939  0.88801  1.0000
  H   H5404     1.0  0.64590  0.18482  0.89866  1.0000
  H   H5405     1.0  0.53565  0.03401  0.87628  1.0000
  H   H5406     1.0  0.65660  0.03167  0.63332  1.0000
  H   H5407     1.0  0.63450  0.20640  0.85760  1.0000
  H   H5408     1.0  0.64992  0.15885  0.93087  1.0000
  H   H5409     1.0  0.52930  0.11287  0.91874  1.0000
  H   H5410     1.0  0.72688  0.10069  0.63477  1.0000
  H   H5411     1.0  0.72057  0.01179  0.71756  1.0000
  H   H5412     1.0  0.53664  0.09464  0.69745  1.0000
  C   C3170     1.0  0.52537  0.04332  0.83720  1.0000
  S   S910      1.0  0.71211  0.22167  0.95922  1.0000
  C   C3171     1.0  0.64151  0.16932  0.92867  1.0000
  H   H5413     1.0  0.53107  0.07749  0.70143  1.0000
  H   H5414     1.0  0.58755  0.22268  0.88809  1.0000
  S   S911      1.0  0.64676  0.06917  0.97203  1.0000
  H   H5415     1.0  0.63802  0.17003  0.91850  1.0000
  C   C3172     1.0  0.74366  0.01463  0.69597  1.0000
  C   C3173     1.0  0.56625  0.20574  0.87707  1.0000
  H   H5416     1.0  0.72983  0.06687  0.91771  1.0000
  H   H5417     1.0  0.49760  0.18231  0.86568  1.0000
  H   H5418     1.0  0.63072  0.05787  0.49558  1.0000
  H   H5419     1.0  0.50688  0.03270  0.81403  1.0000
  S   S912      1.0  0.50631  0.02382  0.78828  1.0000
  C   C3174     1.0  0.64105  0.04890  0.49481  1.0000
  H   H5420     1.0  0.73651  0.00444  0.68314  1.0000
  H   H5421     1.0  0.53294  0.19648  0.85142  1.0000
  H   H5422     1.0  0.73503  0.99720  0.73205  1.0000
  C   C3175     1.0  0.74279  0.98818  0.72695  1.0000
  H   H5423     1.0  0.51747  0.12285  0.93280  1.0000
  C   C3176     1.0  0.49704  0.01758  0.83264  1.0000
  H   H5424     1.0  0.74093  0.98684  0.61405  1.0000
  H   H5425     1.0  0.50017  0.06051  0.73354  1.0000
  H   H5426     1.0  0.73820  0.02251  0.64348  1.0000
  C   C3177     1.0  0.56995  0.23127  0.92854  1.0000
  H   H5427     1.0  0.49988  0.16472  0.80401  1.0000
  H   H5428     1.0  0.73724  0.10799  0.52509  1.0000
  H   H5429     1.0  0.71715  0.05219  0.96898  1.0000
  C   C3178     1.0  0.49509  0.20371  0.86974  1.0000
  C   C3179     1.0  0.53092  0.22616  0.86161  1.0000
  H   H5430     1.0  0.49852  0.11152  0.94651  1.0000
  S   S913      1.0  0.50344  0.06477  0.76507  1.0000
  H   H5431     1.0  0.57199  0.22572  0.95182  1.0000
  H   H5432     1.0  0.65349  0.02178  0.48872  1.0000
  H   H5433     1.0  0.74463  0.04656  0.47998  1.0000
  H   H5434     1.0  0.49941  0.13428  0.91524  1.0000
  Fe  Fe454     1.0  0.49855  0.15013  0.87629  1.0000
  H   H5435     1.0  0.49696  0.20905  0.85813  1.0000
  H   H5436     1.0  0.55289  0.23135  0.94936  1.0000
  N   N231      1.0  0.49724  0.11146  0.92452  1.0000
  C   C3180     1.0  0.49628  0.07576  0.89869  1.0000
  H   H5437     1.0  0.49609  0.20129  0.96598  1.0000
  C   C3181     1.0  0.63468  0.16041  0.97575  1.0000
  H   H5438     1.0  0.49584  0.08236  0.94481  1.0000
  C   C3182     1.0  0.56442  0.23310  0.94465  1.0000
  H   H5439     1.0  0.58816  0.23317  0.90029  1.0000
  C   C3183     1.0  0.63363  0.23350  0.87423  1.0000
  H   H5440     1.0  0.67488  0.12693  0.97713  1.0000
  C   C3184     1.0  0.65483  0.06679  0.47786  1.0000
  Fe  Fe455     1.0  0.69024  0.47146  0.17866  1.0000
  S   S914      1.0  0.69580  0.46516  0.15670  1.0000
  H   H5441     1.0  0.62090  0.25868  0.99735  1.0000
  Fe  Fe456     1.0  0.72247  0.46130  0.18239  1.0000
  S   S915      1.0  0.73059  0.45489  0.16057  1.0000
  H   H5442     1.0  0.49856  0.30172  0.10191  1.0000
  H   H5443     1.0  0.60610  0.25201  0.98698  1.0000
  H   H5444     1.0  0.56797  0.24017  0.16399  1.0000
  Fe  Fe457     1.0  0.71072  0.44460  0.16716  1.0000
  S   S916      1.0  0.71922  0.42099  0.16448  1.0000
  H   H5445     1.0  0.73586  0.27727  0.05562  1.0000
  S   S917      1.0  0.70335  0.44990  0.18959  1.0000
  H   H5446     1.0  0.68815  0.40120  0.21654  1.0000
  H   H5447     1.0  0.67249  0.39940  0.21050  1.0000
  H   H5448     1.0  0.62946  0.27263  0.19132  1.0000
  S   S918      1.0  0.66323  0.25974  0.10683  1.0000
  C   C3185     1.0  0.73604  0.28609  0.98420  1.0000
  C   C3186     1.0  0.60133  0.28038  0.20876  1.0000
  H   H5449     1.0  0.64803  0.23723  0.10148  1.0000
  Fe  Fe458     1.0  0.51305  0.25159  0.13400  1.0000
  S   S919      1.0  0.52781  0.25748  0.14520  1.0000
  C   C3187     1.0  0.70857  0.35520  0.22423  1.0000
  Fe  Fe459     1.0  0.71951  0.33000  0.14391  1.0000
  S   S920      1.0  0.71665  0.31286  0.16492  1.0000
  H   H5450     1.0  0.69369  0.24720  0.09520  1.0000
  Fe  Fe460     1.0  0.69768  0.35429  0.15801  1.0000
  S   S921      1.0  0.69269  0.33868  0.18004  1.0000
  S   S922      1.0  0.68504  0.37819  0.15541  1.0000
  Fe  Fe461     1.0  0.71760  0.33017  0.17576  1.0000
  S   S923      1.0  0.72836  0.32402  0.19531  1.0000
  Fe  Fe462     1.0  0.69216  0.32284  0.16709  1.0000
  S   S924      1.0  0.67887  0.30499  0.17353  1.0000
  S   S925      1.0  0.72270  0.34660  0.15447  1.0000
  S   S926      1.0  0.69495  0.33917  0.14543  1.0000
  H   H5451     1.0  0.52408  0.29670  0.08837  1.0000
  H   H5452     1.0  0.52486  0.30138  0.14154  1.0000
  C   C3188     1.0  0.59499  0.29024  0.18365  1.0000
  S   S927      1.0  0.58988  0.27538  0.11224  1.0000
  H   H5453     1.0  0.63967  0.25877  0.99640  1.0000
  C   C3189     1.0  0.73112  0.24129  0.00550  1.0000
  S   S928      1.0  0.66813  0.48306  0.19065  1.0000
  H   H5454     1.0  0.53095  0.30314  0.10018  1.0000
  C   C3190     1.0  0.58994  0.27034  0.21318  1.0000
  H   H5455     1.0  0.70215  0.31682  0.12646  1.0000
  H   H5456     1.0  0.58414  0.31354  0.18389  1.0000
  C   C3191     1.0  0.67235  0.37436  0.19811  1.0000
  H   H5457     1.0  0.71469  0.37621  0.21316  1.0000
  C   C3192     1.0  0.66440  0.30542  0.16532  1.0000
  C   C3193     1.0  0.65553  0.31868  0.15921  1.0000
  C   C3194     1.0  0.64342  0.31841  0.15373  1.0000
  C   C3195     1.0  0.64044  0.30490  0.15390  1.0000
  C   C3196     1.0  0.64974  0.29168  0.15949  1.0000
  C   C3197     1.0  0.66146  0.29195  0.16542  1.0000
  H   H5458     1.0  0.64774  0.28120  0.15961  1.0000
  H   H5459     1.0  0.66829  0.28165  0.17015  1.0000
  C   C3198     1.0  0.54485  0.26271  0.13568  1.0000
  C   C3199     1.0  0.55363  0.26526  0.14377  1.0000
  C   C3200     1.0  0.56753  0.26896  0.13673  1.0000
  C   C3201     1.0  0.57258  0.27053  0.12145  1.0000
  C   C3202     1.0  0.56367  0.26821  0.11330  1.0000
  C   C3203     1.0  0.54992  0.26414  0.12041  1.0000
  H   H5460     1.0  0.54972  0.26426  0.15558  1.0000
  H   H5461     1.0  0.57425  0.27078  0.14311  1.0000
  H   H5462     1.0  0.56752  0.26942  0.10147  1.0000
  H   H5463     1.0  0.54328  0.26211  0.11408  1.0000
  C   C3204     1.0  0.70955  0.41071  0.15961  1.0000
  C   C3205     1.0  0.69416  0.41498  0.16032  1.0000
  C   C3206     1.0  0.68672  0.40522  0.15830  1.0000
  C   C3207     1.0  0.69466  0.39123  0.15565  1.0000
  C   C3208     1.0  0.71014  0.38744  0.15414  1.0000
  C   C3209     1.0  0.71754  0.39712  0.15613  1.0000
  H   H5464     1.0  0.68794  0.42550  0.16295  1.0000
  H   H5465     1.0  0.67473  0.40827  0.15933  1.0000
  H   H5466     1.0  0.71641  0.37694  0.15168  1.0000
  H   H5467     1.0  0.72949  0.39389  0.15534  1.0000
  H   H5468     1.0  0.62403  0.27968  0.17405  1.0000
  H   H5469     1.0  0.71517  0.30024  0.14147  1.0000
  C   C3210     1.0  0.73212  0.41750  0.20727  1.0000
  H   H5470     1.0  0.51067  0.28436  0.12896  1.0000
  H   H5471     1.0  0.68542  0.31363  0.13941  1.0000
  H   H5472     1.0  0.59007  0.26462  0.20471  1.0000
  H   H5473     1.0  0.71562  0.34821  0.21643  1.0000
  H   H5474     1.0  0.65829  0.23559  0.13190  1.0000
  H   H5475     1.0  0.53554  0.30970  0.12471  1.0000
  Fe  Fe463     1.0  0.50949  0.23822  0.11042  1.0000
  H   H5476     1.0  0.72546  0.30776  0.98858  1.0000
  H   H5477     1.0  0.66852  0.38651  0.19458  1.0000
  H   H5478     1.0  0.67124  0.32418  0.11870  1.0000
  S   S929      1.0  0.62441  0.30486  0.14819  1.0000
  H   H5479     1.0  0.69698  0.37734  0.22542  1.0000
  H   H5480     1.0  0.63634  0.29270  0.19083  1.0000
  S   S930      1.0  0.62318  0.25068  0.12767  1.0000
  H   H5481     1.0  0.51528  0.32360  0.11563  1.0000
  H   H5482     1.0  0.66677  0.24768  0.07903  1.0000
  H   H5483     1.0  0.72399  0.37999  0.18268  1.0000
  C   C3211     1.0  0.68948  0.23927  0.10478  1.0000
  C   C3212     1.0  0.72496  0.29912  0.98374  1.0000
  C   C3213     1.0  0.70442  0.37168  0.21659  1.0000
  C   C3214     1.0  0.61990  0.27507  0.18596  1.0000
  H   H5484     1.0  0.68281  0.41320  0.20027  1.0000
  H   H5485     1.0  0.71528  0.30200  0.10976  1.0000
  S   S931      1.0  0.73312  0.32372  0.12255  1.0000
  S   S932      1.0  0.70882  0.48338  0.17341  1.0000
  H   H5486     1.0  0.59572  0.28981  0.21431  1.0000
  H   H5487     1.0  0.61544  0.30532  0.17852  1.0000
  H   H5488     1.0  0.59981  0.29410  0.17168  1.0000
  N   N232      1.0  0.69471  0.29798  0.12513  1.0000
  C   C3215     1.0  0.69158  0.31336  0.12782  1.0000
  C   C3216     1.0  0.70140  0.28732  0.13756  1.0000
  C   C3217     1.0  0.68001  0.29481  0.12522  1.0000
  C   C3218     1.0  0.70536  0.29777  0.11033  1.0000
  H   H5489     1.0  0.60793  0.26050  0.18184  1.0000
  C   C3219     1.0  0.71634  0.28942  0.13896  1.0000
  C   C3220     1.0  0.67838  0.27854  0.13033  1.0000
  C   C3221     1.0  0.63597  0.23744  0.99869  1.0000
  H   H5490     1.0  0.52428  0.28606  0.10658  1.0000
  C   C3222     1.0  0.68239  0.37007  0.20937  1.0000
  H   H5491     1.0  0.70347  0.27567  0.13670  1.0000
  H   H5492     1.0  0.69336  0.28804  0.14835  1.0000
  H   H5493     1.0  0.67062  0.30069  0.13279  1.0000
  H   H5494     1.0  0.67725  0.29921  0.11412  1.0000
  H   H5495     1.0  0.70007  0.30540  0.10131  1.0000
  H   H5496     1.0  0.63664  0.28328  0.98774  1.0000
  C   C3223     1.0  0.72303  0.36833  0.18684  1.0000
  H   H5497     1.0  0.66218  0.36978  0.20332  1.0000
  C   C3224     1.0  0.71120  0.28271  0.10591  1.0000
  C   C3225     1.0  0.50001  0.29264  0.13033  1.0000
  H   H5498     1.0  0.57843  0.27665  0.21682  1.0000
  H   H5499     1.0  0.57231  0.30271  0.18279  1.0000
  H   H5500     1.0  0.67760  0.27454  0.14241  1.0000
  H   H5501     1.0  0.68747  0.27084  0.12454  1.0000
  H   H5502     1.0  0.66776  0.27787  0.12822  1.0000
  H   H5503     1.0  0.72009  0.28088  0.14840  1.0000
  C   C3226     1.0  0.63268  0.25415  0.99216  1.0000
  H   H5504     1.0  0.73110  0.40627  0.21385  1.0000
  H   H5505     1.0  0.68433  0.35780  0.21309  1.0000
  H   H5506     1.0  0.63628  0.32870  0.14947  1.0000
  H   H5507     1.0  0.62402  0.29244  0.20899  1.0000
  C   C3227     1.0  0.74229  0.33137  0.19766  1.0000
  H   H5508     1.0  0.72661  0.25344  0.00335  1.0000
  C   C3228     1.0  0.61706  0.25983  0.18712  1.0000
  H   H5509     1.0  0.71513  0.35406  0.23249  1.0000
  H   H5510     1.0  0.68427  0.23957  0.06875  1.0000
  C   C3229     1.0  0.70668  0.36663  0.19212  1.0000
  H   H5511     1.0  0.68081  0.33644  0.12103  1.0000
  H   H5512     1.0  0.57685  0.30059  0.20014  1.0000
  H   H5513     1.0  0.72920  0.26585  0.04102  1.0000
  C   C3230     1.0  0.74083  0.28127  0.04378  1.0000
  C   C3231     1.0  0.62574  0.29829  0.19722  1.0000
  H   H5514     1.0  0.72190  0.28515  0.03377  1.0000
  H   H5515     1.0  0.52980  0.29351  0.12555  1.0000
  Fe  Fe464     1.0  0.62293  0.28438  0.14208  1.0000
  C   C3232     1.0  0.68388  0.40162  0.20685  1.0000
  H   H5516     1.0  0.65767  0.32914  0.15915  1.0000
  H   H5517     1.0  0.68860  0.32749  0.10596  1.0000
  H   H5518     1.0  0.71699  0.27418  0.11405  1.0000
  C   C3233     1.0  0.73229  0.27660  0.03509  1.0000
  H   H5519     1.0  0.59066  0.28062  0.18402  1.0000
  H   H5520     1.0  0.61504  0.25348  0.19871  1.0000
  H   H5521     1.0  0.73529  0.42358  0.21368  1.0000
  H   H5522     1.0  0.69849  0.35074  0.23027  1.0000
  C   C3234     1.0  0.52610  0.30396  0.12937  1.0000
  H   H5523     1.0  0.67570  0.37443  0.21930  1.0000
  H   H5524     1.0  0.72850  0.36275  0.17748  1.0000
  H   H5525     1.0  0.70213  0.27886  0.10407  1.0000
  H   H5526     1.0  0.70902  0.23874  0.01744  1.0000
  H   H5527     1.0  0.72940  0.36302  0.19563  1.0000
  Fe  Fe465     1.0  0.60713  0.27270  0.12539  1.0000
  H   H5528     1.0  0.62728  0.25321  0.18115  1.0000
  H   H5529     1.0  0.70549  0.39496  0.19364  1.0000
  S   S933      1.0  0.60289  0.27398  0.14909  1.0000
  H   H5530     1.0  0.69079  0.39380  0.18666  1.0000
  H   H5531     1.0  0.70685  0.35457  0.19581  1.0000
  N   N233      1.0  0.60691  0.28616  0.19245  1.0000
  S   S934      1.0  0.63942  0.26284  0.14635  1.0000
  H   H5532     1.0  0.67796  0.36968  0.18822  1.0000
  Fe  Fe466     1.0  0.61981  0.25242  0.15105  1.0000
  C   C3235     1.0  0.67254  0.23835  0.07343  1.0000
  S   S935      1.0  0.51053  0.26114  0.11062  1.0000
  S   S936      1.0  0.62543  0.28536  0.11807  1.0000
  C   C3236     1.0  0.61233  0.30006  0.19043  1.0000
  Fe  Fe467     1.0  0.64100  0.26336  0.12266  1.0000
  H   H5533     1.0  0.73748  0.29353  0.04225  1.0000
  C   C3237     1.0  0.68253  0.32587  0.11768  1.0000
  H   H5534     1.0  0.61091  0.27420  0.21405  1.0000
  H   H5535     1.0  0.50000  0.29793  0.15127  1.0000
  H   H5536     1.0  0.66754  0.23941  0.06408  1.0000
  C   C3238     1.0  0.50645  0.30654  0.10478  1.0000
  N   N234      1.0  0.69705  0.37491  0.20380  1.0000
  H   H5537     1.0  0.70193  0.37023  0.18210  1.0000
  C   C3239     1.0  0.69476  0.39126  0.19701  1.0000
  H   H5538     1.0  0.62728  0.30946  0.19663  1.0000
  C   C3240     1.0  0.58135  0.30246  0.18806  1.0000
  H   H5539     1.0  0.59666  0.24090  0.12977  1.0000
  C   C3241     1.0  0.52236  0.29753  0.09999  1.0000
  H   H5540     1.0  0.73839  0.27595  0.02369  1.0000
  H   H5541     1.0  0.60326  0.30852  0.19539  1.0000
  H   H5542     1.0  0.71954  0.28399  0.09526  1.0000
  H   H5543     1.0  0.71385  0.23674  0.99879  1.0000
  Fe  Fe468     1.0  0.71523  0.47577  0.15216  1.0000
  H   H5544     1.0  0.73703  0.23857  0.01453  1.0000
  C   C3242     1.0  0.74290  0.41721  0.19205  1.0000
  H   H5545     1.0  0.64422  0.24051  0.08395  1.0000
  H   H5546     1.0  0.50562  0.31974  0.13441  1.0000
  H   H5547     1.0  0.63327  0.23550  0.01093  1.0000
  H   H5548     1.0  0.59235  0.26151  0.22298  1.0000
  H   H5549     1.0  0.72536  0.28804  0.12900  1.0000
  C   C3243     1.0  0.67490  0.24292  0.11299  1.0000
  H   H5550     1.0  0.50628  0.31763  0.09728  1.0000
  H   H5551     1.0  0.73684  0.32336  0.22123  1.0000
  C   C3244     1.0  0.51175  0.31449  0.12487  1.0000
  H   H5552     1.0  0.49645  0.28023  0.15315  1.0000
  N   N235      1.0  0.50145  0.30772  0.12074  1.0000
  H   H5553     1.0  0.74217  0.48307  0.17837  1.0000
  H   H5554     1.0  0.74332  0.42884  0.18614  1.0000
  C   C3245     1.0  0.73545  0.27496  0.97787  1.0000
  H   H5555     1.0  0.72080  0.42355  0.20556  1.0000
  H   H5556     1.0  0.73726  0.41356  0.18561  1.0000
  C   C3246     1.0  0.74382  0.32947  0.21208  1.0000
  H   H5557     1.0  0.65721  0.48001  0.16671  1.0000
  H   H5558     1.0  0.59084  0.23412  0.14907  1.0000
  H   H5559     1.0  0.73951  0.39030  0.19299  1.0000
  H   H5560     1.0  0.74409  0.26495  0.97812  1.0000
  S   S937      1.0  0.73860  0.45459  0.19745  1.0000
  H   H5561     1.0  0.73923  0.23893  0.99524  1.0000
  H   H5562     1.0  0.57210  0.23852  0.13231  1.0000
  H   H5563     1.0  0.62145  0.23900  0.10190  1.0000
  S   S938      1.0  0.61385  0.23354  0.16974  1.0000
  H   H5564     1.0  0.61783  0.27880  0.97753  1.0000
  Fe  Fe469     1.0  0.69773  0.34792  0.93790  1.0000
  S   S939      1.0  0.69470  0.36560  0.95038  1.0000
  C   C3247     1.0  0.71279  0.29006  0.97032  1.0000
  S   S940      1.0  0.66951  0.33458  0.90705  1.0000
  S   S941      1.0  0.68070  0.33399  0.94328  1.0000
  Fe  Fe470     1.0  0.62949  0.25051  0.90063  1.0000
  S   S942      1.0  0.60641  0.24673  0.91080  1.0000
  H   H5565     1.0  0.67851  0.38773  0.88654  1.0000
  Fe  Fe471     1.0  0.62850  0.26853  0.92206  1.0000
  S   S943      1.0  0.60518  0.26622  0.93431  1.0000
  S   S944      1.0  0.64297  0.27664  0.93176  1.0000
  Fe  Fe472     1.0  0.61265  0.24261  0.93233  1.0000
  H   H5566     1.0  0.62973  0.27948  0.95983  1.0000
  Fe  Fe473     1.0  0.60032  0.27059  0.91185  1.0000
  S   S945      1.0  0.57722  0.28380  0.90919  1.0000
  S   S946      1.0  0.63636  0.24428  0.92223  1.0000
  S   S947      1.0  0.62313  0.27503  0.89955  1.0000
  Fe  Fe474     1.0  0.70186  0.44932  0.92571  1.0000
  S   S948      1.0  0.71711  0.46161  0.90711  1.0000
  S   S949      1.0  0.69607  0.43217  0.91765  1.0000
  H   H5567     1.0  0.50835  0.32523  0.84877  1.0000
  H   H5568     1.0  0.67439  0.37465  0.92811  1.0000
  H   H5569     1.0  0.65456  0.26368  0.95814  1.0000
  Fe  Fe475     1.0  0.70018  0.31474  0.94439  1.0000
  C   C3248     1.0  0.50658  0.31932  0.86056  1.0000
  S   S950      1.0  0.71533  0.44557  0.94267  1.0000
  H   H5570     1.0  0.73865  0.25671  0.90857  1.0000
  H   H5571     1.0  0.58032  0.23556  0.92407  1.0000
  Fe  Fe476     1.0  0.51218  0.25297  0.90247  1.0000
  H   H5572     1.0  0.65435  0.24050  0.95382  1.0000
  S   S951      1.0  0.53739  0.24683  0.89854  1.0000
  H   H5573     1.0  0.63098  0.38967  0.91747  1.0000
  H   H5574     1.0  0.50398  0.30863  0.86121  1.0000
  Fe  Fe477     1.0  0.72976  0.45881  0.92433  1.0000
  H   H5575     1.0  0.70531  0.25085  0.90997  1.0000
  C   C3249     1.0  0.52040  0.29152  0.88149  1.0000
  C   C3250     1.0  0.65392  0.36574  0.92113  1.0000
  H   H5576     1.0  0.62349  0.41061  0.93026  1.0000
  C   C3251     1.0  0.65180  0.25529  0.96848  1.0000
  H   H5577     1.0  0.66055  0.40043  0.90478  1.0000
  Fe  Fe478     1.0  0.70173  0.46774  0.94694  1.0000
  H   H5578     1.0  0.54214  0.23475  0.83854  1.0000
  C   C3252     1.0  0.70894  0.48186  0.97079  1.0000
  C   C3253     1.0  0.52069  0.31735  0.86636  1.0000
  S   S952      1.0  0.71675  0.32838  0.94138  1.0000
  C   C3254     1.0  0.69640  0.27343  0.93474  1.0000
  H   H5579     1.0  0.72909  0.40496  0.91597  1.0000
  C   C3255     1.0  0.60954  0.25542  0.97481  1.0000
  S   S953      1.0  0.71739  0.48050  0.92994  1.0000
  C   C3256     1.0  0.66321  0.38204  0.93071  1.0000
  H   H5580     1.0  0.69243  0.28029  0.89761  1.0000
  H   H5581     1.0  0.65207  0.39014  0.89805  1.0000
  C   C3257     1.0  0.72055  0.25712  0.92864  1.0000
  N   N236      1.0  0.63527  0.25890  0.97556  1.0000
  S   S954      1.0  0.74364  0.32563  0.90375  1.0000
  H   H5582     1.0  0.71711  0.28329  0.91074  1.0000
  H   H5583     1.0  0.72927  0.24139  0.91378  1.0000
  H   H5584     1.0  0.65870  0.25583  0.97581  1.0000
  H   H5585     1.0  0.61469  0.25136  0.87837  1.0000
  C   C3258     1.0  0.73503  0.38054  0.93545  1.0000
  H   H5586     1.0  0.63163  0.36175  0.93317  1.0000
  H   H5587     1.0  0.63873  0.41313  0.91489  1.0000
  H   H5588     1.0  0.73478  0.41300  0.95914  1.0000
  C   C3259     1.0  0.73937  0.41135  0.93628  1.0000
  H   H5589     1.0  0.49667  0.32620  0.86659  1.0000
  H   H5590     1.0  0.65043  0.28242  0.97059  1.0000
  Fe  Fe479     1.0  0.72010  0.32975  0.91723  1.0000
  H   H5591     1.0  0.72721  0.41397  0.93636  1.0000
  H   H5592     1.0  0.55925  0.30231  0.88074  1.0000
  H   H5593     1.0  0.52402  0.28361  0.89130  1.0000
  C   C3260     1.0  0.56604  0.27367  0.90617  1.0000
  C   C3261     1.0  0.57197  0.26430  0.89625  1.0000
  C   C3262     1.0  0.56285  0.25664  0.89357  1.0000
  C   C3263     1.0  0.54780  0.25806  0.90097  1.0000
  C   C3264     1.0  0.54180  0.26744  0.91090  1.0000
  C   C3265     1.0  0.55090  0.27532  0.91339  1.0000
  H   H5594     1.0  0.58356  0.26317  0.89043  1.0000
  H   H5595     1.0  0.56753  0.24948  0.88579  1.0000
  H   H5596     1.0  0.53027  0.26840  0.91684  1.0000
  H   H5597     1.0  0.54627  0.28255  0.92110  1.0000
  C   C3266     1.0  0.69613  0.38386  0.94111  1.0000
  C   C3267     1.0  0.69870  0.38816  0.92573  1.0000
  C   C3268     1.0  0.69874  0.40302  0.91870  1.0000
  C   C3269     1.0  0.69680  0.41356  0.92696  1.0000
  C   C3270     1.0  0.69486  0.40915  0.94231  1.0000
  C   C3271     1.0  0.69431  0.39436  0.94938  1.0000
  H   H5598     1.0  0.70050  0.38009  0.91926  1.0000
  H   H5599     1.0  0.70035  0.40638  0.90680  1.0000
  H   H5600     1.0  0.69327  0.41722  0.94875  1.0000
  H   H5601     1.0  0.69236  0.39107  0.96130  1.0000
  C   C3272     1.0  0.66162  0.31878  0.91393  1.0000
  C   C3273     1.0  0.65322  0.31551  0.90589  1.0000
  C   C3274     1.0  0.64723  0.30271  0.91121  1.0000
  C   C3275     1.0  0.64948  0.29324  0.92468  1.0000
  C   C3276     1.0  0.65759  0.29671  0.93282  1.0000
  C   C3277     1.0  0.66374  0.30932  0.92744  1.0000
  H   H5602     1.0  0.65153  0.32277  0.89543  1.0000
  H   H5603     1.0  0.64099  0.30013  0.90484  1.0000
  C   C3278     1.0  0.68252  0.25843  0.92122  1.0000
  C   C3279     1.0  0.64348  0.35747  0.93405  1.0000
  H   H5604     1.0  0.70118  0.24354  0.92934  1.0000
  H   H5605     1.0  0.64470  0.35771  0.94499  1.0000
  S   S955      1.0  0.70201  0.35017  0.91335  1.0000
  C   C3280     1.0  0.50782  0.31329  0.89218  1.0000
  H   H5606     1.0  0.65935  0.28949  0.94325  1.0000
  H   H5607     1.0  0.53846  0.29041  0.86064  1.0000
  H   H5608     1.0  0.64542  0.37999  0.95154  1.0000
  H   H5609     1.0  0.66211  0.36541  0.95163  1.0000
  S   S956      1.0  0.70540  0.31409  0.92057  1.0000
  C   C3281     1.0  0.71348  0.30122  0.97654  1.0000
  H   H5610     1.0  0.72321  0.26834  0.96608  1.0000
  H   H5611     1.0  0.52584  0.24708  0.84616  1.0000
  C   C3282     1.0  0.65766  0.37739  0.94759  1.0000
  H   H5612     1.0  0.64175  0.40712  0.93358  1.0000
  C   C3283     1.0  0.69952  0.25398  0.92074  1.0000
  C   C3284     1.0  0.71069  0.27610  0.90901  1.0000
  H   H5613     1.0  0.65104  0.36514  0.91092  1.0000
  H   H5614     1.0  0.50727  0.32519  0.89134  1.0000
  H   H5615     1.0  0.53527  0.30005  0.89717  1.0000
  C   C3285     1.0  0.69232  0.26385  0.95039  1.0000
  H   H5616     1.0  0.70264  0.29446  0.89216  1.0000
  C   C3286     1.0  0.62968  0.27549  0.97178  1.0000
  H   H5617     1.0  0.73324  0.35562  0.90826  1.0000
  H   H5618     1.0  0.74198  0.24192  0.92397  1.0000
  H   H5619     1.0  0.55203  0.28894  0.87721  1.0000
  S   S957      1.0  0.69390  0.47709  0.96740  1.0000
  H   H5620     1.0  0.50857  0.29103  0.88283  1.0000
  H   H5621     1.0  0.63391  0.29667  0.97121  1.0000
  S   S958      1.0  0.50341  0.26204  0.88180  1.0000
  C   C3287     1.0  0.69788  0.28645  0.90188  1.0000
  H   H5622     1.0  0.67575  0.36996  0.89708  1.0000
  H   H5623     1.0  0.72540  0.46422  0.96212  1.0000
  H   H5624     1.0  0.70169  0.28197  0.93564  1.0000
  C   C3288     1.0  0.65820  0.24032  0.96372  1.0000
  C   C3289     1.0  0.50689  0.30544  0.90860  1.0000
  H   H5625     1.0  0.66584  0.39315  0.92820  1.0000
  H   H5626     1.0  0.56188  0.23920  0.92221  1.0000
  C   C3290     1.0  0.65969  0.38900  0.90538  1.0000
  C   C3291     1.0  0.73319  0.24890  0.91793  1.0000
  H   H5627     1.0  0.68579  0.27981  0.93166  1.0000
  H   H5628     1.0  0.73481  0.43086  0.91118  1.0000
  H   H5629     1.0  0.66186  0.38362  0.95306  1.0000
  H   H5630     1.0  0.68271  0.27041  0.95710  1.0000
  C   C3292     1.0  0.63831  0.28476  0.97564  1.0000
  H   H5631     1.0  0.52148  0.32857  0.86666  1.0000
  S   S959      1.0  0.68647  0.47012  0.93202  1.0000
  C   C3293     1.0  0.63754  0.38980  0.92531  1.0000
  H   H5632     1.0  0.55180  0.30708  0.86467  1.0000
  N   N237      1.0  0.70642  0.26516  0.92320  1.0000
  S   S960      1.0  0.64444  0.23817  0.88349  1.0000
  H   H5633     1.0  0.67778  0.27042  0.91836  1.0000
  C   C3294     1.0  0.67537  0.38128  0.89799  1.0000
  C   C3295     1.0  0.61902  0.24153  0.87389  1.0000
  C   C3296     1.0  0.53504  0.30697  0.88589  1.0000
  H   H5634     1.0  0.50883  0.29327  0.91038  1.0000
  H   H5635     1.0  0.72591  0.24358  0.96171  1.0000
  H   H5636     1.0  0.72531  0.26486  0.93174  1.0000
  H   H5637     1.0  0.67613  0.25356  0.93216  1.0000
  H   H5638     1.0  0.53454  0.27325  0.87150  1.0000
  H   H5639     1.0  0.51480  0.30829  0.91330  1.0000
  H   H5640     1.0  0.74242  0.42231  0.93333  1.0000
  C   C3297     1.0  0.53594  0.23867  0.84876  1.0000
  N   N238      1.0  0.52121  0.30700  0.88124  1.0000
  H   H5641     1.0  0.68954  0.29322  0.90929  1.0000
  H   H5642     1.0  0.68019  0.25355  0.91319  1.0000
  Fe  Fe480     1.0  0.68683  0.33419  0.91907  1.0000
  S   S961      1.0  0.69902  0.29315  0.96055  1.0000
  H   H5643     1.0  0.63030  0.23984  0.97159  1.0000
  C   C3298     1.0  0.74057  0.40449  0.95250  1.0000
  C   C3299     1.0  0.72344  0.47354  0.96709  1.0000
  H   H5644     1.0  0.53500  0.31835  0.88648  1.0000
  H   H5645     1.0  0.71822  0.27030  0.90032  1.0000
  H   H5646     1.0  0.56412  0.24465  0.94484  1.0000
  H   H5647     1.0  0.62902  0.25569  0.95702  1.0000
  C   C3300     1.0  0.52932  0.28509  0.86776  1.0000
  H   H5648     1.0  0.64633  0.34563  0.93342  1.0000
  H   H5649     1.0  0.72589  0.38763  0.94195  1.0000
  H   H5650     1.0  0.67016  0.31169  0.93376  1.0000
  H   H5651     1.0  0.71814  0.24856  0.93885  1.0000
  C   C3301     1.0  0.55022  0.30099  0.87635  1.0000
  H   H5652     1.0  0.59874  0.24322  0.86726  1.0000
  C   C3302     1.0  0.63551  0.40607  0.92597  1.0000
  H   H5653     1.0  0.63165  0.38438  0.93622  1.0000
  H   H5654     1.0  0.70170  0.26078  0.95610  1.0000
  H   H5655     1.0  0.52166  0.28518  0.86094  1.0000
  H   H5656     1.0  0.66544  0.35888  0.92094  1.0000
  H   H5657     1.0  0.49723  0.31303  0.88971  1.0000
  N   N239      1.0  0.65348  0.38154  0.92105  1.0000
  H   H5658     1.0  0.53042  0.31395  0.85767  1.0000
  H   H5659     1.0  0.68916  0.25369  0.95032  1.0000
  C   C3303     1.0  0.73915  0.42309  0.90366  1.0000
  H   H5660     1.0  0.68400  0.38097  0.90376  1.0000
  H   H5661     1.0  0.73670  0.36910  0.94229  1.0000
  S   S962      1.0  0.50019  0.23429  0.91053  1.0000
  H   H5662     1.0  0.54279  0.24438  0.85190  1.0000
  H   H5663     1.0  0.73134  0.38015  0.92570  1.0000
  H   H5664     1.0  0.67058  0.23833  0.96058  1.0000
  C   C3304     1.0  0.61003  0.23697  0.86753  1.0000
  C   C3305     1.0  0.74068  0.40678  0.91214  1.0000
  C   C3306     1.0  0.73536  0.47680  0.97041  1.0000
  C   C3307     1.0  0.72364  0.27685  0.97113  1.0000
  Fe  Fe481     1.0  0.70284  0.48199  0.91478  1.0000
  H   H5665     1.0  0.73486  0.39513  0.95738  1.0000
  H   H5666     1.0  0.73104  0.42565  0.89652  1.0000
  H   H5667     1.0  0.60482  0.24895  0.97007  1.0000
  H   H5668     1.0  0.70512  0.31148  0.97580  1.0000
  C   C3308     1.0  0.62667  0.25207  0.96930  1.0000
  H   H5669     1.0  0.60441  0.26722  0.97090  1.0000
  H   H5670     1.0  0.49548  0.30928  0.91504  1.0000
  Fe  Fe482     1.0  0.68034  0.61916  0.00007  1.0000
  H   H5671     1.0  0.57926  0.51490  0.13374  1.0000
  S   S963      1.0  0.69354  0.61161  0.01775  1.0000
  H   H5672     1.0  0.71671  0.50669  0.98525  1.0000
  H   H5673     1.0  0.56081  0.71954  0.34507  1.0000
  H   H5674     1.0  0.53713  0.60080  0.20755  1.0000
  H   H5675     1.0  0.55446  0.69357  0.26519  1.0000
  H   H5676     1.0  0.69223  0.50586  0.12270  1.0000
  H   H5677     1.0  0.49970  0.62039  0.15002  1.0000
  H   H5678     1.0  0.53224  0.62473  0.11968  1.0000
  C   C3309     1.0  0.67497  0.53077  0.15662  1.0000
  C   C3310     1.0  0.51401  0.61384  0.12473  1.0000
  H   H5679     1.0  0.68812  0.70497  0.02819  1.0000
  C   C3311     1.0  0.54617  0.57720  0.13502  1.0000
  C   C3312     1.0  0.54518  0.72290  0.24827  1.0000
  C   C3313     1.0  0.53146  0.56203  0.15497  1.0000
  H   H5680     1.0  0.59075  0.49137  0.15772  1.0000
  C   C3314     1.0  0.56901  0.62367  0.20620  1.0000
  Fe  Fe483     1.0  0.58973  0.57749  0.14761  1.0000
  S   S964      1.0  0.59072  0.56132  0.16932  1.0000
  S   S965      1.0  0.56934  0.58696  0.13769  1.0000
  Fe  Fe484     1.0  0.62283  0.57762  0.14061  1.0000
  S   S966      1.0  0.62650  0.56164  0.16173  1.0000
  S   S967      1.0  0.64371  0.58349  0.12516  1.0000
  Fe  Fe485     1.0  0.61233  0.54934  0.15701  1.0000
  Fe  Fe486     1.0  0.60485  0.57527  0.17189  1.0000
  S   S968      1.0  0.60299  0.58128  0.19333  1.0000
  S   S969      1.0  0.61018  0.56443  0.13505  1.0000
  S   S970      1.0  0.60229  0.59235  0.15108  1.0000
  H   H5681     1.0  0.59508  0.71808  0.35772  1.0000
  H   H5682     1.0  0.56514  0.53789  0.17771  1.0000
  C   C3315     1.0  0.73634  0.50272  0.14233  1.0000
  H   H5683     1.0  0.54168  0.67891  0.15132  1.0000
  Fe  Fe487     1.0  0.69096  0.65900  0.06397  1.0000
  S   S971      1.0  0.70989  0.65038  0.07569  1.0000
  S   S972      1.0  0.69305  0.66732  0.03962  1.0000
  Fe  Fe488     1.0  0.66751  0.65230  0.09155  1.0000
  S   S973      1.0  0.68416  0.64337  0.10588  1.0000
  S   S974      1.0  0.64342  0.65144  0.10099  1.0000
  Fe  Fe489     1.0  0.69420  0.66264  0.09261  1.0000
  S   S975      1.0  0.70358  0.67298  0.10497  1.0000
  Fe  Fe490     1.0  0.69820  0.63185  0.08797  1.0000
  S   S976      1.0  0.70790  0.60783  0.09611  1.0000
  S   S977      1.0  0.67609  0.67288  0.07989  1.0000
  S   S978      1.0  0.68082  0.63925  0.07454  1.0000
  Fe  Fe491     1.0  0.56784  0.67084  0.20276  1.0000
  S   S979      1.0  0.58705  0.66840  0.21299  1.0000
  S   S980      1.0  0.54565  0.66583  0.21583  1.0000
  Fe  Fe492     1.0  0.58351  0.68449  0.17225  1.0000
  S   S981      1.0  0.60411  0.68346  0.17950  1.0000
  S   S982      1.0  0.57924  0.69275  0.14943  1.0000
  Fe  Fe493     1.0  0.60124  0.66076  0.19245  1.0000
  S   S983      1.0  0.62001  0.64062  0.19189  1.0000
  Fe  Fe494     1.0  0.58826  0.69125  0.19922  1.0000
  S   S984      1.0  0.58935  0.71163  0.20554  1.0000
  S   S985      1.0  0.58203  0.66115  0.18352  1.0000
  S   S986      1.0  0.56782  0.69423  0.19073  1.0000
  C   C3316     1.0  0.58840  0.72316  0.22861  1.0000
  H   H5684     1.0  0.53384  0.67934  0.25986  1.0000
  C   C3317     1.0  0.73918  0.51037  0.11580  1.0000
  H   H5685     1.0  0.57187  0.57870  0.21156  1.0000
  H   H5686     1.0  0.60423  0.64820  0.01258  1.0000
  H   H5687     1.0  0.66874  0.65679  0.13322  1.0000
  H   H5688     1.0  0.57288  0.68546  0.23580  1.0000
  H   H5689     1.0  0.55970  0.61829  0.14573  1.0000
  H   H5690     1.0  0.64082  0.68344  0.04798  1.0000
  C   C3318     1.0  0.54892  0.71377  0.33271  1.0000
  C   C3319     1.0  0.50536  0.64739  0.13166  1.0000
  C   C3320     1.0  0.59681  0.64380  0.98874  1.0000
  H   H5691     1.0  0.53523  0.60665  0.13055  1.0000
  C   C3321     1.0  0.54997  0.62460  0.14076  1.0000
  C   C3322     1.0  0.56415  0.60676  0.19449  1.0000
  H   H5692     1.0  0.71872  0.58486  0.00711  1.0000
  S   S987      1.0  0.59872  0.70744  0.26893  1.0000
  H   H5693     1.0  0.67225  0.51173  0.12378  1.0000
  C   C3323     1.0  0.63296  0.51374  0.16552  1.0000
  C   C3324     1.0  0.73268  0.57549  0.06310  1.0000
  C   C3325     1.0  0.62070  0.66616  0.13909  1.0000
  C   C3326     1.0  0.63076  0.59805  0.98636  1.0000
  H   H5694     1.0  0.62239  0.65429  0.04460  1.0000
  H   H5695     1.0  0.69102  0.59729  0.14581  1.0000
  H   H5696     1.0  0.57640  0.60330  0.19034  1.0000
  H   H5697     1.0  0.65628  0.64296  0.03130  1.0000
  H   H5698     1.0  0.65298  0.52915  0.13949  1.0000
  H   H5699     1.0  0.68014  0.49359  0.13294  1.0000
  S   S988      1.0  0.51794  0.55119  0.16130  1.0000
  H   H5700     1.0  0.68624  0.50197  0.15101  1.0000
  C   C3327     1.0  0.72061  0.58226  0.99617  1.0000
  H   H5701     1.0  0.64924  0.69724  0.15264  1.0000
  H   H5702     1.0  0.57593  0.66864  0.99189  1.0000
  H   H5703     1.0  0.71990  0.54307  0.09729  1.0000
  C   C3328     1.0  0.50980  0.61792  0.15453  1.0000
  C   C3329     1.0  0.61815  0.59900  0.98115  1.0000
  H   H5704     1.0  0.61141  0.69577  0.12147  1.0000
  C   C3330     1.0  0.53839  0.71928  0.22098  1.0000
  C   C3331     1.0  0.70678  0.58181  0.05906  1.0000
  C   C3332     1.0  0.72428  0.55904  0.05349  1.0000
  C   C3333     1.0  0.67883  0.51058  0.14426  1.0000
  C   C3334     1.0  0.73899  0.60145  0.00726  1.0000
  H   H5705     1.0  0.49812  0.72718  0.15737  1.0000
  C   C3335     1.0  0.59227  0.71032  0.22305  1.0000
  C   C3336     1.0  0.59823  0.69675  0.23152  1.0000
  C   C3337     1.0  0.60026  0.69604  0.24556  1.0000
  C   C3338     1.0  0.59635  0.70886  0.25116  1.0000
  H   H5706     1.0  0.55740  0.53633  0.12866  1.0000
  C   C3339     1.0  0.64296  0.58612  0.98481  1.0000
  H   H5707     1.0  0.60134  0.68683  0.22725  1.0000
  H   H5708     1.0  0.60488  0.68552  0.25211  1.0000
  H   H5709     1.0  0.67591  0.52578  0.17977  1.0000
  H   H5710     1.0  0.67194  0.63127  0.05023  1.0000
  C   C3340     1.0  0.58308  0.71020  0.14052  1.0000
  C   C3341     1.0  0.59263  0.71591  0.14498  1.0000
  H   H5711     1.0  0.69685  0.57738  0.06021  1.0000
  H   H5712     1.0  0.56299  0.54662  0.14428  1.0000
  H   H5713     1.0  0.53461  0.68669  0.24026  1.0000
  C   C3342     1.0  0.57678  0.71829  0.12844  1.0000
  H   H5714     1.0  0.59744  0.70974  0.15437  1.0000
  N   N240      1.0  0.57207  0.52374  0.15353  1.0000
  H   H5715     1.0  0.52871  0.71543  0.19294  1.0000
  H   H5716     1.0  0.56939  0.71389  0.12497  1.0000
  C   C3343     1.0  0.69131  0.68763  0.11257  1.0000
  C   C3344     1.0  0.69254  0.68905  0.12615  1.0000
  C   C3345     1.0  0.68303  0.70056  0.13261  1.0000
  C   C3346     1.0  0.67252  0.71106  0.12536  1.0000
  C   C3347     1.0  0.67133  0.70982  0.11163  1.0000
  C   C3348     1.0  0.68060  0.69795  0.10532  1.0000
  H   H5717     1.0  0.70081  0.68116  0.13176  1.0000
  H   H5718     1.0  0.68397  0.70146  0.14321  1.0000
  H   H5719     1.0  0.51743  0.68936  0.25283  1.0000
  H   H5720     1.0  0.67974  0.69700  0.09473  1.0000
  H   H5721     1.0  0.52903  0.70251  0.26545  1.0000
  H   H5722     1.0  0.52815  0.64464  0.13146  1.0000
  Fe  Fe495     1.0  0.66275  0.64695  0.98356  1.0000
  C   C3349     1.0  0.72691  0.60240  0.08847  1.0000
  H   H5723     1.0  0.73207  0.49594  0.15279  1.0000
  C   C3350     1.0  0.52184  0.70701  0.19778  1.0000
  C   C3351     1.0  0.52950  0.68883  0.25144  1.0000
  H   H5724     1.0  0.51842  0.61072  0.11384  1.0000
  H   H5725     1.0  0.72713  0.62041  0.06932  1.0000
  H   H5726     1.0  0.63120  0.69272  0.16160  1.0000
  C   C3352     1.0  0.64282  0.60241  0.11770  1.0000
  C   C3353     1.0  0.65616  0.60695  0.11045  1.0000
  C   C3354     1.0  0.65623  0.62197  0.10566  1.0000
  C   C3355     1.0  0.64291  0.63264  0.10736  1.0000
  C   C3356     1.0  0.62941  0.62815  0.11426  1.0000
  C   C3357     1.0  0.62938  0.61300  0.11957  1.0000
  H   H5727     1.0  0.66659  0.59883  0.10900  1.0000
  H   H5728     1.0  0.66675  0.62517  0.10092  1.0000
  H   H5729     1.0  0.61905  0.63635  0.11568  1.0000
  H   H5730     1.0  0.61901  0.60955  0.12504  1.0000
  C   C3358     1.0  0.60737  0.59809  0.19255  1.0000
  C   C3359     1.0  0.61220  0.59939  0.20442  1.0000
  C   C3360     1.0  0.61575  0.61257  0.20428  1.0000
  C   C3361     1.0  0.61403  0.62477  0.19249  1.0000
  C   C3362     1.0  0.60883  0.62366  0.18072  1.0000
  C   C3363     1.0  0.60565  0.61027  0.18067  1.0000
  H   H5731     1.0  0.61348  0.59006  0.21366  1.0000
  H   H5732     1.0  0.61990  0.61332  0.21333  1.0000
  H   H5733     1.0  0.60759  0.63303  0.17152  1.0000
  H   H5734     1.0  0.60170  0.60948  0.17156  1.0000
  C   C3364     1.0  0.52261  0.65016  0.18952  1.0000
  C   C3365     1.0  0.53643  0.65391  0.18307  1.0000
  C   C3366     1.0  0.54311  0.65937  0.19095  1.0000
  C   C3367     1.0  0.53634  0.66060  0.20549  1.0000
  C   C3368     1.0  0.52222  0.65732  0.21181  1.0000
  C   C3369     1.0  0.51524  0.65227  0.20374  1.0000
  H   H5735     1.0  0.54201  0.65258  0.17197  1.0000
  H   H5736     1.0  0.55355  0.66252  0.18573  1.0000
  H   H5737     1.0  0.51675  0.65852  0.22298  1.0000
  H   H5738     1.0  0.61413  0.68643  0.14636  1.0000
  S   S989      1.0  0.51519  0.64209  0.17994  1.0000
  H   H5739     1.0  0.55802  0.57026  0.16685  1.0000
  C   C3370     1.0  0.53993  0.56235  0.16456  1.0000
  C   C3371     1.0  0.65056  0.63909  0.04295  1.0000
  H   H5740     1.0  0.73546  0.55063  0.08624  1.0000
  H   H5741     1.0  0.50226  0.59778  0.16735  1.0000
  H   H5742     1.0  0.66283  0.53076  0.16016  1.0000
  H   H5743     1.0  0.54789  0.70634  0.16906  1.0000
  H   H5744     1.0  0.56884  0.57545  0.23107  1.0000
  C   C3372     1.0  0.64042  0.49999  0.16202  1.0000
  H   H5745     1.0  0.69576  0.59014  0.07949  1.0000
  H   H5746     1.0  0.52800  0.56940  0.13275  1.0000
  H   H5747     1.0  0.54867  0.58279  0.12352  1.0000
  H   H5748     1.0  0.55314  0.58306  0.22269  1.0000
  C   C3373     1.0  0.53357  0.60778  0.21575  1.0000
  N   N241      1.0  0.54620  0.70773  0.24601  1.0000
  C   C3374     1.0  0.56496  0.58323  0.22130  1.0000
  C   C3375     1.0  0.62703  0.63622  0.07135  1.0000
  H   H5749     1.0  0.63761  0.67842  0.11404  1.0000
  N   N242      1.0  0.63680  0.68574  0.13373  1.0000
  H   H5750     1.0  0.56412  0.63377  0.19870  1.0000
  C   C3376     1.0  0.63415  0.66891  0.02722  1.0000
  H   H5751     1.0  0.53124  0.60074  0.22703  1.0000
  C   C3377     1.0  0.65213  0.67692  0.13572  1.0000
  C   C3378     1.0  0.55480  0.57734  0.14454  1.0000
  N   N243      1.0  0.51900  0.70435  0.17283  1.0000
  H   H5752     1.0  0.70986  0.58702  0.04710  1.0000
  H   H5753     1.0  0.58510  0.55380  0.12792  1.0000
  H   H5754     1.0  0.68618  0.70926  0.99863  1.0000
  H   H5755     1.0  0.65649  0.66167  0.12092  1.0000
  H   H5756     1.0  0.54070  0.62844  0.20783  1.0000
  C   C3379     1.0  0.69503  0.62726  0.02260  1.0000
  C   C3380     1.0  0.70231  0.62557  0.03386  1.0000
  C   C3381     1.0  0.70219  0.63796  0.03880  1.0000
  C   C3382     1.0  0.69521  0.65210  0.03214  1.0000
  C   C3383     1.0  0.68868  0.65387  0.02032  1.0000
  C   C3384     1.0  0.68832  0.64144  0.01578  1.0000
  H   H5757     1.0  0.70763  0.61468  0.03905  1.0000
  H   H5758     1.0  0.70739  0.63656  0.04785  1.0000
  H   H5759     1.0  0.68327  0.66477  0.01513  1.0000
  H   H5760     1.0  0.68247  0.64289  0.00726  1.0000
  H   H5761     1.0  0.59413  0.49487  0.17379  1.0000
  H   H5762     1.0  0.58098  0.63180  0.98793  1.0000
  C   C3385     1.0  0.67471  0.73231  0.01953  1.0000
  H   H5763     1.0  0.51371  0.72749  0.37136  1.0000
  H   H5764     1.0  0.58367  0.53774  0.12327  1.0000
  C   C3386     1.0  0.58659  0.49848  0.16593  1.0000
  H   H5765     1.0  0.51897  0.59439  0.15343  1.0000
  H   H5766     1.0  0.53567  0.69093  0.18556  1.0000
  C   C3387     1.0  0.65153  0.49062  0.16940  1.0000
  H   H5767     1.0  0.74461  0.57683  0.99302  1.0000
  H   H5768     1.0  0.54469  0.69699  0.14819  1.0000
  H   H5769     1.0  0.53615  0.72972  0.37087  1.0000
  H   H5770     1.0  0.54581  0.71141  0.35614  1.0000
  H   H5771     1.0  0.53973  0.60646  0.15270  1.0000
  S   S990      1.0  0.74442  0.54939  0.01575  1.0000
  C   C3388     1.0  0.73335  0.50172  0.12934  1.0000
  H   H5772     1.0  0.53542  0.73098  0.24452  1.0000
  H   H5773     1.0  0.55518  0.72731  0.24143  1.0000
  C   C3389     1.0  0.63477  0.70058  0.13726  1.0000
  H   H5774     1.0  0.64956  0.73321  0.01265  1.0000
  H   H5775     1.0  0.52557  0.70008  0.20796  1.0000
  H   H5776     1.0  0.62115  0.71072  0.11325  1.0000
  C   C3390     1.0  0.56736  0.59867  0.22030  1.0000
  H   H5777     1.0  0.69389  0.52161  0.16793  1.0000
  H   H5778     1.0  0.65314  0.67502  0.14733  1.0000
  H   H5779     1.0  0.50981  0.60426  0.13250  1.0000
  H   H5780     1.0  0.62335  0.70731  0.13682  1.0000
  H   H5781     1.0  0.54906  0.53247  0.16347  1.0000
  H   H5782     1.0  0.66077  0.68319  0.12881  1.0000
  H   H5783     1.0  0.66738  0.50986  0.15068  1.0000
  C   C3391     1.0  0.66243  0.62693  0.05013  1.0000
  H   H5784     1.0  0.55504  0.51348  0.17019  1.0000
  H   H5785     1.0  0.49576  0.68528  0.22754  1.0000
  H   H5786     1.0  0.68087  0.50970  0.17239  1.0000
  C   C3392     1.0  0.54015  0.68807  0.15683  1.0000
  H   H5787     1.0  0.59587  0.51464  0.14846  1.0000
  C   C3393     1.0  0.58161  0.67662  0.98312  1.0000
  H   H5788     1.0  0.55987  0.59685  0.19570  1.0000
  C   C3394     1.0  0.65487  0.66091  0.04787  1.0000
  H   H5789     1.0  0.70335  0.55854  0.08088  1.0000
  H   H5790     1.0  0.56708  0.50552  0.14829  1.0000
  H   H5791     1.0  0.71608  0.53602  0.13379  1.0000
  N   N244      1.0  0.68160  0.52574  0.14228  1.0000
  C   C3395     1.0  0.55790  0.61853  0.18193  1.0000
  H   H5792     1.0  0.71538  0.61972  0.11890  1.0000
  H   H5793     1.0  0.52190  0.71241  0.24992  1.0000
  H   H5794     1.0  0.70409  0.51532  0.14547  1.0000
  H   H5795     1.0  0.66704  0.61830  0.04348  1.0000
  H   H5796     1.0  0.52283  0.61522  0.21351  1.0000
  H   H5797     1.0  0.55198  0.69784  0.22683  1.0000
  C   C3396     1.0  0.64930  0.67530  0.05368  1.0000
  N   N245      1.0  0.60550  0.65556  0.98015  1.0000
  C   C3397     1.0  0.67170  0.68520  0.97762  1.0000
  H   H5798     1.0  0.55447  0.51899  0.12832  1.0000
  H   H5799     1.0  0.70044  0.54188  0.14759  1.0000
  H   H5800     1.0  0.63173  0.65628  0.07201  1.0000
  N   N246      1.0  0.65874  0.59916  0.15771  1.0000
  C   C3398     1.0  0.66858  0.59886  0.14249  1.0000
  C   C3399     1.0  0.64302  0.60632  0.15569  1.0000
  C   C3400     1.0  0.65965  0.58329  0.16625  1.0000
  C   C3401     1.0  0.66454  0.60774  0.16491  1.0000
  C   C3402     1.0  0.68522  0.59123  0.14179  1.0000
  C   C3403     1.0  0.64005  0.62303  0.14857  1.0000
  C   C3404     1.0  0.64673  0.57998  0.17959  1.0000
  C   C3405     1.0  0.65509  0.61103  0.17988  1.0000
  H   H5801     1.0  0.66429  0.59306  0.13663  1.0000
  H   H5802     1.0  0.66849  0.61020  0.13553  1.0000
  H   H5803     1.0  0.63474  0.60523  0.16628  1.0000
  H   H5804     1.0  0.63966  0.60053  0.14906  1.0000
  H   H5805     1.0  0.66012  0.57601  0.15888  1.0000
  H   H5806     1.0  0.67014  0.57894  0.17043  1.0000
  H   H5807     1.0  0.67577  0.60172  0.16700  1.0000
  H   H5808     1.0  0.66654  0.61842  0.15734  1.0000
  H   H5809     1.0  0.69092  0.59131  0.13004  1.0000
  H   H5810     1.0  0.68677  0.57949  0.14781  1.0000
  H   H5811     1.0  0.64715  0.62571  0.13741  1.0000
  H   H5812     1.0  0.62829  0.62674  0.14727  1.0000
  H   H5813     1.0  0.64128  0.62961  0.15573  1.0000
  H   H5814     1.0  0.60445  0.63349  0.99317  1.0000
  H   H5815     1.0  0.64437  0.58693  0.18766  1.0000
  H   H5816     1.0  0.64971  0.56829  0.18558  1.0000
  H   H5817     1.0  0.65876  0.60228  0.18922  1.0000
  H   H5818     1.0  0.64302  0.61236  0.18109  1.0000
  H   H5819     1.0  0.65627  0.62180  0.18094  1.0000
  C   C3406     1.0  0.63029  0.66122  0.04373  1.0000
  H   H5820     1.0  0.66325  0.71791  0.10595  1.0000
  C   C3407     1.0  0.59037  0.72243  0.24267  1.0000
  H   H5821     1.0  0.54698  0.68365  0.16528  1.0000
  H   H5822     1.0  0.55062  0.52858  0.18858  1.0000
  C   C3408     1.0  0.54369  0.72400  0.26429  1.0000
  H   H5823     1.0  0.51831  0.69767  0.15341  1.0000
  H   H5824     1.0  0.72011  0.61034  0.99649  1.0000
  H   H5825     1.0  0.55381  0.72056  0.32211  1.0000
  C   C3409     1.0  0.56611  0.68282  0.24716  1.0000
  H   H5826     1.0  0.71774  0.54324  0.04577  1.0000
  C   C3410     1.0  0.70105  0.59421  0.06780  1.0000
  S   S991      1.0  0.66063  0.72497  0.13432  1.0000
  C   C3411     1.0  0.72392  0.62538  0.11919  1.0000
  C   C3412     1.0  0.53596  0.61873  0.15009  1.0000
  H   H5827     1.0  0.71152  0.56931  0.08715  1.0000
  H   H5828     1.0  0.72985  0.59723  0.04750  1.0000
  H   H5829     1.0  0.72717  0.56505  0.04180  1.0000
  H   H5830     1.0  0.59714  0.53662  0.13383  1.0000
  H   H5831     1.0  0.65740  0.71567  0.06197  1.0000
  S   S992      1.0  0.63093  0.61173  0.99503  1.0000
  H   H5832     1.0  0.53298  0.62210  0.16086  1.0000
  C   C3413     1.0  0.65744  0.71904  0.03872  1.0000
  H   H5833     1.0  0.50826  0.64600  0.12012  1.0000
  Fe  Fe496     1.0  0.59481  0.72836  0.27683  1.0000
  C   C3414     1.0  0.54457  0.61732  0.21456  1.0000
  H   H5834     1.0  0.66014  0.66389  0.03595  1.0000
  H   H5835     1.0  0.51850  0.72745  0.17029  1.0000
  H   H5836     1.0  0.51962  0.59873  0.17017  1.0000
  C   C3415     1.0  0.56918  0.62869  0.21996  1.0000
  H   H5837     1.0  0.50268  0.65950  0.13101  1.0000
  C   C3416     1.0  0.65692  0.66144  0.13229  1.0000
  S   S993      1.0  0.73614  0.53662  0.98331  1.0000
  H   H5838     1.0  0.70285  0.52174  0.12679  1.0000
  H   H5839     1.0  0.51628  0.64457  0.14927  1.0000
  H   H5840     1.0  0.64486  0.67321  0.06579  1.0000
  H   H5841     1.0  0.62782  0.67291  0.15507  1.0000
  C   C3417     1.0  0.67872  0.70494  0.02351  1.0000
  C   C3418     1.0  0.71281  0.55027  0.05405  1.0000
  H   H5842     1.0  0.64113  0.67703  0.02510  1.0000
  C   C3419     1.0  0.68198  0.52133  0.16977  1.0000
  C   C3420     1.0  0.71407  0.56173  0.07952  1.0000
  H   H5843     1.0  0.73020  0.58330  0.10623  1.0000
  H   H5844     1.0  0.51892  0.68315  0.16944  1.0000
  H   H5845     1.0  0.50448  0.62337  0.12348  1.0000
  S   S994      1.0  0.65633  0.63096  0.00475  1.0000
  H   H5846     1.0  0.51008  0.71258  0.20140  1.0000
  H   H5847     1.0  0.56287  0.72742  0.36418  1.0000
  H   H5848     1.0  0.65140  0.54830  0.13873  1.0000
  H   H5849     1.0  0.74344  0.63649  0.07340  1.0000
  N   N247      1.0  0.52260  0.62340  0.14307  1.0000
  C   C3421     1.0  0.52382  0.69689  0.18723  1.0000
  C   C3422     1.0  0.53447  0.56964  0.14023  1.0000
  H   H5850     1.0  0.54293  0.72563  0.16887  1.0000
  H   H5851     1.0  0.53750  0.55661  0.17601  1.0000
  H   H5852     1.0  0.56311  0.62824  0.17838  1.0000
  H   H5853     1.0  0.61621  0.64186  0.06817  1.0000
  H   H5854     1.0  0.65405  0.54182  0.12221  1.0000
  H   H5855     1.0  0.49507  0.64345  0.13784  1.0000
  H   H5856     1.0  0.54252  0.61944  0.22577  1.0000
  H   H5857     1.0  0.73020  0.60413  0.01704  1.0000
  H   H5858     1.0  0.67633  0.54804  0.12935  1.0000
  C   C3423     1.0  0.55157  0.57001  0.15938  1.0000
  H   H5859     1.0  0.73479  0.61951  0.98921  1.0000
  H   H5860     1.0  0.50631  0.62383  0.16376  1.0000
  H   H5861     1.0  0.69226  0.60285  0.06288  1.0000
  H   H5862     1.0  0.56077  0.71234  0.22457  1.0000
  C   C3424     1.0  0.68553  0.70017  0.00856  1.0000
  C   C3425     1.0  0.52335  0.69323  0.16323  1.0000
  H   H5863     1.0  0.53691  0.73096  0.22140  1.0000
  H   H5864     1.0  0.65893  0.68050  0.05149  1.0000
  C   C3426     1.0  0.55853  0.69704  0.25303  1.0000
  H   H5865     1.0  0.58088  0.62043  0.20052  1.0000
  N   N248      1.0  0.64338  0.65199  0.05035  1.0000
  H   H5866     1.0  0.64738  0.64133  0.07232  1.0000
  H   H5867     1.0  0.55821  0.67631  0.24734  1.0000
  H   H5868     1.0  0.64797  0.72888  0.03866  1.0000
  C   C3427     1.0  0.73620  0.58404  0.98662  1.0000
  C   C3428     1.0  0.68105  0.50535  0.12997  1.0000
  S   S995      1.0  0.49805  0.56202  0.12708  1.0000
  H   H5869     1.0  0.54249  0.71879  0.20916  1.0000
  H   H5870     1.0  0.67975  0.53445  0.11932  1.0000
  N   N249      1.0  0.56098  0.61138  0.20894  1.0000
  C   C3429     1.0  0.56919  0.51677  0.14277  1.0000
  H   H5871     1.0  0.50446  0.64946  0.20874  1.0000
  H   H5872     1.0  0.58961  0.52022  0.16526  1.0000
  C   C3430     1.0  0.69826  0.52460  0.13781  1.0000
  H   H5873     1.0  0.62365  0.66987  0.05001  1.0000
  H   H5874     1.0  0.61034  0.67080  0.13475  1.0000
  H   H5875     1.0  0.69978  0.54796  0.12816  1.0000
  H   H5876     1.0  0.62454  0.63255  0.08359  1.0000
  C   C3431     1.0  0.62478  0.67812  0.14416  1.0000
  C   C3432     1.0  0.65728  0.53910  0.13300  1.0000
  H   H5877     1.0  0.64202  0.63366  0.04221  1.0000
  C   C3433     1.0  0.55576  0.52538  0.13565  1.0000
  C   C3434     1.0  0.63717  0.70027  0.15250  1.0000
  C   C3435     1.0  0.65498  0.49487  0.18053  1.0000
  H   H5878     1.0  0.56285  0.60100  0.23156  1.0000
  H   H5879     1.0  0.63179  0.62609  0.06689  1.0000
  H   H5880     1.0  0.66423  0.65427  0.05316  1.0000
  H   H5881     1.0  0.61692  0.66973  0.98483  1.0000
  H   H5882     1.0  0.64985  0.51175  0.19291  1.0000
  H   H5883     1.0  0.69572  0.72592  0.00384  1.0000
  H   H5884     1.0  0.73049  0.58109  0.07231  1.0000
  C   C3436     1.0  0.70366  0.53855  0.13686  1.0000
  H   H5885     1.0  0.54557  0.62209  0.18499  1.0000
  H   H5886     1.0  0.57401  0.67561  0.25413  1.0000
  C   C3437     1.0  0.58632  0.51487  0.15819  1.0000
  C   C3438     1.0  0.59636  0.72945  0.13692  1.0000
  H   H5887     1.0  0.57494  0.63807  0.21631  1.0000
  H   H5888     1.0  0.59383  0.66684  0.00662  1.0000
  H   H5889     1.0  0.74250  0.58924  0.00959  1.0000
  H   H5890     1.0  0.72809  0.53905  0.07948  1.0000
  C   C3439     1.0  0.63655  0.51806  0.17650  1.0000
  C   C3440     1.0  0.60506  0.65948  0.00589  1.0000
  H   H5891     1.0  0.63635  0.58105  0.17598  1.0000
  S   S996      1.0  0.58746  0.72971  0.32979  1.0000
  S   S997      1.0  0.61905  0.52519  0.15614  1.0000
  C   C3441     1.0  0.67442  0.53688  0.13046  1.0000
  N   N250      1.0  0.73850  0.59969  0.98117  1.0000
  H   H5892     1.0  0.65779  0.62127  0.06149  1.0000
  H   H5893     1.0  0.56782  0.70253  0.25159  1.0000
  C   C3442     1.0  0.63786  0.64678  0.06675  1.0000
  N   N251      1.0  0.71942  0.56953  0.06380  1.0000
  N   N252      1.0  0.66730  0.71940  0.02341  1.0000
  H   H5894     1.0  0.53765  0.71283  0.33263  1.0000
  Fe  Fe497     1.0  0.49799  0.56060  0.15074  1.0000
  C   C3443     1.0  0.63610  0.68870  0.11773  1.0000
  H   H5895     1.0  0.61787  0.65730  0.14891  1.0000
  C   C3444     1.0  0.55004  0.70873  0.22958  1.0000
  C   C3445     1.0  0.73505  0.62681  0.10409  1.0000
  H   H5896     1.0  0.54865  0.63639  0.14080  1.0000
  H   H5897     1.0  0.63969  0.66085  0.02006  1.0000
  C   C3446     1.0  0.64738  0.50854  0.18414  1.0000
  H   H5898     1.0  0.62955  0.66068  0.13100  1.0000
  H   H5899     1.0  0.62364  0.67523  0.02363  1.0000
  H   H5900     1.0  0.65386  0.69920  0.01859  1.0000
  H   H5901     1.0  0.70991  0.59976  0.06735  1.0000
  C   C3447     1.0  0.64737  0.71076  0.01656  1.0000
  H   H5902     1.0  0.57556  0.61985  0.22743  1.0000
  H   H5903     1.0  0.55778  0.63283  0.22614  1.0000
  H   H5904     1.0  0.63290  0.71157  0.15473  1.0000
  H   H5905     1.0  0.52747  0.71601  0.22483  1.0000
  H   H5906     1.0  0.62112  0.69843  0.10251  1.0000
  H   H5907     1.0  0.56058  0.61359  0.17216  1.0000
  H   H5908     1.0  0.57972  0.59730  0.21816  1.0000
  H   H5909     1.0  0.63763  0.49657  0.15356  1.0000
  H   H5910     1.0  0.49807  0.71604  0.18453  1.0000
  C   C3448     1.0  0.51534  0.72473  0.36055  1.0000
  H   H5911     1.0  0.58408  0.68452  0.98806  1.0000
  C   C3449     1.0  0.58565  0.54172  0.13209  1.0000
  C   C3450     1.0  0.51865  0.64010  0.13920  1.0000
  H   H5912     1.0  0.67954  0.67463  0.97796  1.0000
  S   S998      1.0  0.72204  0.49005  0.12978  1.0000
  H   H5913     1.0  0.71988  0.57053  0.99829  1.0000
  H   H5914     1.0  0.61154  0.66380  0.01100  1.0000
  H   H5915     1.0  0.64556  0.69375  0.11047  1.0000
  C   C3451     1.0  0.55893  0.52403  0.16659  1.0000
  H   H5916     1.0  0.73698  0.50952  0.10571  1.0000
  H   H5917     1.0  0.55285  0.62307  0.12927  1.0000
  C   C3452     1.0  0.62154  0.69900  0.11370  1.0000
  H   H5918     1.0  0.67548  0.54246  0.15525  1.0000
  H   H5919     1.0  0.63071  0.52855  0.17941  1.0000
  H   H5920     1.0  0.56948  0.51822  0.18567  1.0000
  C   C3453     1.0  0.54893  0.71972  0.34588  1.0000
  C   C3454     1.0  0.71861  0.49756  0.98005  1.0000
  C   C3455     1.0  0.64634  0.69960  0.97981  1.0000
  C   C3456     1.0  0.51298  0.60122  0.16166  1.0000
  H   H5921     1.0  0.64238  0.70721  0.12880  1.0000
  H   H5922     1.0  0.67357  0.69573  0.03094  1.0000
  H   H5923     1.0  0.73466  0.55080  0.05558  1.0000
  H   H5924     1.0  0.64229  0.71243  0.00703  1.0000
  H   H5925     1.0  0.58874  0.64691  0.99868  1.0000
  H   H5926     1.0  0.65221  0.70929  0.04250  1.0000
  C   C3457     1.0  0.57375  0.53943  0.14659  1.0000
  S   S999      1.0  0.61055  0.73021  0.28931  1.0000
  C   C3458     1.0  0.50211  0.70866  0.17659  1.0000
  H   H5927     1.0  0.52327  0.72162  0.15341  1.0000
  H   H5928     1.0  0.65028  0.65378  0.14048  1.0000
  C   C3459     1.0  0.52501  0.71806  0.16492  1.0000
  H   H5929     1.0  0.60869  0.60819  0.98236  1.0000
  H   H5930     1.0  0.69533  0.50035  0.98020  1.0000
  H   H5931     1.0  0.54511  0.52687  0.14400  1.0000
  H   H5932     1.0  0.62413  0.65054  0.99084  1.0000
  C   C3460     1.0  0.52672  0.61720  0.12937  1.0000
  C   C3461     1.0  0.72514  0.54785  0.08575  1.0000
  C   C3462     1.0  0.54175  0.71713  0.16381  1.0000
  H   H5933     1.0  0.72821  0.63230  0.09569  1.0000
  H   H5934     1.0  0.49534  0.70973  0.15608  1.0000
  H   H5935     1.0  0.55617  0.70246  0.33348  1.0000
  C   C3463     1.0  0.53137  0.70352  0.25332  1.0000
  C   C3464     1.0  0.56140  0.52738  0.18031  1.0000
  H   H5936     1.0  0.57666  0.54423  0.15433  1.0000
  H   H5937     1.0  0.51757  0.68804  0.19350  1.0000
  H   H5938     1.0  0.64520  0.51831  0.98878  1.0000
  C   C3465     1.0  0.61350  0.65895  0.98987  1.0000
  H   H5939     1.0  0.74395  0.67315  0.09659  1.0000
  H   H5940     1.0  0.66347  0.72254  0.00145  1.0000
  C   C3466     1.0  0.73990  0.65111  0.10127  1.0000
  H   H5941     1.0  0.67953  0.69241  0.00734  1.0000
  Fe  Fe498     1.0  0.65308  0.61769  0.99073  1.0000
  H   H5942     1.0  0.74259  0.56629  0.06468  1.0000
  H   H5943     1.0  0.53325  0.72115  0.27171  1.0000
  S   S1000     1.0  0.64901  0.67012  0.98374  1.0000
  H   H5944     1.0  0.69714  0.69370  0.00860  1.0000
  C   C3467     1.0  0.65720  0.72210  0.01298  1.0000
  C   C3468     1.0  0.73785  0.58638  0.04864  1.0000
  H   H5945     1.0  0.72944  0.61848  0.12828  1.0000
  H   H5946     1.0  0.71781  0.63631  0.12167  1.0000
  H   H5947     1.0  0.67553  0.70960  0.05112  1.0000
  H   H5948     1.0  0.71146  0.58913  0.99066  1.0000
  C   C3469     1.0  0.73251  0.60820  0.99325  1.0000
  H   H5949     1.0  0.57559  0.49648  0.17261  1.0000
  H   H5950     1.0  0.52125  0.71304  0.36083  1.0000
  H   H5951     1.0  0.63794  0.71248  0.02614  1.0000
  H   H5952     1.0  0.71016  0.54270  0.06494  1.0000
  C   C3470     1.0  0.59590  0.72956  0.35439  1.0000
  H   H5953     1.0  0.60203  0.72913  0.37433  1.0000
  H   H5954     1.0  0.73990  0.61550  0.10205  1.0000
  H   H5955     1.0  0.55349  0.71720  0.26888  1.0000
  H   H5956     1.0  0.54768  0.71957  0.15204  1.0000
  H   H5957     1.0  0.73302  0.65536  0.09275  1.0000
  H   H5958     1.0  0.65266  0.58529  0.98891  1.0000
  C   C3471     1.0  0.65509  0.52254  0.98162  1.0000
  S   S1001     1.0  0.67651  0.60395  0.98827  1.0000
  C   C3472     1.0  0.66511  0.71831  0.05108  1.0000
  C   C3473     1.0  0.58775  0.63961  0.98015  1.0000
  H   H5959     1.0  0.60265  0.71752  0.97902  1.0000
  H   H5960     1.0  0.66230  0.52206  0.98905  1.0000
  H   H5961     1.0  0.70237  0.55759  0.05111  1.0000
  H   H5962     1.0  0.50397  0.72578  0.35897  1.0000
  H   H5963     1.0  0.63446  0.70024  0.98181  1.0000
  C   C3474     1.0  0.73541  0.58969  0.09591  1.0000
  C   C3475     1.0  0.65637  0.68587  0.98025  1.0000
  H   H5964     1.0  0.73976  0.58196  0.03873  1.0000
  H   H5965     1.0  0.73188  0.65282  0.11180  1.0000
  H   H5966     1.0  0.66740  0.72920  0.05033  1.0000
  H   H5967     1.0  0.58711  0.73232  0.24700  1.0000
  C   C3476     1.0  0.64225  0.57482  0.97868  1.0000
  C   C3477     1.0  0.73371  0.61070  0.07521  1.0000
  S   S1002     1.0  0.49556  0.71095  0.23735  1.0000
  H   H5968     1.0  0.65144  0.56528  0.97809  1.0000
  H   H5969     1.0  0.49733  0.69868  0.18223  1.0000
  S   S1003     1.0  0.68723  0.63615  0.97974  1.0000
  H   H5970     1.0  0.68160  0.73110  0.02752  1.0000
  C   C3478     1.0  0.57989  0.73214  0.12091  1.0000
  H   H5971     1.0  0.61181  0.72513  0.17849  1.0000
  C   C3479     1.0  0.74481  0.51266  0.14183  1.0000
  H   H5972     1.0  0.52171  0.73347  0.33747  1.0000
  H   H5973     1.0  0.57194  0.60169  0.91607  1.0000
  H   H5974     1.0  0.68569  0.57486  0.95328  1.0000
  H   H5975     1.0  0.66864  0.49259  0.95378  1.0000
  H   H5976     1.0  0.57076  0.54395  0.95083  1.0000
  C   C3480     1.0  0.60016  0.72725  0.97047  1.0000
  H   H5977     1.0  0.63978  0.49854  0.94799  1.0000
  S   S1004     1.0  0.69501  0.61745  0.94615  1.0000
  N   N253      1.0  0.64079  0.71988  0.92998  1.0000
  Fe  Fe499     1.0  0.59290  0.67901  0.92799  1.0000
  S   S1005     1.0  0.57186  0.69228  0.93944  1.0000
  S   S1006     1.0  0.59729  0.65483  0.93839  1.0000
  Fe  Fe500     1.0  0.60385  0.70637  0.90872  1.0000
  H   H5978     1.0  0.72680  0.55264  0.93530  1.0000
  Fe  Fe501     1.0  0.58656  0.70628  0.94032  1.0000
  H   H5979     1.0  0.56996  0.50905  0.91995  1.0000
  Fe  Fe502     1.0  0.57117  0.70636  0.91678  1.0000
  S   S1007     1.0  0.55055  0.71576  0.90760  1.0000
  S   S1008     1.0  0.60769  0.69204  0.93044  1.0000
  S   S1009     1.0  0.59104  0.69186  0.90507  1.0000
  C   C3481     1.0  0.65190  0.52972  0.94961  1.0000
  H   H5980     1.0  0.62173  0.66921  0.95134  1.0000
  S   S1010     1.0  0.69536  0.50473  0.90111  1.0000
  Fe  Fe503     1.0  0.61635  0.56602  0.94875  1.0000
  S   S1011     1.0  0.63197  0.56504  0.92676  1.0000
  H   H5981     1.0  0.51527  0.60801  0.93297  1.0000
  Fe  Fe504     1.0  0.58859  0.57195  0.93602  1.0000
  S   S1012     1.0  0.60226  0.57149  0.91309  1.0000
  S   S1013     1.0  0.56329  0.57762  0.94180  1.0000
  Fe  Fe505     1.0  0.61749  0.55176  0.92410  1.0000
  S   S1014     1.0  0.62540  0.52984  0.91735  1.0000
  Fe  Fe506     1.0  0.61536  0.58482  0.91817  1.0000
  S   S1015     1.0  0.62250  0.60501  0.90240  1.0000
  S   S1016     1.0  0.60293  0.55120  0.94684  1.0000
  S   S1017     1.0  0.60052  0.58669  0.94042  1.0000
  H   H5982     1.0  0.66124  0.69118  0.92974  1.0000
  S   S1018     1.0  0.52630  0.56327  0.90448  1.0000
  H   H5983     1.0  0.67257  0.60077  0.95075  1.0000
  H   H5984     1.0  0.57988  0.64933  0.97521  1.0000
  H   H5985     1.0  0.63518  0.71730  0.95370  1.0000
  H   H5986     1.0  0.63467  0.51473  0.97284  1.0000
  H   H5987     1.0  0.63389  0.66280  0.96429  1.0000
  C   C3482     1.0  0.66402  0.51300  0.97026  1.0000
  C   C3483     1.0  0.64204  0.61594  0.94995  1.0000
  C   C3484     1.0  0.55280  0.57498  0.93073  1.0000
  C   C3485     1.0  0.55919  0.57330  0.91623  1.0000
  C   C3486     1.0  0.55073  0.57038  0.90802  1.0000
  C   C3487     1.0  0.53586  0.56912  0.91423  1.0000
  C   C3488     1.0  0.52926  0.57151  0.92847  1.0000
  C   C3489     1.0  0.53774  0.57442  0.93668  1.0000
  H   H5988     1.0  0.57070  0.57399  0.91144  1.0000
  H   H5989     1.0  0.55576  0.56881  0.89690  1.0000
  H   H5990     1.0  0.51781  0.57054  0.93336  1.0000
  H   H5991     1.0  0.53275  0.57570  0.94789  1.0000
  S   S1019     1.0  0.65800  0.63437  0.96978  1.0000
  N   N254      1.0  0.58256  0.52232  0.92419  1.0000
  H   H5992     1.0  0.70684  0.52325  0.93583  1.0000
  C   C3490     1.0  0.67590  0.51174  0.90517  1.0000
  C   C3491     1.0  0.67025  0.52694  0.90441  1.0000
  C   C3492     1.0  0.65477  0.53262  0.90818  1.0000
  C   C3493     1.0  0.64485  0.52315  0.91244  1.0000
  C   C3494     1.0  0.65049  0.50800  0.91289  1.0000
  C   C3495     1.0  0.66597  0.50229  0.90939  1.0000
  H   H5993     1.0  0.67787  0.53432  0.90098  1.0000
  H   H5994     1.0  0.65051  0.54436  0.90750  1.0000
  H   H5995     1.0  0.64288  0.50063  0.91604  1.0000
  H   H5996     1.0  0.68869  0.69782  0.97260  1.0000
  C   C3496     1.0  0.54210  0.70224  0.90657  1.0000
  C   C3497     1.0  0.53153  0.70626  0.89784  1.0000
  C   C3498     1.0  0.52457  0.69568  0.89688  1.0000
  C   C3499     1.0  0.52795  0.68111  0.90487  1.0000
  C   C3500     1.0  0.53841  0.67709  0.91372  1.0000
  C   C3501     1.0  0.54566  0.68761  0.91443  1.0000
  C   C3502     1.0  0.56813  0.51769  0.92623  1.0000
  H   H5997     1.0  0.66578  0.62901  0.90626  1.0000
  C   C3503     1.0  0.64661  0.71068  0.91843  1.0000
  H   H5998     1.0  0.55321  0.63745  0.92554  1.0000
  C   C3504     1.0  0.58499  0.54141  0.89893  1.0000
  H   H5999     1.0  0.64707  0.61219  0.95977  1.0000
  C   C3505     1.0  0.60677  0.64180  0.92764  1.0000
  C   C3506     1.0  0.60951  0.64550  0.91219  1.0000
  C   C3507     1.0  0.61536  0.63422  0.90421  1.0000
  C   C3508     1.0  0.61826  0.61936  0.91174  1.0000
  C   C3509     1.0  0.61666  0.61594  0.92702  1.0000
  C   C3510     1.0  0.61071  0.62707  0.93498  1.0000
  H   H6000     1.0  0.60653  0.65691  0.90648  1.0000
  H   H6001     1.0  0.61683  0.63694  0.89231  1.0000
  H   H6002     1.0  0.61983  0.60464  0.93280  1.0000
  H   H6003     1.0  0.60872  0.62418  0.94692  1.0000
  C   C3511     1.0  0.70953  0.60158  0.94594  1.0000
  H   H6004     1.0  0.60293  0.51292  0.93241  1.0000
  H   H6005     1.0  0.74374  0.62399  0.95628  1.0000
  H   H6006     1.0  0.71937  0.52285  0.95431  1.0000
  C   C3512     1.0  0.62784  0.65936  0.95804  1.0000
  C   C3513     1.0  0.55485  0.52975  0.92141  1.0000
  C   C3514     1.0  0.63121  0.69830  0.94956  1.0000
  C   C3515     1.0  0.71024  0.58969  0.95822  1.0000
  C   C3516     1.0  0.67257  0.61795  0.90470  1.0000
  H   H6007     1.0  0.59553  0.60805  0.88872  1.0000
  S   S1020     1.0  0.67314  0.72856  0.97028  1.0000
  H   H6008     1.0  0.57886  0.63738  0.92756  1.0000
  H   H6009     1.0  0.55374  0.68449  0.92127  1.0000
  C   C3517     1.0  0.72066  0.60092  0.93305  1.0000
  C   C3518     1.0  0.65105  0.73013  0.92739  1.0000
  H   H6010     1.0  0.57380  0.54548  0.92524  1.0000
  H   H6011     1.0  0.61838  0.72095  0.92805  1.0000
  H   H6012     1.0  0.61910  0.73251  0.93885  1.0000
  H   H6013     1.0  0.51839  0.62733  0.94721  1.0000
  C   C3519     1.0  0.73380  0.57709  0.94490  1.0000
  H   H6014     1.0  0.64802  0.71790  0.90714  1.0000
  H   H6015     1.0  0.72141  0.54827  0.95504  1.0000
  H   H6016     1.0  0.72600  0.62715  0.95193  1.0000
  H   H6017     1.0  0.66453  0.69343  0.91026  1.0000
  C   C3520     1.0  0.57391  0.62754  0.93256  1.0000
  H   H6018     1.0  0.50533  0.71822  0.85581  1.0000
  H   H6019     1.0  0.57674  0.66041  0.89246  1.0000
  H   H6020     1.0  0.66094  0.62490  0.93682  1.0000
  H   H6021     1.0  0.67409  0.53465  0.94819  1.0000
  H   H6022     1.0  0.55876  0.65656  0.89547  1.0000
  C   C3521     1.0  0.55434  0.62811  0.90232  1.0000
  C   C3522     1.0  0.56210  0.62722  0.92463  1.0000
  H   H6023     1.0  0.55506  0.53104  0.90958  1.0000
  H   H6024     1.0  0.68210  0.57364  0.93662  1.0000
  C   C3523     1.0  0.54622  0.61518  0.90738  1.0000
  H   H6025     1.0  0.58757  0.60908  0.91292  1.0000
  H   H6026     1.0  0.50974  0.61195  0.90947  1.0000
  C   C3524     1.0  0.68354  0.58140  0.94233  1.0000
  C   C3525     1.0  0.58040  0.53527  0.93096  1.0000
  H   H6027     1.0  0.63435  0.62681  0.95074  1.0000
  Fe  Fe507     1.0  0.50105  0.56769  0.91163  1.0000
  H   H6028     1.0  0.54287  0.61186  0.91957  1.0000
  H   H6029     1.0  0.58355  0.59509  0.89386  1.0000
  H   H6030     1.0  0.64797  0.60448  0.91882  1.0000
  C   C3526     1.0  0.72063  0.54562  0.94486  1.0000
  H   H6031     1.0  0.58048  0.63606  0.88801  1.0000
  N   N255      1.0  0.56773  0.62571  0.90878  1.0000
  C   C3527     1.0  0.59287  0.50948  0.93201  1.0000
  C   C3528     1.0  0.58379  0.60673  0.89305  1.0000
  H   H6032     1.0  0.55315  0.60542  0.90292  1.0000
  H   H6033     1.0  0.58745  0.63465  0.90349  1.0000
  H   H6034     1.0  0.57730  0.61355  0.88471  1.0000
  H   H6035     1.0  0.49998  0.69850  0.83040  1.0000
  C   C3529     1.0  0.50321  0.60987  0.93857  1.0000
  H   H6036     1.0  0.68294  0.61983  0.89637  1.0000
  H   H6037     1.0  0.60228  0.67832  0.96787  1.0000
  H   H6038     1.0  0.64366  0.72308  0.97513  1.0000
  C   C3530     1.0  0.67685  0.60801  0.91912  1.0000
  H   H6039     1.0  0.62331  0.50309  0.96151  1.0000
  H   H6040     1.0  0.53594  0.61866  0.90295  1.0000
  H   H6041     1.0  0.54422  0.52660  0.92805  1.0000
  C   C3531     1.0  0.65411  0.61783  0.93554  1.0000
  H   H6042     1.0  0.50063  0.64733  0.92393  1.0000
  H   H6043     1.0  0.56657  0.65559  0.91091  1.0000
  H   H6044     1.0  0.70152  0.58997  0.96810  1.0000
  C   C3532     1.0  0.71538  0.52811  0.92670  1.0000
  H   H6045     1.0  0.50970  0.59246  0.95700  1.0000
  C   C3533     1.0  0.66273  0.58296  0.91954  1.0000
  H   H6046     1.0  0.61925  0.70322  0.94961  1.0000
  C   C3534     1.0  0.66962  0.59398  0.94481  1.0000
  C   C3535     1.0  0.73275  0.58875  0.93254  1.0000
  H   H6047     1.0  0.58909  0.51779  0.90220  1.0000
  H   H6048     1.0  0.65173  0.70497  0.94720  1.0000
  H   H6049     1.0  0.60241  0.52443  0.90674  1.0000
  H   H6050     1.0  0.73367  0.60084  0.96021  1.0000
  H   H6051     1.0  0.54580  0.63808  0.90508  1.0000
  H   H6052     1.0  0.72301  0.56831  0.96721  1.0000
  H   H6053     1.0  0.52878  0.71756  0.89174  1.0000
  H   H6054     1.0  0.63517  0.60824  0.95039  1.0000
  H   H6055     1.0  0.72660  0.63103  0.96866  1.0000
  C   C3536     1.0  0.73024  0.60732  0.96893  1.0000
  C   C3537     1.0  0.64027  0.71036  0.94533  1.0000
  H   H6056     1.0  0.57281  0.54454  0.89980  1.0000
  H   H6057     1.0  0.67441  0.58300  0.91363  1.0000
  H   H6058     1.0  0.63001  0.51770  0.94759  1.0000
  C   C3538     1.0  0.65463  0.59638  0.92660  1.0000
  H   H6059     1.0  0.63838  0.70431  0.91877  1.0000
  N   N256      1.0  0.65655  0.51408  0.95804  1.0000
  H   H6060     1.0  0.66662  0.61270  0.89994  1.0000
  H   H6061     1.0  0.59255  0.66791  0.96350  1.0000
  C   C3539     1.0  0.66667  0.50441  0.94777  1.0000
  H   H6062     1.0  0.66231  0.57248  0.92798  1.0000
  H   H6063     1.0  0.60569  0.48694  0.93228  1.0000
  S   S1021     1.0  0.58659  0.71081  0.96182  1.0000
  C   C3540     1.0  0.68205  0.50799  0.93993  1.0000
  C   C3541     1.0  0.50585  0.63609  0.92956  1.0000
  H   H6064     1.0  0.66065  0.58878  0.95286  1.0000
  H   H6065     1.0  0.63634  0.65326  0.95010  1.0000
  H   H6066     1.0  0.68309  0.61388  0.92295  1.0000
  C   C3542     1.0  0.72240  0.57742  0.95770  1.0000
  H   H6067     1.0  0.64561  0.49654  0.97222  1.0000
  H   H6068     1.0  0.66137  0.50498  0.93872  1.0000
  C   C3543     1.0  0.64271  0.50786  0.96526  1.0000
  H   H6069     1.0  0.72010  0.61000  0.92349  1.0000
  C   C3544     1.0  0.61874  0.72337  0.87525  1.0000
  H   H6070     1.0  0.52159  0.72498  0.83104  1.0000
  C   C3545     1.0  0.59863  0.49562  0.92529  1.0000
  H   H6071     1.0  0.73734  0.52615  0.95006  1.0000
  H   H6072     1.0  0.60669  0.70686  0.87717  1.0000
  C   C3546     1.0  0.50198  0.72866  0.84843  1.0000
  H   H6073     1.0  0.68818  0.49973  0.93318  1.0000
  H   H6074     1.0  0.68910  0.50699  0.94763  1.0000
  H   H6075     1.0  0.68114  0.51882  0.93203  1.0000
  H   H6076     1.0  0.63176  0.69189  0.96095  1.0000
  H   H6077     1.0  0.65830  0.54968  0.95013  1.0000
  H   H6078     1.0  0.59505  0.63376  0.97146  1.0000
  H   H6079     1.0  0.55730  0.63070  0.89004  1.0000
  S   S1022     1.0  0.58384  0.72189  0.91875  1.0000
  H   H6080     1.0  0.72662  0.50218  0.94228  1.0000
  H   H6081     1.0  0.72374  0.52769  0.90290  1.0000
  H   H6082     1.0  0.64594  0.59240  0.93615  1.0000
  H   H6083     1.0  0.59138  0.53799  0.92954  1.0000
  H   H6084     1.0  0.67096  0.70515  0.91728  1.0000
  H   H6085     1.0  0.60584  0.49788  0.91407  1.0000
  C   C3547     1.0  0.66673  0.71212  0.97393  1.0000
  H   H6086     1.0  0.70430  0.52820  0.90986  1.0000
  H   H6087     1.0  0.54071  0.66593  0.92021  1.0000
  H   H6088     1.0  0.58734  0.50564  0.94372  1.0000
  C   C3548     1.0  0.59017  0.52577  0.90802  1.0000
  H   H6089     1.0  0.64808  0.62463  0.92671  1.0000
  H   H6090     1.0  0.58940  0.49090  0.92504  1.0000
  S   S1023     1.0  0.62233  0.71662  0.89304  1.0000
  C   C3549     1.0  0.62515  0.72834  0.92874  1.0000
  H   H6091     1.0  0.58290  0.61741  0.93296  1.0000
  H   H6092     1.0  0.71803  0.60798  0.97311  1.0000
  H   H6093     1.0  0.50582  0.61050  0.96056  1.0000
  H   H6094     1.0  0.68533  0.59829  0.91599  1.0000
  H   H6095     1.0  0.64137  0.53549  0.95600  1.0000
  N   N257      1.0  0.66399  0.60370  0.93136  1.0000
  H   H6096     1.0  0.58864  0.54982  0.90211  1.0000
  C   C3550     1.0  0.66170  0.69956  0.91919  1.0000
  C   C3551     1.0  0.61042  0.71666  0.87030  1.0000
  H   H6097     1.0  0.49868  0.60213  0.93521  1.0000
  H   H6098     1.0  0.51884  0.64597  0.93765  1.0000
  H   H6099     1.0  0.64892  0.52967  0.93929  1.0000
  N   N258      1.0  0.73018  0.52417  0.93122  1.0000
  H   H6100     1.0  0.69370  0.58577  0.93637  1.0000
  H   H6101     1.0  0.61228  0.64633  0.96063  1.0000
  C   C3552     1.0  0.56909  0.65323  0.89980  1.0000
  H   H6102     1.0  0.56844  0.62822  0.94419  1.0000
  H   H6103     1.0  0.71724  0.51133  0.91431  1.0000
  Fe  Fe508     1.0  0.68169  0.62178  0.96825  1.0000
  H   H6104     1.0  0.65695  0.58301  0.91100  1.0000
  H   H6105     1.0  0.60065  0.71726  0.85249  1.0000
  H   H6106     1.0  0.71095  0.54029  0.92449  1.0000
  C   C3553     1.0  0.71545  0.52347  0.91264  1.0000
  H   H6107     1.0  0.55672  0.61792  0.93143  1.0000
  C   C3554     1.0  0.57759  0.61052  0.90847  1.0000
  H   H6108     1.0  0.74146  0.58849  0.92258  1.0000
  C   C3555     1.0  0.57688  0.63693  0.89979  1.0000
  C   C3556     1.0  0.72723  0.52899  0.94552  1.0000
  H   H6109     1.0  0.51603  0.63238  0.92136  1.0000
  S   S1024     1.0  0.51883  0.66804  0.90398  1.0000
  C   C3557     1.0  0.51151  0.63786  0.94222  1.0000
  H   H6110     1.0  0.51665  0.69882  0.88987  1.0000
  H   H6111     1.0  0.66242  0.72368  0.92868  1.0000
  H   H6112     1.0  0.59036  0.54179  0.88708  1.0000
  H   H6113     1.0  0.70859  0.54860  0.94464  1.0000
  C   C3558     1.0  0.50229  0.60365  0.95529  1.0000
  H   H6114     1.0  0.50870  0.63157  0.90152  1.0000
  S   S1025     1.0  0.62869  0.56091  0.96689  1.0000
  H   H6115     1.0  0.63570  0.69030  0.94228  1.0000
  C   C3559     1.0  0.63364  0.50682  0.95478  1.0000
  H   H6116     1.0  0.66552  0.54406  0.93297  1.0000
  H   H6117     1.0  0.60786  0.58869  0.97062  1.0000
  C   C3560     1.0  0.57265  0.53334  0.94748  1.0000
  H   H6118     1.0  0.49686  0.62227  0.89807  1.0000
  H   H6119     1.0  0.56415  0.51206  0.93788  1.0000
  C   C3561     1.0  0.73194  0.62326  0.96117  1.0000
  H   H6120     1.0  0.55401  0.54058  0.92362  1.0000
  H   H6121     1.0  0.56151  0.53077  0.94972  1.0000
  H   H6122     1.0  0.67021  0.49061  0.90969  1.0000
  C   C3562     1.0  0.61732  0.64924  0.96812  1.0000
  H   H6123     1.0  0.50229  0.64233  0.95079  1.0000
  C   C3563     1.0  0.50215  0.62286  0.90669  1.0000
  C   C3564     1.0  0.73536  0.50757  0.93397  1.0000
  H   H6124     1.0  0.67504  0.51595  0.96607  1.0000
  C   C3565     1.0  0.60709  0.72249  0.85628  1.0000
  H   H6125     1.0  0.57970  0.52489  0.95458  1.0000
  H   H6126     1.0  0.73719  0.50359  0.92376  1.0000
  C   C3566     1.0  0.66322  0.53984  0.94515  1.0000
  C   C3567     1.0  0.62962  0.57574  0.97352  1.0000
  H   H6127     1.0  0.73537  0.54291  0.91375  1.0000
  H   H6128     1.0  0.62442  0.63867  0.97293  1.0000
  C   C3568     1.0  0.61769  0.58800  0.97446  1.0000
  C   C3569     1.0  0.59220  0.72704  0.96042  1.0000
  H   H6129     1.0  0.73818  0.57876  0.97720  1.0000
  C   C3570     1.0  0.70653  0.49393  0.97722  1.0000
  C   C3571     1.0  0.73301  0.48879  0.97689  1.0000
  C   C3572     1.0  0.59582  0.66949  0.97304  1.0000
  C   C3573     1.0  0.67685  0.69834  0.97453  1.0000
  H   H6130     1.0  0.66664  0.50129  0.97647  1.0000
  C   C3574     1.0  0.51119  0.73252  0.83444  1.0000
  C   C3575     1.0  0.74113  0.53164  0.91882  1.0000
  Fe  Fe509     1.0  0.49741  0.68073  0.89699  1.0000
  C   C3576     1.0  0.65151  0.71263  0.97632  1.0000
  H   H6131     1.0  0.65156  0.53434  0.97630  1.0000
  H   H6132     1.0  0.57322  0.68288  0.97635  1.0000
  N   N259      1.0  0.49527  0.62582  0.93370  1.0000
  H   H6133     1.0  0.49802  0.77148  0.40673  1.0000
  C   C3577     1.0  0.60803  0.80442  0.24974  1.0000
  S   S1026     1.0  0.62622  0.75564  0.02484  1.0000
  S   S1027     1.0  0.50683  0.78358  0.33950  1.0000
  C   C3578     1.0  0.63606  0.78328  0.45228  1.0000
  H   H6134     1.0  0.61683  0.86505  0.26504  1.0000
  C   C3579     1.0  0.74123  0.79603  0.45217  1.0000
  H   H6135     1.0  0.52144  0.82257  0.32220  1.0000
  H   H6136     1.0  0.65784  0.84584  0.29903  1.0000
  H   H6137     1.0  0.62218  0.76570  0.47627  1.0000
  S   S1028     1.0  0.67660  0.91473  0.19516  1.0000
  S   S1029     1.0  0.71340  0.88296  0.26750  1.0000
  H   H6138     1.0  0.50932  0.96913  0.33019  1.0000
  H   H6139     1.0  0.73455  0.88871  0.20535  1.0000
  H   H6140     1.0  0.49966  0.81375  0.18513  1.0000
  C   C3580     1.0  0.67096  0.88964  0.19235  1.0000
  H   H6141     1.0  0.67858  0.88390  0.19955  1.0000
  C   C3581     1.0  0.64084  0.85596  0.31547  1.0000
  Fe  Fe510     1.0  0.69639  0.95676  0.19239  1.0000
  S   S1030     1.0  0.62461  0.79506  0.13550  1.0000
  S   S1031     1.0  0.62146  0.77962  0.10383  1.0000
  Fe  Fe511     1.0  0.63717  0.83255  0.21378  1.0000
  S   S1032     1.0  0.61730  0.82934  0.23249  1.0000
  Fe  Fe512     1.0  0.64872  0.85441  0.18628  1.0000
  S   S1033     1.0  0.64513  0.87782  0.17272  1.0000
  S   S1034     1.0  0.63510  0.83743  0.19021  1.0000
  S   S1035     1.0  0.66686  0.82054  0.44155  1.0000
  S   S1036     1.0  0.67285  0.78734  0.42178  1.0000
  Fe  Fe513     1.0  0.67439  0.81058  0.46304  1.0000
  Fe  Fe514     1.0  0.57928  0.81109  0.36825  1.0000
  S   S1037     1.0  0.55493  0.82126  0.36871  1.0000
  Fe  Fe515     1.0  0.60906  0.81011  0.34621  1.0000
  S   S1038     1.0  0.61960  0.81720  0.32222  1.0000
  S   S1039     1.0  0.59640  0.82488  0.36185  1.0000
  H   H6142     1.0  0.63633  0.82140  0.27358  1.0000
  H   H6143     1.0  0.50203  0.80341  0.25465  1.0000
  H   H6144     1.0  0.61485  0.76942  0.21872  1.0000
  H   H6145     1.0  0.49912  0.94392  0.29406  1.0000
  C   C3582     1.0  0.65782  0.84814  0.34792  1.0000
  Fe  Fe516     1.0  0.67577  0.93934  0.18899  1.0000
  C   C3583     1.0  0.62841  0.80866  0.45538  1.0000
  H   H6146     1.0  0.72131  0.97399  0.33074  1.0000
  H   H6147     1.0  0.65267  0.74851  0.20145  1.0000
  H   H6148     1.0  0.70827  0.87160  0.42491  1.0000
  Fe  Fe517     1.0  0.67851  0.96955  0.16851  1.0000
  C   C3584     1.0  0.59770  0.75926  0.34618  1.0000
  S   S1040     1.0  0.65870  0.95999  0.18252  1.0000
  S   S1041     1.0  0.67815  0.94659  0.20814  1.0000
  H   H6149     1.0  0.64679  0.77495  0.01949  1.0000
  H   H6150     1.0  0.63433  0.74630  0.29756  1.0000
  H   H6151     1.0  0.73439  0.94184  0.35219  1.0000
  H   H6152     1.0  0.62980  0.77705  0.43530  1.0000
  C   C3585     1.0  0.53189  0.81632  0.31617  1.0000
  H   H6153     1.0  0.49620  0.78618  0.26368  1.0000
  H   H6154     1.0  0.53300  0.96968  0.25586  1.0000
  H   H6155     1.0  0.61018  0.77177  0.07826  1.0000
  H   H6156     1.0  0.61913  0.77075  0.32385  1.0000
  C   C3586     1.0  0.55381  0.76441  0.23868  1.0000
  C   C3587     1.0  0.50916  0.97043  0.24147  1.0000
  C   C3588     1.0  0.62879  0.77563  0.32208  1.0000
  H   H6157     1.0  0.61304  0.79718  0.02764  1.0000
  H   H6158     1.0  0.63407  0.74775  0.23973  1.0000
  H   H6159     1.0  0.64171  0.81964  0.36993  1.0000
  H   H6160     1.0  0.59277  0.74339  0.19184  1.0000
  H   H6161     1.0  0.72654  0.78328  0.35907  1.0000
  S   S1042     1.0  0.69513  0.81959  0.45553  1.0000
  C   C3589     1.0  0.55965  0.75272  0.18801  1.0000
  S   S1043     1.0  0.72680  0.95201  0.27876  1.0000
  C   C3590     1.0  0.73009  0.88226  0.21645  1.0000
  H   H6162     1.0  0.54487  0.75819  0.31126  1.0000
  S   S1044     1.0  0.61578  0.81657  0.39371  1.0000
  H   H6163     1.0  0.65344  0.75784  0.30356  1.0000
  H   H6164     1.0  0.66471  0.86610  0.22461  1.0000
  Fe  Fe518     1.0  0.65719  0.82127  0.18721  1.0000
  H   H6165     1.0  0.62762  0.86430  0.28868  1.0000
  C   C3591     1.0  0.62714  0.85527  0.32545  1.0000
  Fe  Fe519     1.0  0.66978  0.83428  0.20533  1.0000
  H   H6166     1.0  0.72468  0.87638  0.40196  1.0000
  C   C3592     1.0  0.65728  0.79573  0.41355  1.0000
  C   C3593     1.0  0.65319  0.78807  0.40543  1.0000
  C   C3594     1.0  0.64051  0.79429  0.39922  1.0000
  C   C3595     1.0  0.63173  0.80813  0.40128  1.0000
  C   C3596     1.0  0.63584  0.81576  0.40941  1.0000
  C   C3597     1.0  0.64869  0.80971  0.41529  1.0000
  H   H6167     1.0  0.65977  0.77723  0.40403  1.0000
  H   H6168     1.0  0.66719  0.86945  0.19035  1.0000
  H   H6169     1.0  0.62915  0.82651  0.41098  1.0000
  H   H6170     1.0  0.65188  0.81586  0.42122  1.0000
  C   C3598     1.0  0.62709  0.83269  0.31903  1.0000
  C   C3599     1.0  0.64045  0.83376  0.30859  1.0000
  H   H6171     1.0  0.64582  0.82531  0.30226  1.0000
  C   C3600     1.0  0.65412  0.88845  0.17822  1.0000
  C   C3601     1.0  0.65106  0.90397  0.17380  1.0000
  C   C3602     1.0  0.65796  0.91232  0.17872  1.0000
  C   C3603     1.0  0.66786  0.90513  0.18812  1.0000
  H   H6172     1.0  0.64325  0.90954  0.16673  1.0000
  H   H6173     1.0  0.65549  0.92427  0.17539  1.0000
  C   C3604     1.0  0.62005  0.81147  0.24362  1.0000
  H   H6174     1.0  0.63684  0.87885  0.28576  1.0000
  H   H6175     1.0  0.59697  0.81027  0.24806  1.0000
  H   H6176     1.0  0.64541  0.87451  0.22919  1.0000
  C   C3605     1.0  0.63526  0.79633  0.14717  1.0000
  S   S1045     1.0  0.66371  0.80259  0.17514  1.0000
  S   S1046     1.0  0.65849  0.81530  0.21109  1.0000
  C   C3606     1.0  0.65235  0.80014  0.16483  1.0000
  C   C3607     1.0  0.63756  0.80806  0.16557  1.0000
  C   C3608     1.0  0.62909  0.80625  0.15665  1.0000
  H   H6177     1.0  0.63275  0.81581  0.17273  1.0000
  H   H6178     1.0  0.61778  0.81268  0.15697  1.0000
  H   H6179     1.0  0.71285  0.87602  0.43996  1.0000
  C   C3609     1.0  0.53082  0.81239  0.36704  1.0000
  C   C3610     1.0  0.54459  0.80799  0.37122  1.0000
  H   H6180     1.0  0.51217  0.80530  0.36502  1.0000
  H   H6181     1.0  0.52660  0.82394  0.36251  1.0000
  H   H6182     1.0  0.73461  0.87050  0.21558  1.0000
  H   H6183     1.0  0.65873  0.87824  0.23699  1.0000
  N   N260      1.0  0.51150  0.96564  0.26888  1.0000
  Fe  Fe520     1.0  0.51081  0.75765  0.23079  1.0000
  H   H6184     1.0  0.68735  0.87236  0.22811  1.0000
  C   C3611     1.0  0.62444  0.76703  0.22408  1.0000
  H   H6185     1.0  0.62011  0.77246  0.23369  1.0000
  H   H6186     1.0  0.60472  0.78535  0.30906  1.0000
  H   H6187     1.0  0.53727  0.80979  0.33769  1.0000
  H   H6188     1.0  0.56126  0.82156  0.30638  1.0000
  H   H6189     1.0  0.73377  0.83544  0.35010  1.0000
  H   H6190     1.0  0.60983  0.84292  0.33518  1.0000
  C   C3612     1.0  0.62621  0.86579  0.25513  1.0000
  H   H6191     1.0  0.68375  0.97425  0.36666  1.0000
  H   H6192     1.0  0.51776  0.80122  0.40250  1.0000
  H   H6193     1.0  0.49608  0.79346  0.31161  1.0000
  C   C3613     1.0  0.63511  0.75970  0.03645  1.0000
  C   C3614     1.0  0.63213  0.75311  0.05156  1.0000
  C   C3615     1.0  0.63784  0.75706  0.06143  1.0000
  C   C3616     1.0  0.71432  0.90983  0.27115  1.0000
  C   C3617     1.0  0.72598  0.95526  0.22361  1.0000
  C   C3618     1.0  0.64441  0.76981  0.03114  1.0000
  H   H6194     1.0  0.62512  0.74511  0.05569  1.0000
  C   C3619     1.0  0.71676  0.96160  0.21344  1.0000
  C   C3620     1.0  0.52249  0.97561  0.26221  1.0000
  S   S1047     1.0  0.64854  0.85099  0.21017  1.0000
  S   S1048     1.0  0.67068  0.83868  0.18113  1.0000
  H   H6195     1.0  0.62403  0.83516  0.26356  1.0000
  Fe  Fe521     1.0  0.67981  0.79913  0.43520  1.0000
  H   H6196     1.0  0.62204  0.86349  0.33208  1.0000
  C   C3621     1.0  0.59838  0.77535  0.07696  1.0000
  H   H6197     1.0  0.69556  0.78894  0.39365  1.0000
  H   H6198     1.0  0.59360  0.75741  0.14970  1.0000
  H   H6199     1.0  0.63471  0.81929  0.46969  1.0000
  H   H6200     1.0  0.49630  0.75131  0.27988  1.0000
  H   H6201     1.0  0.66455  0.85168  0.25027  1.0000
  H   H6202     1.0  0.62285  0.88153  0.27574  1.0000
  H   H6203     1.0  0.72494  0.90881  0.26328  1.0000
  H   H6204     1.0  0.65330  0.84714  0.24144  1.0000
  C   C3622     1.0  0.66429  0.88137  0.18729  1.0000
  H   H6205     1.0  0.57482  0.73845  0.11169  1.0000
  C   C3623     1.0  0.65941  0.78907  0.28926  1.0000
  C   C3624     1.0  0.57487  0.78802  0.05449  1.0000
  C   C3625     1.0  0.53902  0.76410  0.23958  1.0000
  H   H6206     1.0  0.63266  0.79112  0.28486  1.0000
  H   H6207     1.0  0.68083  0.82851  0.35895  1.0000
  H   H6208     1.0  0.64778  0.87771  0.25985  1.0000
  H   H6209     1.0  0.56038  0.76480  0.15377  1.0000
  H   H6210     1.0  0.53233  0.74895  0.36267  1.0000
  H   H6211     1.0  0.65703  0.78190  0.03696  1.0000
  H   H6212     1.0  0.63162  0.84478  0.28052  1.0000
  S   S1049     1.0  0.69528  0.94816  0.17358  1.0000
  H   H6213     1.0  0.65464  0.86150  0.27225  1.0000
  H   H6214     1.0  0.53837  0.74151  0.31602  1.0000
  C   C3626     1.0  0.56445  0.81457  0.31673  1.0000
  H   H6215     1.0  0.64344  0.82883  0.25472  1.0000
  C   C3627     1.0  0.63573  0.83176  0.26490  1.0000
  H   H6216     1.0  0.59739  0.75220  0.08324  1.0000
  H   H6217     1.0  0.53772  0.82490  0.30866  1.0000
  H   H6218     1.0  0.61425  0.78174  0.44981  1.0000
  H   H6219     1.0  0.70840  0.77285  0.38928  1.0000
  C   C3628     1.0  0.60635  0.80088  0.03792  1.0000
  H   H6220     1.0  0.60577  0.77808  0.04724  1.0000
  H   H6221     1.0  0.50725  0.93570  0.27811  1.0000
  C   C3629     1.0  0.64001  0.84338  0.27016  1.0000
  C   C3630     1.0  0.65379  0.85586  0.24653  1.0000
  H   H6222     1.0  0.71533  0.93030  0.27518  1.0000
  H   H6223     1.0  0.70614  0.84175  0.22968  1.0000
  S   S1050     1.0  0.68572  0.78852  0.45733  1.0000
  C   C3631     1.0  0.64298  0.79007  0.47199  1.0000
  N   N261      1.0  0.71323  0.88571  0.22015  1.0000
  C   C3632     1.0  0.70814  0.87374  0.23294  1.0000
  H   H6224     1.0  0.56327  0.74289  0.19653  1.0000
  H   H6225     1.0  0.70661  0.97754  0.15696  1.0000
  H   H6226     1.0  0.72276  0.87251  0.33913  1.0000
  H   H6227     1.0  0.72989  0.96850  0.37841  1.0000
  H   H6228     1.0  0.69444  0.90300  0.22665  1.0000
  C   C3633     1.0  0.71215  0.87182  0.20131  1.0000
  H   H6229     1.0  0.62244  0.79598  0.43578  1.0000
  H   H6230     1.0  0.71409  0.86257  0.23092  1.0000
  H   H6231     1.0  0.71114  0.87417  0.24308  1.0000
  H   H6232     1.0  0.64654  0.78584  0.44457  1.0000
  H   H6233     1.0  0.72442  0.86795  0.19805  1.0000
  C   C3634     1.0  0.73118  0.97052  0.35479  1.0000
  H   H6234     1.0  0.73914  0.80988  0.35750  1.0000
  H   H6235     1.0  0.53171  0.98154  0.32690  1.0000
  H   H6236     1.0  0.51376  0.78410  0.30276  1.0000
  H   H6237     1.0  0.70011  0.98050  0.20610  1.0000
  H   H6238     1.0  0.61726  0.79846  0.19876  1.0000
  C   C3635     1.0  0.55560  0.73867  0.36229  1.0000
  C   C3636     1.0  0.71204  0.95635  0.35789  1.0000
  C   C3637     1.0  0.65191  0.77407  0.47614  1.0000
  C   C3638     1.0  0.59321  0.73799  0.34067  1.0000
  H   H6239     1.0  0.49821  0.79695  0.39324  1.0000
  H   H6240     1.0  0.70365  0.92720  0.32408  1.0000
  S   S1051     1.0  0.49503  0.75362  0.33013  1.0000
  H   H6241     1.0  0.70370  0.91873  0.20524  1.0000
  H   H6242     1.0  0.51438  0.81258  0.26741  1.0000
  H   H6243     1.0  0.50263  0.82667  0.25620  1.0000
  H   H6244     1.0  0.63446  0.79162  0.22349  1.0000
  H   H6245     1.0  0.74327  0.90033  0.39103  1.0000
  H   H6246     1.0  0.71545  0.79197  0.40021  1.0000
  H   H6247     1.0  0.73504  0.89648  0.22807  1.0000
  N   N262      1.0  0.73687  0.90190  0.31343  1.0000
  C   C3639     1.0  0.64465  0.86756  0.26753  1.0000
  C   C3640     1.0  0.65837  0.78996  0.15565  1.0000
  H   H6248     1.0  0.73753  0.79356  0.34383  1.0000
  H   H6249     1.0  0.67521  0.82155  0.34686  1.0000
  N   N263      1.0  0.64089  0.85812  0.25954  1.0000
  H   H6250     1.0  0.73332  0.95812  0.24164  1.0000
  H   H6251     1.0  0.63367  0.74335  0.22287  1.0000
  C   C3641     1.0  0.65018  0.77375  0.04105  1.0000
  H   H6252     1.0  0.64990  0.76862  0.23024  1.0000
  H   H6253     1.0  0.59486  0.80598  0.03626  1.0000
  C   C3642     1.0  0.56244  0.80016  0.29485  1.0000
  H   H6254     1.0  0.70762  0.87381  0.19134  1.0000
  H   H6255     1.0  0.65091  0.83811  0.27350  1.0000
  C   C3643     1.0  0.60702  0.78737  0.05103  1.0000
  C   C3644     1.0  0.72607  0.96301  0.23390  1.0000
  C   C3645     1.0  0.51851  0.95247  0.27942  1.0000
  C   C3646     1.0  0.64260  0.76393  0.30047  1.0000
  C   C3647     1.0  0.49824  0.79401  0.28824  1.0000
  H   H6256     1.0  0.55841  0.74904  0.17863  1.0000
  Fe  Fe522     1.0  0.60261  0.78253  0.36856  1.0000
  C   C3648     1.0  0.73451  0.80011  0.36432  1.0000
  H   H6257     1.0  0.60004  0.75910  0.06385  1.0000
  C   C3649     1.0  0.50041  0.96831  0.35344  1.0000
  C   C3650     1.0  0.73704  0.81146  0.44922  1.0000
  H   H6258     1.0  0.55192  0.80813  0.29313  1.0000
  H   H6259     1.0  0.55729  0.74346  0.33033  1.0000
  C   C3651     1.0  0.64316  0.95379  0.25527  1.0000
  C   C3652     1.0  0.62030  0.84356  0.32730  1.0000
  H   H6260     1.0  0.51998  0.95586  0.28894  1.0000
  H   H6261     1.0  0.65948  0.77032  0.46621  1.0000
  H   H6262     1.0  0.63581  0.74406  0.31586  1.0000
  H   H6263     1.0  0.72508  0.94964  0.33696  1.0000
  C   C3653     1.0  0.67679  0.97994  0.25093  1.0000
  C   C3654     1.0  0.64757  0.82077  0.34653  1.0000
  H   H6264     1.0  0.63832  0.81061  0.44634  1.0000
  H   H6265     1.0  0.71986  0.89206  0.40987  1.0000
  H   H6266     1.0  0.73242  0.84832  0.30414  1.0000
  H   H6267     1.0  0.71134  0.86164  0.38957  1.0000
  C   C3655     1.0  0.69895  0.82176  0.38694  1.0000
  H   H6268     1.0  0.61273  0.79716  0.07145  1.0000
  N   N264      1.0  0.63700  0.77806  0.30611  1.0000
  C   C3656     1.0  0.61175  0.78670  0.29771  1.0000
  C   C3657     1.0  0.62769  0.75027  0.23098  1.0000
  H   H6269     1.0  0.73336  0.89387  0.33723  1.0000
  H   H6270     1.0  0.56910  0.76740  0.24967  1.0000
  H   H6271     1.0  0.60023  0.81154  0.06199  1.0000
  N   N265      1.0  0.63091  0.79267  0.46365  1.0000
  C   C3658     1.0  0.68543  0.73482  0.00431  1.0000
  H   H6272     1.0  0.73318  0.94440  0.22345  1.0000
  H   H6273     1.0  0.61674  0.74262  0.17350  1.0000
  H   H6274     1.0  0.62487  0.80057  0.29959  1.0000
  C   C3659     1.0  0.62706  0.78960  0.29678  1.0000
  C   C3660     1.0  0.70627  0.78513  0.38614  1.0000
  H   H6275     1.0  0.57236  0.79629  0.04438  1.0000
  C   C3661     1.0  0.65023  0.78431  0.30500  1.0000
  S   S1052     1.0  0.68145  0.97883  0.18608  1.0000
  H   H6276     1.0  0.58588  0.73512  0.18155  1.0000
  C   C3662     1.0  0.60083  0.80093  0.07037  1.0000
  H   H6277     1.0  0.72357  0.87694  0.31979  1.0000
  C   C3663     1.0  0.53998  0.73816  0.36107  1.0000
  H   H6278     1.0  0.67903  0.97548  0.32435  1.0000
  H   H6279     1.0  0.59535  0.81416  0.08681  1.0000
  C   C3664     1.0  0.57056  0.76922  0.15146  1.0000
  C   C3665     1.0  0.54171  0.78256  0.37883  1.0000
  H   H6280     1.0  0.66294  0.84209  0.37666  1.0000
  H   H6281     1.0  0.63672  0.94896  0.25059  1.0000
  Fe  Fe523     1.0  0.63363  0.76240  0.99995  1.0000
  H   H6282     1.0  0.59268  0.79591  0.09476  1.0000
  H   H6283     1.0  0.70415  0.81206  0.36828  1.0000
  S   S1053     1.0  0.62830  0.76312  0.26765  1.0000
  H   H6284     1.0  0.65432  0.75429  0.22080  1.0000
  N   N266      1.0  0.66348  0.84202  0.13198  1.0000
  C   C3666     1.0  0.67141  0.83568  0.14463  1.0000
  C   C3667     1.0  0.65285  0.85634  0.13474  1.0000
  C   C3668     1.0  0.67513  0.84488  0.11782  1.0000
  C   C3669     1.0  0.65538  0.83078  0.13171  1.0000
  C   C3670     1.0  0.68440  0.82201  0.14305  1.0000
  C   C3671     1.0  0.64099  0.85530  0.14937  1.0000
  C   C3672     1.0  0.67026  0.85769  0.10516  1.0000
  C   C3673     1.0  0.64562  0.83528  0.12027  1.0000
  H   H6285     1.0  0.67601  0.84426  0.14650  1.0000
  H   H6286     1.0  0.66349  0.83215  0.15513  1.0000
  H   H6287     1.0  0.64657  0.86169  0.12585  1.0000
  H   H6288     1.0  0.65923  0.86445  0.13464  1.0000
  H   H6289     1.0  0.68475  0.84774  0.11996  1.0000
  H   H6290     1.0  0.67994  0.83468  0.11332  1.0000
  H   H6291     1.0  0.66334  0.82031  0.12965  1.0000
  H   H6292     1.0  0.64805  0.82768  0.14265  1.0000
  H   H6293     1.0  0.69353  0.82425  0.13329  1.0000
  H   H6294     1.0  0.68933  0.81872  0.15294  1.0000
  H   H6295     1.0  0.68051  0.81230  0.14281  1.0000
  H   H6296     1.0  0.64615  0.85232  0.15904  1.0000
  H   H6297     1.0  0.63349  0.86639  0.14966  1.0000
  H   H6298     1.0  0.63385  0.84757  0.15059  1.0000
  H   H6299     1.0  0.66887  0.86857  0.10776  1.0000
  H   H6300     1.0  0.65983  0.85734  0.10258  1.0000
  H   H6301     1.0  0.67919  0.85717  0.09496  1.0000
  H   H6302     1.0  0.63677  0.84536  0.12163  1.0000
  H   H6303     1.0  0.63983  0.82622  0.12191  1.0000
  H   H6304     1.0  0.65247  0.83658  0.10886  1.0000
  Fe  Fe524     1.0  0.60767  0.75378  0.27671  1.0000
  C   C3674     1.0  0.63814  0.76564  0.33331  1.0000
  C   C3675     1.0  0.52820  0.97946  0.44731  1.0000
  H   H6305     1.0  0.61869  0.78416  0.05254  1.0000
  H   H6306     1.0  0.57937  0.80943  0.08483  1.0000
  Fe  Fe525     1.0  0.57436  0.75782  0.28104  1.0000
  H   H6307     1.0  0.68016  0.73605  0.99509  1.0000
  H   H6308     1.0  0.67309  0.80971  0.38039  1.0000
  H   H6309     1.0  0.66226  0.84499  0.33709  1.0000
  C   C3676     1.0  0.73504  0.88973  0.32711  1.0000
  H   H6310     1.0  0.73666  0.97742  0.18774  1.0000
  S   S1054     1.0  0.62193  0.79367  0.36232  1.0000
  H   H6311     1.0  0.57791  0.80722  0.05943  1.0000
  H   H6312     1.0  0.71410  0.90791  0.31035  1.0000
  H   H6313     1.0  0.70561  0.97298  0.37733  1.0000
  S   S1055     1.0  0.70152  0.80629  0.42578  1.0000
  S   S1056     1.0  0.69339  0.84786  0.41674  1.0000
  C   C3677     1.0  0.49703  0.97315  0.27760  1.0000
  H   H6314     1.0  0.52685  0.97276  0.42194  1.0000
  H   H6315     1.0  0.64500  0.76644  0.28817  1.0000
  S   S1057     1.0  0.59358  0.75494  0.11531  1.0000
  H   H6316     1.0  0.53550  0.96880  0.45170  1.0000
  H   H6317     1.0  0.50903  0.97285  0.35461  1.0000
  C   C3678     1.0  0.65362  0.83831  0.37509  1.0000
  C   C3679     1.0  0.64454  0.82805  0.35969  1.0000
  H   H6318     1.0  0.68546  0.89244  0.28695  1.0000
  C   C3680     1.0  0.60063  0.75070  0.35983  1.0000
  H   H6319     1.0  0.67650  0.91319  0.29974  1.0000
  C   C3681     1.0  0.63887  0.77151  0.19803  1.0000
  N   N267      1.0  0.58506  0.75851  0.17273  1.0000
  C   C3682     1.0  0.59246  0.74340  0.18038  1.0000
  C   C3683     1.0  0.57049  0.76330  0.18315  1.0000
  C   C3684     1.0  0.59516  0.76890  0.17035  1.0000
  C   C3685     1.0  0.58298  0.75735  0.15819  1.0000
  H   H6320     1.0  0.73434  0.95086  0.37309  1.0000
  C   C3686     1.0  0.70743  0.97561  0.21374  1.0000
  C   C3687     1.0  0.58965  0.78518  0.16307  1.0000
  C   C3688     1.0  0.53770  0.97429  0.42272  1.0000
  H   H6321     1.0  0.70913  0.90023  0.23526  1.0000
  C   C3689     1.0  0.50066  0.96608  0.33965  1.0000
  H   H6322     1.0  0.56418  0.77436  0.17855  1.0000
  H   H6323     1.0  0.57264  0.76460  0.19344  1.0000
  H   H6324     1.0  0.59757  0.76869  0.18106  1.0000
  H   H6325     1.0  0.60616  0.76536  0.16306  1.0000
  H   H6326     1.0  0.73418  0.87793  0.23884  1.0000
  H   H6327     1.0  0.50948  0.80389  0.29893  1.0000
  N   N268      1.0  0.72365  0.80388  0.37816  1.0000
  S   S1058     1.0  0.65717  0.76401  0.98833  1.0000
  H   H6328     1.0  0.70723  0.86292  0.20957  1.0000
  H   H6329     1.0  0.55831  0.97847  0.40592  1.0000
  C   C3690     1.0  0.73718  0.89265  0.38995  1.0000
  N   N269      1.0  0.73925  0.87565  0.41589  1.0000
  H   H6330     1.0  0.57865  0.79036  0.16917  1.0000
  H   H6331     1.0  0.58957  0.78644  0.15133  1.0000
  H   H6332     1.0  0.59773  0.79159  0.16295  1.0000
  H   H6333     1.0  0.49599  0.77085  0.42572  1.0000
  H   H6334     1.0  0.56755  0.77991  0.15477  1.0000
  C   C3691     1.0  0.73767  0.84752  0.31296  1.0000
  H   H6335     1.0  0.57436  0.77168  0.13924  1.0000
  H   H6336     1.0  0.63889  0.96590  0.25239  1.0000
  C   C3692     1.0  0.74196  0.89509  0.30007  1.0000
  H   H6337     1.0  0.60936  0.73690  0.16109  1.0000
  H   H6338     1.0  0.50216  0.98164  0.24164  1.0000
  H   H6339     1.0  0.69496  0.81283  0.39597  1.0000
  H   H6340     1.0  0.61697  0.74678  0.23642  1.0000
  S   S1059     1.0  0.62521  0.75537  0.13467  1.0000
  H   H6341     1.0  0.63399  0.83667  0.35934  1.0000
  H   H6342     1.0  0.52990  0.94730  0.27381  1.0000
  H   H6343     1.0  0.64493  0.75533  0.32984  1.0000
  H   H6344     1.0  0.65127  0.82811  0.33584  1.0000
  H   H6345     1.0  0.50792  0.79232  0.27894  1.0000
  H   H6346     1.0  0.51637  0.93073  0.29317  1.0000
  H   H6347     1.0  0.71741  0.82612  0.42709  1.0000
  H   H6348     1.0  0.56438  0.79195  0.28806  1.0000
  H   H6349     1.0  0.53585  0.79543  0.33093  1.0000
  H   H6350     1.0  0.60684  0.79458  0.46848  1.0000
  H   H6351     1.0  0.62374  0.83154  0.45724  1.0000
  H   H6352     1.0  0.56417  0.78473  0.06068  1.0000
  H   H6353     1.0  0.65290  0.82820  0.38400  1.0000
  S   S1060     1.0  0.58940  0.79484  0.38641  1.0000
  C   C3693     1.0  0.73165  0.84092  0.32749  1.0000
  C   C3694     1.0  0.52689  0.98170  0.27317  1.0000
  H   H6354     1.0  0.66305  0.78015  0.28304  1.0000
  S   S1061     1.0  0.57447  0.73464  0.29408  1.0000
  H   H6355     1.0  0.62583  0.87786  0.25074  1.0000
  H   H6356     1.0  0.72880  0.89088  0.43037  1.0000
  C   C3695     1.0  0.65553  0.86959  0.23380  1.0000
  H   H6357     1.0  0.63919  0.77133  0.45725  1.0000
  C   C3696     1.0  0.68681  0.82417  0.26187  1.0000
  H   H6358     1.0  0.66306  0.86331  0.35820  1.0000
  S   S1062     1.0  0.64437  0.97747  0.21784  1.0000
  C   C3697     1.0  0.69554  0.92293  0.28865  1.0000
  H   H6359     1.0  0.50498  0.96571  0.23457  1.0000
  H   H6360     1.0  0.56622  0.81985  0.33691  1.0000
  C   C3698     1.0  0.68704  0.91233  0.29174  1.0000
  H   H6361     1.0  0.72120  0.92732  0.32699  1.0000
  C   C3699     1.0  0.67840  0.82281  0.24084  1.0000
  H   H6362     1.0  0.56566  0.83493  0.32142  1.0000
  H   H6363     1.0  0.67124  0.81908  0.23642  1.0000
  Fe  Fe526     1.0  0.67444  0.86001  0.30539  1.0000
  H   H6364     1.0  0.71913  0.93505  0.35159  1.0000
  C   C3700     1.0  0.69222  0.90044  0.28467  1.0000
  H   H6365     1.0  0.66777  0.86731  0.33853  1.0000
  S   S1063     1.0  0.68546  0.81993  0.28097  1.0000
  Fe  Fe527     1.0  0.69231  0.83652  0.28863  1.0000
  H   H6366     1.0  0.62933  0.84371  0.38388  1.0000
  Fe  Fe528     1.0  0.70304  0.86473  0.28352  1.0000
  C   C3701     1.0  0.64664  0.76763  0.05627  1.0000
  H   H6367     1.0  0.65017  0.95202  0.28669  1.0000
  C   C3702     1.0  0.56362  0.79206  0.33581  1.0000
  S   S1064     1.0  0.68352  0.83581  0.31278  1.0000
  S   S1065     1.0  0.68916  0.93712  0.29843  1.0000
  H   H6368     1.0  0.50837  0.79612  0.42129  1.0000
  Fe  Fe529     1.0  0.49980  0.78143  0.36396  1.0000
  S   S1066     1.0  0.59105  0.79781  0.35115  1.0000
  H   H6369     1.0  0.63512  0.75220  0.07307  1.0000
  C   C3703     1.0  0.59415  0.76205  0.07457  1.0000
  H   H6370     1.0  0.51099  0.83105  0.26858  1.0000
  S   S1067     1.0  0.71781  0.95232  0.19981  1.0000
  H   H6371     1.0  0.64658  0.79412  0.31015  1.0000
  S   S1068     1.0  0.71450  0.84063  0.28842  1.0000
  H   H6372     1.0  0.54841  0.75850  0.19320  1.0000
  Fe  Fe530     1.0  0.59007  0.73866  0.30531  1.0000
  C   C3704     1.0  0.64735  0.84533  0.30688  1.0000
  C   C3705     1.0  0.73209  0.86334  0.42623  1.0000
  C   C3706     1.0  0.71745  0.97739  0.23357  1.0000
  Fe  Fe531     1.0  0.60780  0.80746  0.37866  1.0000
  C   C3707     1.0  0.63215  0.87321  0.28009  1.0000
  S   S1069     1.0  0.55183  0.77215  0.27834  1.0000
  C   C3708     1.0  0.55774  0.76687  0.25058  1.0000
  Fe  Fe532     1.0  0.64329  0.76673  0.09316  1.0000
  C   C3709     1.0  0.62482  0.78478  0.44291  1.0000
  C   C3710     1.0  0.50866  0.96005  0.25695  1.0000
  C   C3711     1.0  0.69124  0.87411  0.23712  1.0000
  C   C3712     1.0  0.66385  0.98050  0.34439  1.0000
  C   C3713     1.0  0.71528  0.86768  0.43326  1.0000
  C   C3714     1.0  0.72235  0.88180  0.32929  1.0000
  C   C3715     1.0  0.71915  0.79020  0.38872  1.0000
  H   H6373     1.0  0.58189  0.76386  0.07598  1.0000
  H   H6374     1.0  0.56005  0.79808  0.34491  1.0000
  H   H6375     1.0  0.55441  0.74333  0.37195  1.0000
  S   S1070     1.0  0.59364  0.75135  0.26278  1.0000
  H   H6376     1.0  0.54874  0.82905  0.33125  1.0000
  N   N270      1.0  0.65695  0.83456  0.36025  1.0000
  Fe  Fe533     1.0  0.63208  0.77675  0.12277  1.0000
  C   C3716     1.0  0.62225  0.86031  0.24340  1.0000
  H   H6377     1.0  0.65159  0.79653  0.46538  1.0000
  C   C3717     1.0  0.65691  0.95971  0.27859  1.0000
  C   C3718     1.0  0.55010  0.79304  0.37697  1.0000
  C   C3719     1.0  0.69690  0.83254  0.25235  1.0000
  H   H6378     1.0  0.70412  0.83622  0.25676  1.0000
  C   C3720     1.0  0.64986  0.78803  0.14686  1.0000
  C   C3721     1.0  0.63431  0.80393  0.24586  1.0000
  C   C3722     1.0  0.62525  0.82036  0.46464  1.0000
  C   C3723     1.0  0.52268  0.80184  0.36844  1.0000
  S   S1071     1.0  0.72855  0.78535  0.45334  1.0000
  C   C3724     1.0  0.54692  0.76903  0.26342  1.0000
  C   C3725     1.0  0.50967  0.94011  0.28641  1.0000
  C   C3726     1.0  0.66812  0.97152  0.24610  1.0000
  C   C3727     1.0  0.53826  0.75104  0.32028  1.0000
  C   C3728     1.0  0.52817  0.76621  0.25243  1.0000
  H   H6379     1.0  0.71233  0.91180  0.33627  1.0000
  N   N271      1.0  0.67080  0.95505  0.25234  1.0000
  C   C3729     1.0  0.68639  0.94853  0.24451  1.0000
  H   H6380     1.0  0.59145  0.77692  0.08795  1.0000
  C   C3730     1.0  0.65991  0.94874  0.24857  1.0000
  C   C3731     1.0  0.67016  0.95099  0.26871  1.0000
  C   C3732     1.0  0.69087  0.93150  0.24701  1.0000
  C   C3733     1.0  0.72230  0.91295  0.31237  1.0000
  H   H6381     1.0  0.73384  0.82122  0.37868  1.0000
  Fe  Fe534     1.0  0.71814  0.97593  0.26890  1.0000
  H   H6382     1.0  0.68809  0.95282  0.23233  1.0000
  H   H6383     1.0  0.69504  0.95186  0.24778  1.0000
  H   H6384     1.0  0.54352  0.96327  0.42828  1.0000
  H   H6385     1.0  0.66965  0.79192  0.29000  1.0000
  H   H6386     1.0  0.51249  0.96803  0.44424  1.0000
  H   H6387     1.0  0.66226  0.93648  0.25220  1.0000
  H   H6388     1.0  0.67005  0.93906  0.27318  1.0000
  H   H6389     1.0  0.68055  0.95227  0.27085  1.0000
  H   H6390     1.0  0.70319  0.92806  0.24340  1.0000
  H   H6391     1.0  0.68778  0.92593  0.25874  1.0000
  H   H6392     1.0  0.68586  0.92746  0.24024  1.0000
  H   H6393     1.0  0.53354  0.97288  0.28040  1.0000
  C   C3734     1.0  0.63247  0.75254  0.30622  1.0000
  C   C3735     1.0  0.58982  0.73765  0.12502  1.0000
  C   C3736     1.0  0.72957  0.88408  0.40492  1.0000
  C   C3737     1.0  0.60851  0.73687  0.17273  1.0000
  H   H6394     1.0  0.70094  0.95711  0.35578  1.0000
  H   H6395     1.0  0.71165  0.85766  0.44080  1.0000
  H   H6396     1.0  0.62390  0.78638  0.32550  1.0000
  H   H6397     1.0  0.61151  0.80934  0.03907  1.0000
  C   C3738     1.0  0.56091  0.82504  0.32733  1.0000
  H   H6398     1.0  0.64355  0.80942  0.24151  1.0000
  C   C3739     1.0  0.70896  0.92192  0.27801  1.0000
  H   H6399     1.0  0.70480  0.78837  0.37469  1.0000
  C   C3740     1.0  0.68860  0.83109  0.23132  1.0000
  H   H6400     1.0  0.68903  0.74532  0.00248  1.0000
  H   H6401     1.0  0.72892  0.78065  0.38884  1.0000
  H   H6402     1.0  0.73897  0.96500  0.34607  1.0000
  S   S1072     1.0  0.68969  0.83600  0.21224  1.0000
  H   H6403     1.0  0.57266  0.79355  0.07529  1.0000
  H   H6404     1.0  0.67092  0.97385  0.23379  1.0000
  C   C3741     1.0  0.71463  0.92005  0.32582  1.0000
  C   C3742     1.0  0.59137  0.80515  0.08503  1.0000
  S   S1073     1.0  0.68202  0.86049  0.28128  1.0000
  S   S1074     1.0  0.65045  0.86933  0.31450  1.0000
  H   H6405     1.0  0.66122  0.96471  0.28516  1.0000
  H   H6406     1.0  0.64046  0.94950  0.26737  1.0000
  C   C3743     1.0  0.69799  0.83573  0.23707  1.0000
  C   C3744     1.0  0.61041  0.78960  0.25746  1.0000
  H   H6407     1.0  0.69545  0.89004  0.20877  1.0000
  S   S1075     1.0  0.65243  0.77413  0.06864  1.0000
  C   C3745     1.0  0.53213  0.76868  0.26434  1.0000
  H   H6408     1.0  0.54788  0.96828  0.40146  1.0000
  C   C3746     1.0  0.72199  0.83251  0.41658  1.0000
  H   H6409     1.0  0.60119  0.78404  0.26179  1.0000
  C   C3747     1.0  0.63384  0.78971  0.21289  1.0000
  C   C3748     1.0  0.70611  0.89888  0.27478  1.0000
  S   S1076     1.0  0.58829  0.76247  0.29377  1.0000
  C   C3749     1.0  0.73408  0.84940  0.38958  1.0000
  H   H6410     1.0  0.62803  0.77605  0.19455  1.0000
  H   H6411     1.0  0.65623  0.97714  0.24879  1.0000
  C   C3750     1.0  0.55923  0.77698  0.34269  1.0000
  H   H6412     1.0  0.66350  0.80331  0.37053  1.0000
  C   C3751     1.0  0.63670  0.78913  0.25356  1.0000
  Fe  Fe535     1.0  0.70371  0.95339  0.29310  1.0000
  H   H6413     1.0  0.66476  0.78364  0.20852  1.0000
  H   H6414     1.0  0.56461  0.77141  0.35222  1.0000
  H   H6415     1.0  0.64227  0.79515  0.20424  1.0000
  C   C3752     1.0  0.66765  0.85813  0.34851  1.0000
  N   N272      1.0  0.63727  0.77332  0.21343  1.0000
  H   H6416     1.0  0.71879  0.80228  0.35029  1.0000
  H   H6417     1.0  0.61128  0.85708  0.24781  1.0000
  H   H6418     1.0  0.63036  0.85071  0.23975  1.0000
  H   H6419     1.0  0.66975  0.78365  0.15517  1.0000
  H   H6420     1.0  0.73275  0.89114  0.29848  1.0000
  Fe  Fe536     1.0  0.68901  0.82716  0.43339  1.0000
  H   H6421     1.0  0.63707  0.81824  0.34617  1.0000
  S   S1077     1.0  0.70889  0.96010  0.31119  1.0000
  C   C3753     1.0  0.67767  0.81918  0.25610  1.0000
  H   H6422     1.0  0.63598  0.85832  0.36949  1.0000
  Fe  Fe537     1.0  0.61628  0.75745  0.11501  1.0000
  H   H6423     1.0  0.65470  0.78033  0.13964  1.0000
  H   H6424     1.0  0.66807  0.76982  0.19790  1.0000
  S   S1078     1.0  0.62296  0.78198  0.98438  1.0000
  H   H6425     1.0  0.61884  0.81159  0.44992  1.0000
  H   H6426     1.0  0.64655  0.85521  0.34709  1.0000
  H   H6427     1.0  0.63967  0.85517  0.38713  1.0000
  C   C3754     1.0  0.63876  0.84945  0.37904  1.0000
  H   H6428     1.0  0.54319  0.73564  0.26430  1.0000
  H   H6429     1.0  0.54592  0.77104  0.38350  1.0000
  C   C3755     1.0  0.62481  0.78190  0.25911  1.0000
  H   H6430     1.0  0.64782  0.78321  0.25496  1.0000
  H   H6431     1.0  0.63743  0.78831  0.39299  1.0000
  H   H6432     1.0  0.60553  0.79643  0.29083  1.0000
  C   C3756     1.0  0.52802  0.78694  0.37451  1.0000
  H   H6433     1.0  0.56136  0.74572  0.35248  1.0000
  S   S1079     1.0  0.50196  0.74929  0.21623  1.0000
  S   S1080     1.0  0.69448  0.86641  0.30725  1.0000
  H   H6434     1.0  0.65593  0.81014  0.34768  1.0000
  H   H6435     1.0  0.66993  0.81263  0.26343  1.0000
  H   H6436     1.0  0.71881  0.97963  0.13870  1.0000
  N   N273      1.0  0.71525  0.97156  0.35450  1.0000
  H   H6437     1.0  0.65314  0.79919  0.28296  1.0000
  S   S1081     1.0  0.53433  0.76083  0.22466  1.0000
  H   H6438     1.0  0.56076  0.78957  0.38016  1.0000
  H   H6439     1.0  0.51676  0.76587  0.25323  1.0000
  H   H6440     1.0  0.62102  0.86934  0.23344  1.0000
  C   C3757     1.0  0.66556  0.77181  0.20918  1.0000
  H   H6441     1.0  0.64634  0.77835  0.18972  1.0000
  C   C3758     1.0  0.54065  0.80543  0.32748  1.0000
  C   C3759     1.0  0.71149  0.91399  0.21287  1.0000
  H   H6442     1.0  0.67532  0.76551  0.21409  1.0000
  H   H6443     1.0  0.71120  0.95103  0.36983  1.0000
  C   C3760     1.0  0.70685  0.90042  0.22450  1.0000
  H   H6444     1.0  0.71115  0.88922  0.33132  1.0000
  S   S1082     1.0  0.51759  0.77372  0.37708  1.0000
  H   H6445     1.0  0.57607  0.78975  0.33296  1.0000
  H   H6446     1.0  0.52383  0.76989  0.27439  1.0000
  C   C3761     1.0  0.65145  0.76651  0.21906  1.0000
  Fe  Fe538     1.0  0.70611  0.79818  0.44849  1.0000
  S   S1083     1.0  0.65469  0.76601  0.11099  1.0000
  H   H6447     1.0  0.70344  0.82862  0.39140  1.0000
  Fe  Fe539     1.0  0.70449  0.84217  0.31215  1.0000
  H   H6448     1.0  0.67942  0.85216  0.34830  1.0000
  H   H6449     1.0  0.60907  0.79505  0.21849  1.0000
  S   S1084     1.0  0.63730  0.74459  0.10307  1.0000
  H   H6450     1.0  0.57334  0.78489  0.31123  1.0000
  N   N274      1.0  0.53925  0.73485  0.34694  1.0000
  H   H6451     1.0  0.56222  0.76274  0.22879  1.0000
  H   H6452     1.0  0.61300  0.77719  0.29289  1.0000
  H   H6453     1.0  0.57686  0.81092  0.31364  1.0000
  C   C3762     1.0  0.67181  0.82375  0.35818  1.0000
  N   N275      1.0  0.55742  0.80127  0.32253  1.0000
  H   H6454     1.0  0.72440  0.81269  0.39627  1.0000
  H   H6455     1.0  0.68904  0.82915  0.38287  1.0000
  H   H6456     1.0  0.59825  0.77073  0.34308  1.0000
  H   H6457     1.0  0.51637  0.74692  0.34836  1.0000
  H   H6458     1.0  0.56329  0.76955  0.33482  1.0000
  H   H6459     1.0  0.52879  0.81029  0.30962  1.0000
  H   H6460     1.0  0.59204  0.75945  0.32593  1.0000
  C   C3763     1.0  0.50559  0.82286  0.26719  1.0000
  C   C3764     1.0  0.71787  0.97361  0.15042  1.0000
  Fe  Fe540     1.0  0.73142  0.96059  0.29610  1.0000
  H   H6461     1.0  0.68322  0.80102  0.36535  1.0000
  C   C3765     1.0  0.73751  0.88466  0.22761  1.0000
  H   H6462     1.0  0.62035  0.75721  0.30889  1.0000
  S   S1085     1.0  0.69473  0.97656  0.28206  1.0000
  C   C3766     1.0  0.71260  0.84420  0.40907  1.0000
  H   H6463     1.0  0.51712  0.94980  0.25490  1.0000
  H   H6464     1.0  0.73864  0.85588  0.37910  1.0000
  H   H6465     1.0  0.72389  0.92230  0.30270  1.0000
  Fe  Fe541     1.0  0.64698  0.74471  0.12162  1.0000
  H   H6466     1.0  0.71890  0.96184  0.15049  1.0000
  H   H6467     1.0  0.73779  0.85793  0.43559  1.0000
  H   H6468     1.0  0.65834  0.77611  0.31122  1.0000
  N   N276      1.0  0.59631  0.78958  0.06544  1.0000
  H   H6469     1.0  0.73336  0.85448  0.42043  1.0000
  H   H6470     1.0  0.57195  0.80580  0.29038  1.0000
  C   C3767     1.0  0.51001  0.79425  0.41010  1.0000
  C   C3768     1.0  0.71862  0.85266  0.39550  1.0000
  C   C3769     1.0  0.58022  0.79506  0.06411  1.0000
  H   H6471     1.0  0.73918  0.91568  0.28273  1.0000
  H   H6472     1.0  0.55907  0.97778  0.43097  1.0000
  S   S1086     1.0  0.71555  0.83378  0.33158  1.0000
  C   C3770     1.0  0.59978  0.73583  0.36382  1.0000
  S   S1087     1.0  0.60569  0.75793  0.37210  1.0000
  C   C3771     1.0  0.67273  0.80868  0.36935  1.0000
  C   C3772     1.0  0.59422  0.75286  0.33647  1.0000
  C   C3773     1.0  0.56190  0.79194  0.31112  1.0000
  H   H6473     1.0  0.72593  0.81693  0.44780  1.0000
  H   H6474     1.0  0.66189  0.96942  0.34870  1.0000
  C   C3774     1.0  0.71286  0.97947  0.33922  1.0000
  H   H6475     1.0  0.55439  0.78411  0.31378  1.0000
  S   S1088     1.0  0.63252  0.74636  0.98765  1.0000
  C   C3775     1.0  0.70779  0.88635  0.20675  1.0000
  H   H6476     1.0  0.66115  0.95130  0.23639  1.0000
  H   H6477     1.0  0.54278  0.75724  0.33764  1.0000
  C   C3776     1.0  0.72867  0.79453  0.35403  1.0000
  H   H6478     1.0  0.71431  0.82542  0.36590  1.0000
  H   H6479     1.0  0.54704  0.77814  0.34713  1.0000
  H   H6480     1.0  0.64548  0.77167  0.33529  1.0000
  H   H6481     1.0  0.64979  0.75623  0.18349  1.0000
  Fe  Fe542     1.0  0.66287  0.96792  0.20048  1.0000
  C   C3777     1.0  0.73155  0.81034  0.38556  1.0000
  C   C3778     1.0  0.49562  0.75207  0.30215  1.0000
  H   H6482     1.0  0.58258  0.77806  0.05111  1.0000
  C   C3779     1.0  0.54679  0.97756  0.40663  1.0000
  H   H6483     1.0  0.61751  0.81046  0.20970  1.0000
  Fe  Fe543     1.0  0.70219  0.98326  0.29861  1.0000
  C   C3780     1.0  0.64414  0.75569  0.19531  1.0000
  H   H6484     1.0  0.68902  0.86491  0.24676  1.0000
  H   H6485     1.0  0.71198  0.89489  0.19722  1.0000
  H   H6486     1.0  0.52079  0.97140  0.23573  1.0000
  H   H6487     1.0  0.49769  0.95676  0.26054  1.0000
  H   H6488     1.0  0.64929  0.96868  0.27258  1.0000
  H   H6489     1.0  0.66608  0.74279  0.02023  1.0000
  C   C3781     1.0  0.70496  0.97974  0.36603  1.0000
  H   H6490     1.0  0.72852  0.89939  0.38367  1.0000
  H   H6491     1.0  0.74454  0.91442  0.32420  1.0000
  H   H6492     1.0  0.63051  0.76242  0.34411  1.0000
  C   C3782     1.0  0.73585  0.96241  0.36952  1.0000
  H   H6493     1.0  0.63453  0.75037  0.19782  1.0000
  H   H6494     1.0  0.58022  0.74652  0.15939  1.0000
  C   C3783     1.0  0.61848  0.79868  0.20975  1.0000
  C   C3784     1.0  0.71045  0.81577  0.37403  1.0000
  C   C3785     1.0  0.50463  0.79410  0.30114  1.0000
  H   H6495     1.0  0.51583  0.78261  0.40976  1.0000
  H   H6496     1.0  0.73370  0.98166  0.35210  1.0000
  C   C3786     1.0  0.72340  0.94527  0.34906  1.0000
  H   H6497     1.0  0.68446  0.88445  0.24054  1.0000
  H   H6498     1.0  0.74323  0.98079  0.30586  1.0000
  H   H6499     1.0  0.72297  0.91157  0.20617  1.0000
  C   C3787     1.0  0.73038  0.97469  0.15703  1.0000
  H   H6500     1.0  0.52662  0.75762  0.32248  1.0000
  C   C3788     1.0  0.73736  0.82924  0.41071  1.0000
  C   C3789     1.0  0.73852  0.84009  0.33882  1.0000
  C   C3790     1.0  0.52311  0.73555  0.34766  1.0000
  H   H6501     1.0  0.49879  0.97505  0.28779  1.0000
  H   H6502     1.0  0.61483  0.82012  0.47331  1.0000
  H   H6503     1.0  0.70191  0.97864  0.33797  1.0000
  H   H6504     1.0  0.71135  0.92259  0.21851  1.0000
  C   C3791     1.0  0.54496  0.74664  0.33414  1.0000
  C   C3792     1.0  0.74345  0.83770  0.39724  1.0000
  H   H6505     1.0  0.73006  0.96606  0.16749  1.0000
  H   H6506     1.0  0.60831  0.98197  0.35118  1.0000
  H   H6507     1.0  0.62003  0.98234  0.32575  1.0000
  H   H6508     1.0  0.68872  0.97457  0.25015  1.0000
  H   H6509     1.0  0.67177  0.98131  0.26239  1.0000
  H   H6510     1.0  0.50665  0.74506  0.30226  1.0000
  H   H6511     1.0  0.74058  0.90823  0.41220  1.0000
  C   C3793     1.0  0.61639  0.79016  0.47412  1.0000
  C   C3794     1.0  0.74020  0.88551  0.42509  1.0000
  H   H6512     1.0  0.50820  0.97261  0.46178  1.0000
  C   C3795     1.0  0.51243  0.97667  0.44977  1.0000
  H   H6513     1.0  0.74121  0.97100  0.14950  1.0000
  S   S1089     1.0  0.50286  0.74201  0.25176  1.0000
  H   H6514     1.0  0.74454  0.82023  0.41674  1.0000
  H   H6515     1.0  0.74429  0.79128  0.36709  1.0000
  H   H6516     1.0  0.74396  0.83182  0.44547  1.0000
  H   H6517     1.0  0.74489  0.88496  0.38305  1.0000
  C   C3796     1.0  0.49526  0.79870  0.40471  1.0000
  H   H6518     1.0  0.58366  0.73367  0.22214  1.0000
  H   H6519     1.0  0.71394  0.98295  0.18005  1.0000
  H   H6520     1.0  0.62725  0.98261  0.35053  1.0000
  S   S1090     1.0  0.67925  0.98278  0.14494  1.0000
  H   H6521     1.0  0.60416  0.73363  0.13998  1.0000
  S   S1091     1.0  0.66801  0.94841  0.73936  1.0000
  C   C3797     1.0  0.62002  0.74202  0.85233  1.0000
  S   S1092     1.0  0.66946  0.94312  0.90580  1.0000
  H   H6522     1.0  0.53472  0.78823  0.69751  1.0000
  Fe  Fe544     1.0  0.64686  0.86965  0.73726  1.0000
  S   S1093     1.0  0.64783  0.84705  0.75173  1.0000
  S   S1094     1.0  0.62657  0.88309  0.72844  1.0000
  Fe  Fe545     1.0  0.67795  0.87032  0.73910  1.0000
  S   S1095     1.0  0.68157  0.84754  0.75355  1.0000
  S   S1096     1.0  0.69635  0.88260  0.73337  1.0000
  Fe  Fe546     1.0  0.67119  0.84195  0.73831  1.0000
  S   S1097     1.0  0.67868  0.82021  0.73153  1.0000
  Fe  Fe547     1.0  0.65808  0.85493  0.76551  1.0000
  S   S1098     1.0  0.65035  0.84968  0.79016  1.0000
  S   S1099     1.0  0.66958  0.86412  0.72266  1.0000
  S   S1100     1.0  0.65504  0.87815  0.75230  1.0000
  Fe  Fe548     1.0  0.60429  0.79726  0.80406  1.0000
  S   S1101     1.0  0.59636  0.81017  0.82181  1.0000
  S   S1102     1.0  0.60780  0.81143  0.78113  1.0000
  Fe  Fe549     1.0  0.60419  0.76792  0.82631  1.0000
  S   S1103     1.0  0.59640  0.77846  0.84578  1.0000
  S   S1104     1.0  0.60589  0.74360  0.83071  1.0000
  Fe  Fe550     1.0  0.58070  0.79486  0.83253  1.0000
  S   S1105     1.0  0.55597  0.80123  0.84099  1.0000
  Fe  Fe551     1.0  0.61286  0.79254  0.83310  1.0000
  S   S1106     1.0  0.62979  0.79694  0.84237  1.0000
  S   S1107     1.0  0.58733  0.78330  0.81388  1.0000
  S   S1108     1.0  0.62207  0.78059  0.81452  1.0000
  H   H6523     1.0  0.67337  0.85586  0.94149  1.0000
  Fe  Fe552     1.0  0.62452  0.76604  0.97071  1.0000
  S   S1109     1.0  0.64744  0.76790  0.95721  1.0000
  S   S1110     1.0  0.60804  0.76861  0.95690  1.0000
  H   H6524     1.0  0.69669  0.94578  0.65508  1.0000
  Fe  Fe553     1.0  0.64650  0.78266  0.97182  1.0000
  S   S1111     1.0  0.65085  0.80576  0.96374  1.0000
  N   N277      1.0  0.72027  0.80222  0.50164  1.0000
  Fe  Fe554     1.0  0.64474  0.88514  0.87813  1.0000
  S   S1112     1.0  0.66910  0.87492  0.87171  1.0000
  S   S1113     1.0  0.63551  0.90689  0.88540  1.0000
  Fe  Fe555     1.0  0.63505  0.86129  0.86986  1.0000
  S   S1114     1.0  0.65877  0.84922  0.86329  1.0000
  S   S1115     1.0  0.61519  0.85407  0.86793  1.0000
  Fe  Fe556     1.0  0.66194  0.85346  0.88363  1.0000
  S   S1116     1.0  0.67579  0.83465  0.89732  1.0000
  Fe  Fe557     1.0  0.66320  0.87171  0.85204  1.0000
  S   S1117     1.0  0.67553  0.87688  0.82827  1.0000
  S   S1118     1.0  0.63783  0.86389  0.89129  1.0000
  S   S1119     1.0  0.63935  0.88362  0.85750  1.0000
  Fe  Fe558     1.0  0.68618  0.83839  0.57569  1.0000
  S   S1120     1.0  0.68709  0.81553  0.58985  1.0000
  S   S1121     1.0  0.68680  0.85669  0.58555  1.0000
  Fe  Fe559     1.0  0.68050  0.82981  0.54997  1.0000
  S   S1122     1.0  0.68045  0.80632  0.56232  1.0000
  S   S1123     1.0  0.68065  0.83915  0.52567  1.0000
  Fe  Fe560     1.0  0.66703  0.81620  0.58190  1.0000
  S   S1124     1.0  0.64799  0.80773  0.59917  1.0000
  Fe  Fe561     1.0  0.70039  0.80786  0.56926  1.0000
  S   S1125     1.0  0.66517  0.83966  0.56886  1.0000
  S   S1126     1.0  0.70141  0.83069  0.55575  1.0000
  Fe  Fe562     1.0  0.59169  0.83775  0.69784  1.0000
  S   S1127     1.0  0.61391  0.82312  0.70021  1.0000
  S   S1128     1.0  0.58334  0.85847  0.70672  1.0000
  Fe  Fe563     1.0  0.58414  0.81738  0.68309  1.0000
  S   S1129     1.0  0.60601  0.80098  0.68475  1.0000
  S   S1130     1.0  0.56902  0.80979  0.67367  1.0000
  Fe  Fe564     1.0  0.60156  0.80480  0.70766  1.0000
  S   S1131     1.0  0.60291  0.78709  0.72858  1.0000
  Fe  Fe565     1.0  0.61609  0.82098  0.67716  1.0000
  S   S1132     1.0  0.63756  0.82450  0.66073  1.0000
  S   S1133     1.0  0.57905  0.81960  0.70655  1.0000
  S   S1134     1.0  0.59456  0.83721  0.67407  1.0000
  S   S1135     1.0  0.53118  0.81757  0.78310  1.0000
  H   H6525     1.0  0.68242  0.86528  0.89850  1.0000
  Fe  Fe566     1.0  0.50722  0.79044  0.76273  1.0000
  H   H6526     1.0  0.64366  0.93578  0.85808  1.0000
  H   H6527     1.0  0.67524  0.93842  0.86948  1.0000
  C   C3798     1.0  0.58097  0.75016  0.87935  1.0000
  C   C3799     1.0  0.55060  0.81913  0.67186  1.0000
  C   C3800     1.0  0.54112  0.81119  0.67016  1.0000
  C   C3801     1.0  0.52644  0.81821  0.66850  1.0000
  C   C3802     1.0  0.52128  0.83336  0.66802  1.0000
  C   C3803     1.0  0.53087  0.84135  0.66947  1.0000
  C   C3804     1.0  0.54540  0.83424  0.67158  1.0000
  H   H6528     1.0  0.54512  0.79955  0.67013  1.0000
  H   H6529     1.0  0.51920  0.81195  0.66734  1.0000
  H   H6530     1.0  0.52699  0.85309  0.66903  1.0000
  H   H6531     1.0  0.55265  0.84051  0.67271  1.0000
  C   C3805     1.0  0.67455  0.83074  0.51511  1.0000
  C   C3806     1.0  0.67690  0.83624  0.49978  1.0000
  C   C3807     1.0  0.67259  0.82968  0.49083  1.0000
  C   C3808     1.0  0.66565  0.81771  0.49718  1.0000
  C   C3809     1.0  0.66311  0.81229  0.51255  1.0000
  C   C3810     1.0  0.66769  0.81870  0.52150  1.0000
  H   H6532     1.0  0.68203  0.84566  0.49482  1.0000
  H   H6533     1.0  0.69274  0.83134  0.60929  1.0000
  H   H6534     1.0  0.56923  0.75566  0.74311  1.0000
  H   H6535     1.0  0.66577  0.81443  0.53333  1.0000
  C   C3811     1.0  0.70371  0.85663  0.58945  1.0000
  C   C3812     1.0  0.71747  0.84926  0.58227  1.0000
  C   C3813     1.0  0.70327  0.86406  0.60016  1.0000
  H   H6536     1.0  0.71789  0.84362  0.57390  1.0000
  H   H6537     1.0  0.69267  0.87001  0.60553  1.0000
  C   C3814     1.0  0.64556  0.81209  0.61634  1.0000
  C   C3815     1.0  0.63807  0.80383  0.62927  1.0000
  C   C3816     1.0  0.63550  0.80758  0.64295  1.0000
  C   C3817     1.0  0.64050  0.81957  0.64377  1.0000
  C   C3818     1.0  0.64812  0.82773  0.63089  1.0000
  C   C3819     1.0  0.65064  0.82402  0.61720  1.0000
  H   H6538     1.0  0.63432  0.79445  0.62870  1.0000
  H   H6539     1.0  0.62980  0.80110  0.65289  1.0000
  H   H6540     1.0  0.65181  0.83713  0.63143  1.0000
  H   H6541     1.0  0.65628  0.83057  0.60727  1.0000
  C   C3820     1.0  0.65682  0.81197  0.94459  1.0000
  C   C3821     1.0  0.67166  0.80711  0.93763  1.0000
  C   C3822     1.0  0.67719  0.81392  0.92299  1.0000
  C   C3823     1.0  0.66791  0.82555  0.91515  1.0000
  C   C3824     1.0  0.65285  0.82999  0.92187  1.0000
  C   C3825     1.0  0.64738  0.82336  0.93665  1.0000
  H   H6542     1.0  0.67906  0.79851  0.94377  1.0000
  H   H6543     1.0  0.68883  0.81041  0.91785  1.0000
  H   H6544     1.0  0.64554  0.83877  0.91584  1.0000
  H   H6545     1.0  0.63592  0.82723  0.94205  1.0000
  H   H6546     1.0  0.65221  0.94060  0.83903  1.0000
  H   H6547     1.0  0.64762  0.79809  0.92555  1.0000
  N   N278      1.0  0.56426  0.75541  0.88098  1.0000
  C   C3826     1.0  0.60175  0.75265  0.95854  1.0000
  C   C3827     1.0  0.59359  0.75252  0.94858  1.0000
  Fe  Fe567     1.0  0.50939  0.77279  0.79381  1.0000
  C   C3828     1.0  0.53952  0.75670  0.90074  1.0000
  H   H6548     1.0  0.59098  0.76232  0.94016  1.0000
  C   C3829     1.0  0.56619  0.74392  0.78237  1.0000
  H   H6549     1.0  0.63005  0.73854  0.90485  1.0000
  H   H6550     1.0  0.70502  0.78895  0.53914  1.0000
  C   C3830     1.0  0.65376  0.79184  0.91684  1.0000
  H   H6551     1.0  0.66576  0.84489  0.93487  1.0000
  H   H6552     1.0  0.73820  0.81883  0.59190  1.0000
  C   C3831     1.0  0.56429  0.78332  0.77456  1.0000
  C   C3832     1.0  0.57571  0.77952  0.71131  1.0000
  H   H6553     1.0  0.62367  0.75189  0.84547  1.0000
  C   C3833     1.0  0.54832  0.80686  0.82528  1.0000
  C   C3834     1.0  0.53401  0.80513  0.82616  1.0000
  C   C3835     1.0  0.52858  0.80844  0.81324  1.0000
  C   C3836     1.0  0.53741  0.81365  0.79951  1.0000
  C   C3837     1.0  0.55157  0.81566  0.79875  1.0000
  C   C3838     1.0  0.55701  0.81227  0.81158  1.0000
  H   H6554     1.0  0.52732  0.80092  0.83676  1.0000
  H   H6555     1.0  0.51755  0.80711  0.81391  1.0000
  H   H6556     1.0  0.55856  0.81948  0.78823  1.0000
  H   H6557     1.0  0.56802  0.81376  0.81083  1.0000
  C   C3839     1.0  0.62523  0.81367  0.84809  1.0000
  C   C3840     1.0  0.61040  0.82064  0.85309  1.0000
  C   C3841     1.0  0.60731  0.83334  0.85881  1.0000
  C   C3842     1.0  0.61903  0.83920  0.85927  1.0000
  C   C3843     1.0  0.63372  0.83261  0.85350  1.0000
  C   C3844     1.0  0.63684  0.81974  0.84823  1.0000
  H   H6558     1.0  0.60137  0.81593  0.85307  1.0000
  H   H6559     1.0  0.59587  0.83842  0.86322  1.0000
  H   H6560     1.0  0.64277  0.83725  0.85323  1.0000
  H   H6561     1.0  0.64833  0.81448  0.84426  1.0000
  C   C3845     1.0  0.60685  0.80419  0.76671  1.0000
  C   C3846     1.0  0.60687  0.81350  0.75270  1.0000
  C   C3847     1.0  0.60550  0.80831  0.74110  1.0000
  C   C3848     1.0  0.60461  0.79363  0.74322  1.0000
  C   C3849     1.0  0.60495  0.78415  0.75716  1.0000
  C   C3850     1.0  0.60593  0.78946  0.76895  1.0000
  H   H6562     1.0  0.60780  0.82484  0.75082  1.0000
  H   H6563     1.0  0.60510  0.81574  0.73052  1.0000
  H   H6564     1.0  0.60451  0.77272  0.75880  1.0000
  H   H6565     1.0  0.60619  0.78214  0.77969  1.0000
  C   C3851     1.0  0.69007  0.82016  0.71381  1.0000
  C   C3852     1.0  0.69630  0.83227  0.70541  1.0000
  C   C3853     1.0  0.70514  0.83190  0.69112  1.0000
  C   C3854     1.0  0.70765  0.81946  0.68527  1.0000
  H   H6566     1.0  0.66937  0.88117  0.93246  1.0000
  C   C3855     1.0  0.69270  0.80774  0.70793  1.0000
  H   H6567     1.0  0.69444  0.84182  0.70995  1.0000
  H   H6568     1.0  0.70992  0.84125  0.68462  1.0000
  H   H6569     1.0  0.68791  0.79838  0.71438  1.0000
  C   C3856     1.0  0.65778  0.85726  0.80034  1.0000
  C   C3857     1.0  0.66965  0.86446  0.79375  1.0000
  C   C3858     1.0  0.67532  0.87024  0.80239  1.0000
  C   C3859     1.0  0.66881  0.86928  0.81747  1.0000
  C   C3860     1.0  0.65679  0.86232  0.82389  1.0000
  C   C3861     1.0  0.65155  0.85603  0.81546  1.0000
  H   H6570     1.0  0.67462  0.86534  0.78210  1.0000
  H   H6571     1.0  0.68480  0.87536  0.79742  1.0000
  H   H6572     1.0  0.65150  0.86170  0.83540  1.0000
  H   H6573     1.0  0.64260  0.85023  0.82073  1.0000
  C   C3862     1.0  0.61473  0.87528  0.72322  1.0000
  C   C3863     1.0  0.60270  0.88491  0.71754  1.0000
  C   C3864     1.0  0.59313  0.87952  0.71277  1.0000
  C   C3865     1.0  0.59555  0.86441  0.71341  1.0000
  C   C3866     1.0  0.60731  0.85458  0.71953  1.0000
  C   C3867     1.0  0.61695  0.86001  0.72441  1.0000
  H   H6574     1.0  0.60086  0.89669  0.71666  1.0000
  H   H6575     1.0  0.58400  0.88717  0.70822  1.0000
  H   H6576     1.0  0.60898  0.84283  0.72053  1.0000
  H   H6577     1.0  0.62607  0.85245  0.72902  1.0000
  C   C3868     1.0  0.66010  0.93296  0.90015  1.0000
  C   C3869     1.0  0.64628  0.93951  0.89636  1.0000
  C   C3870     1.0  0.63887  0.93128  0.89205  1.0000
  C   C3871     1.0  0.64533  0.91652  0.89114  1.0000
  C   C3872     1.0  0.65929  0.90996  0.89472  1.0000
  C   C3873     1.0  0.66654  0.91810  0.89943  1.0000
  H   H6578     1.0  0.64110  0.95087  0.89707  1.0000
  H   H6579     1.0  0.62809  0.93645  0.88930  1.0000
  H   H6580     1.0  0.66457  0.89875  0.89369  1.0000
  H   H6581     1.0  0.67729  0.91300  0.90226  1.0000
  C   C3874     1.0  0.67606  0.93014  0.73786  1.0000
  C   C3875     1.0  0.66774  0.92206  0.73470  1.0000
  C   C3876     1.0  0.67399  0.90743  0.73334  1.0000
  C   C3877     1.0  0.68859  0.90089  0.73507  1.0000
  C   C3878     1.0  0.69704  0.90906  0.73799  1.0000
  C   C3879     1.0  0.69072  0.92369  0.73950  1.0000
  H   H6582     1.0  0.65644  0.92711  0.73330  1.0000
  H   H6583     1.0  0.66760  0.90132  0.73062  1.0000
  H   H6584     1.0  0.70837  0.90403  0.73925  1.0000
  H   H6585     1.0  0.69720  0.93000  0.74180  1.0000
  H   H6586     1.0  0.64998  0.78343  0.90003  1.0000
  H   H6587     1.0  0.66257  0.82090  0.80666  1.0000
  H   H6588     1.0  0.52662  0.82384  0.70022  1.0000
  S   S1136     1.0  0.69490  0.97910  0.76948  1.0000
  H   H6589     1.0  0.66431  0.91502  0.85139  1.0000
  H   H6590     1.0  0.68264  0.80021  0.62246  1.0000
  S   S1137     1.0  0.73222  0.95331  0.75492  1.0000
  C   C3880     1.0  0.70673  0.94299  0.67393  1.0000
  C   C3881     1.0  0.50684  0.74597  0.82475  1.0000
  C   C3882     1.0  0.55913  0.78360  0.88045  1.0000
  H   H6591     1.0  0.73317  0.85178  0.70664  1.0000
  H   H6592     1.0  0.71057  0.93046  0.71084  1.0000
  H   H6593     1.0  0.57670  0.75691  0.81594  1.0000
  H   H6594     1.0  0.69819  0.94048  0.83991  1.0000
  H   H6595     1.0  0.66155  0.83935  0.96193  1.0000
  C   C3883     1.0  0.60503  0.73998  0.96945  1.0000
  H   H6596     1.0  0.65769  0.80307  0.51754  1.0000
  C   C3884     1.0  0.64633  0.81550  0.89117  1.0000
  C   C3885     1.0  0.66005  0.80920  0.87996  1.0000
  H   H6597     1.0  0.64051  0.82589  0.88467  1.0000
  H   H6598     1.0  0.65026  0.81950  0.89882  1.0000
  H   H6599     1.0  0.65854  0.78050  0.92255  1.0000
  H   H6600     1.0  0.65760  0.81211  0.86880  1.0000
  H   H6601     1.0  0.66402  0.79708  0.88302  1.0000
  H   H6602     1.0  0.66961  0.81395  0.87937  1.0000
  C   C3886     1.0  0.63842  0.86840  0.93363  1.0000
  C   C3887     1.0  0.66261  0.85440  0.94036  1.0000
  C   C3888     1.0  0.65724  0.88194  0.93380  1.0000
  C   C3889     1.0  0.62900  0.88223  0.92519  1.0000
  C   C3890     1.0  0.65393  0.84867  0.95608  1.0000
  C   C3891     1.0  0.64985  0.88544  0.94915  1.0000
  H   H6603     1.0  0.63273  0.86740  0.94543  1.0000
  H   H6604     1.0  0.63710  0.85853  0.93071  1.0000
  H   H6605     1.0  0.53769  0.75823  0.82059  1.0000
  H   H6606     1.0  0.71103  0.94825  0.71220  1.0000
  H   H6607     1.0  0.72209  0.78105  0.51741  1.0000
  H   H6608     1.0  0.64463  0.84404  0.95577  1.0000
  H   H6609     1.0  0.64962  0.85717  0.96277  1.0000
  H   H6610     1.0  0.65715  0.87959  0.95710  1.0000
  H   H6611     1.0  0.63865  0.88293  0.95375  1.0000
  H   H6612     1.0  0.64793  0.89756  0.94815  1.0000
  H   H6613     1.0  0.67707  0.94642  0.67468  1.0000
  C   C3892     1.0  0.69808  0.81325  0.64446  1.0000
  H   H6614     1.0  0.70479  0.77884  0.50626  1.0000
  C   C3893     1.0  0.73548  0.90112  0.65261  1.0000
  C   C3894     1.0  0.51895  0.82895  0.70931  1.0000
  S   S1138     1.0  0.66518  0.97597  0.76105  1.0000
  C   C3895     1.0  0.61578  0.77417  0.48269  1.0000
  H   H6615     1.0  0.63228  0.88318  0.91309  1.0000
  C   C3896     1.0  0.58867  0.75767  0.88632  1.0000
  S   S1139     1.0  0.50295  0.84277  0.66584  1.0000
  C   C3897     1.0  0.71931  0.79310  0.51723  1.0000
  H   H6616     1.0  0.70417  0.90525  0.70457  1.0000
  H   H6617     1.0  0.54727  0.78894  0.88435  1.0000
  C   C3898     1.0  0.69317  0.79378  0.62581  1.0000
  H   H6618     1.0  0.49990  0.82919  0.70115  1.0000
  H   H6619     1.0  0.59832  0.75475  0.79652  1.0000
  C   C3899     1.0  0.73867  0.94368  0.74070  1.0000
  H   H6620     1.0  0.70679  0.80389  0.64871  1.0000
  H   H6621     1.0  0.53517  0.74799  0.89891  1.0000
  C   C3900     1.0  0.66565  0.95330  0.69486  1.0000
  Fe  Fe568     1.0  0.65543  0.74902  0.97496  1.0000
  H   H6622     1.0  0.71488  0.79466  0.62624  1.0000
  H   H6623     1.0  0.59802  0.76546  0.70967  1.0000
  C   C3901     1.0  0.57355  0.77175  0.78507  1.0000
  H   H6624     1.0  0.68428  0.79793  0.65930  1.0000
  H   H6625     1.0  0.72467  0.83837  0.48708  1.0000
  H   H6626     1.0  0.63428  0.74361  0.94265  1.0000
  H   H6627     1.0  0.58418  0.75669  0.89834  1.0000
  H   H6628     1.0  0.69495  0.79412  0.52484  1.0000
  N   N279      1.0  0.55586  0.85233  0.75448  1.0000
  C   C3902     1.0  0.57125  0.85312  0.75498  1.0000
  C   C3903     1.0  0.55138  0.86343  0.74114  1.0000
  C   C3904     1.0  0.55561  0.83715  0.75327  1.0000
  C   C3905     1.0  0.54514  0.85556  0.76856  1.0000
  C   C3906     1.0  0.57821  0.84147  0.76721  1.0000
  C   C3907     1.0  0.55040  0.87976  0.74076  1.0000
  C   C3908     1.0  0.56714  0.83114  0.74040  1.0000
  C   C3909     1.0  0.52837  0.85821  0.76884  1.0000
  H   H6629     1.0  0.57921  0.85240  0.74417  1.0000
  H   H6630     1.0  0.57112  0.86404  0.75678  1.0000
  H   H6631     1.0  0.54055  0.86247  0.73972  1.0000
  H   H6632     1.0  0.55953  0.86113  0.73090  1.0000
  H   H6633     1.0  0.55720  0.82882  0.76359  1.0000
  H   H6634     1.0  0.54449  0.83691  0.75195  1.0000
  H   H6635     1.0  0.54731  0.84622  0.77809  1.0000
  H   H6636     1.0  0.54683  0.86534  0.77133  1.0000
  H   H6637     1.0  0.58961  0.84293  0.76621  1.0000
  H   H6638     1.0  0.57172  0.84278  0.77841  1.0000
  H   H6639     1.0  0.57948  0.83001  0.76621  1.0000
  H   H6640     1.0  0.54580  0.88685  0.73111  1.0000
  H   H6641     1.0  0.54293  0.88340  0.75073  1.0000
  H   H6642     1.0  0.56164  0.88193  0.73911  1.0000
  H   H6643     1.0  0.56650  0.81958  0.74136  1.0000
  H   H6644     1.0  0.57877  0.83078  0.74055  1.0000
  H   H6645     1.0  0.56472  0.83761  0.72957  1.0000
  H   H6646     1.0  0.52444  0.86868  0.76121  1.0000
  H   H6647     1.0  0.52180  0.85917  0.78014  1.0000
  H   H6648     1.0  0.52560  0.84891  0.76632  1.0000
  N   N280      1.0  0.59948  0.85647  0.80758  1.0000
  C   C3910     1.0  0.59067  0.84937  0.82219  1.0000
  C   C3911     1.0  0.61329  0.85870  0.81056  1.0000
  C   C3912     1.0  0.60418  0.84560  0.79764  1.0000
  C   C3913     1.0  0.58973  0.87075  0.80112  1.0000
  C   C3914     1.0  0.57543  0.84681  0.82203  1.0000
  C   C3915     1.0  0.61054  0.86852  0.82165  1.0000
  C   C3916     1.0  0.61263  0.85075  0.78171  1.0000
  C   C3917     1.0  0.59775  0.88258  0.78983  1.0000
  H   H6649     1.0  0.59748  0.83858  0.82703  1.0000
  H   H6650     1.0  0.58792  0.85628  0.83046  1.0000
  H   H6651     1.0  0.62059  0.86356  0.80033  1.0000
  H   H6652     1.0  0.62036  0.84782  0.81482  1.0000
  H   H6653     1.0  0.61137  0.83513  0.80258  1.0000
  H   H6654     1.0  0.59441  0.84237  0.79638  1.0000
  H   H6655     1.0  0.58196  0.86841  0.79579  1.0000
  H   H6656     1.0  0.58252  0.87630  0.81017  1.0000
  H   H6657     1.0  0.57637  0.83907  0.81511  1.0000
  H   H6658     1.0  0.57017  0.84170  0.83345  1.0000
  H   H6659     1.0  0.56757  0.85734  0.81859  1.0000
  H   H6660     1.0  0.62084  0.87244  0.82024  1.0000
  H   H6661     1.0  0.60140  0.87842  0.82009  1.0000
  H   H6662     1.0  0.60815  0.86208  0.83322  1.0000
  H   H6663     1.0  0.60531  0.85967  0.77522  1.0000
  H   H6664     1.0  0.61625  0.84134  0.77609  1.0000
  H   H6665     1.0  0.62289  0.85420  0.78120  1.0000
  H   H6666     1.0  0.59101  0.88856  0.78140  1.0000
  H   H6667     1.0  0.60907  0.87835  0.78367  1.0000
  H   H6668     1.0  0.59817  0.89115  0.79526  1.0000
  H   H6669     1.0  0.64954  0.75156  0.93187  1.0000
  H   H6670     1.0  0.51128  0.80219  0.70846  1.0000
  H   H6671     1.0  0.73501  0.82289  0.54061  1.0000
  S   S1140     1.0  0.52566  0.78316  0.77489  1.0000
  C   C3918     1.0  0.71642  0.86363  0.60415  1.0000
  H   H6672     1.0  0.70771  0.82255  0.50838  1.0000
  N   N281      1.0  0.59180  0.82495  0.62562  1.0000
  C   C3919     1.0  0.58186  0.83909  0.61924  1.0000
  C   C3920     1.0  0.60471  0.82037  0.61343  1.0000
  C   C3921     1.0  0.59794  0.82708  0.63746  1.0000
  C   C3922     1.0  0.58266  0.81328  0.63237  1.0000
  C   C3923     1.0  0.56898  0.84637  0.63052  1.0000
  C   C3924     1.0  0.60070  0.81615  0.60099  1.0000
  C   C3925     1.0  0.60622  0.83986  0.63293  1.0000
  C   C3926     1.0  0.59137  0.79753  0.63804  1.0000
  H   H6673     1.0  0.58852  0.84747  0.61259  1.0000
  H   H6674     1.0  0.57647  0.83714  0.61136  1.0000
  H   H6675     1.0  0.61311  0.81088  0.61794  1.0000
  H   H6676     1.0  0.61087  0.82937  0.60787  1.0000
  H   H6677     1.0  0.58898  0.82866  0.64749  1.0000
  H   H6678     1.0  0.60605  0.81695  0.64136  1.0000
  H   H6679     1.0  0.57383  0.81627  0.64199  1.0000
  H   H6680     1.0  0.57652  0.81258  0.62444  1.0000
  H   H6681     1.0  0.56087  0.83924  0.63645  1.0000
  H   H6682     1.0  0.57302  0.84952  0.63865  1.0000
  H   H6683     1.0  0.56267  0.85673  0.62450  1.0000
  H   H6684     1.0  0.61123  0.81279  0.59298  1.0000
  H   H6685     1.0  0.59525  0.80659  0.60509  1.0000
  H   H6686     1.0  0.59366  0.82565  0.59475  1.0000
  H   H6687     1.0  0.61625  0.83821  0.62391  1.0000
  H   H6688     1.0  0.61035  0.84015  0.64247  1.0000
  H   H6689     1.0  0.59886  0.85082  0.62983  1.0000
  H   H6690     1.0  0.59970  0.79283  0.62903  1.0000
  H   H6691     1.0  0.58335  0.79014  0.64305  1.0000
  H   H6692     1.0  0.59696  0.79710  0.64681  1.0000
  N   N282      1.0  0.65373  0.84728  0.68596  1.0000
  C   C3927     1.0  0.65938  0.83092  0.69165  1.0000
  C   C3928     1.0  0.66156  0.85095  0.66993  1.0000
  C   C3929     1.0  0.63721  0.84976  0.68699  1.0000
  C   C3930     1.0  0.65676  0.85575  0.69537  1.0000
  C   C3931     1.0  0.65252  0.82439  0.70789  1.0000
  C   C3932     1.0  0.67872  0.84859  0.66691  1.0000
  C   C3933     1.0  0.62875  0.86577  0.68209  1.0000
  C   C3934     1.0  0.65707  0.87229  0.68868  1.0000
  H   H6693     1.0  0.65766  0.82431  0.68470  1.0000
  H   H6694     1.0  0.67161  0.82834  0.69093  1.0000
  H   H6695     1.0  0.65733  0.86250  0.66445  1.0000
  H   H6696     1.0  0.65908  0.84420  0.66359  1.0000
  H   H6697     1.0  0.63514  0.84297  0.68047  1.0000
  H   H6698     1.0  0.63133  0.84607  0.69853  1.0000
  H   H6699     1.0  0.64837  0.85522  0.70606  1.0000
  H   H6700     1.0  0.66776  0.85037  0.69841  1.0000
  H   H6701     1.0  0.65892  0.81290  0.71115  1.0000
  H   H6702     1.0  0.65319  0.83059  0.71567  1.0000
  H   H6703     1.0  0.64082  0.82357  0.70945  1.0000
  H   H6704     1.0  0.68421  0.83668  0.66837  1.0000
  H   H6705     1.0  0.68300  0.85386  0.65524  1.0000
  H   H6706     1.0  0.68235  0.85359  0.67395  1.0000
  H   H6707     1.0  0.63321  0.87085  0.67046  1.0000
  H   H6708     1.0  0.62834  0.87275  0.68962  1.0000
  H   H6709     1.0  0.61695  0.86566  0.68286  1.0000
  H   H6710     1.0  0.65058  0.87885  0.69711  1.0000
  H   H6711     1.0  0.65228  0.87738  0.67882  1.0000
  H   H6712     1.0  0.66867  0.87392  0.68607  1.0000
  N   N283      1.0  0.55936  0.77947  0.71428  1.0000
  C   C3935     1.0  0.55698  0.77562  0.70111  1.0000
  C   C3936     1.0  0.55038  0.79493  0.71507  1.0000
  C   C3937     1.0  0.55432  0.76830  0.72800  1.0000
  C   C3938     1.0  0.54064  0.77658  0.70082  1.0000
  C   C3939     1.0  0.55023  0.80069  0.72846  1.0000
  C   C3940     1.0  0.69256  0.90566  0.86516  1.0000
  H   H6713     1.0  0.56304  0.76411  0.70029  1.0000
  H   H6714     1.0  0.57880  0.78793  0.70109  1.0000
  H   H6715     1.0  0.55427  0.80300  0.70488  1.0000
  H   H6716     1.0  0.53847  0.79588  0.71544  1.0000
  H   H6717     1.0  0.54193  0.77099  0.73162  1.0000
  C   C3941     1.0  0.73023  0.80582  0.58222  1.0000
  H   H6718     1.0  0.54057  0.77093  0.69229  1.0000
  H   H6719     1.0  0.53426  0.77121  0.71148  1.0000
  H   H6720     1.0  0.54408  0.79461  0.73886  1.0000
  N   N284      1.0  0.56508  0.76217  0.79805  1.0000
  H   H6721     1.0  0.56153  0.80038  0.72956  1.0000
  H   H6722     1.0  0.65400  0.89196  0.92524  1.0000
  H   H6723     1.0  0.63830  0.79419  0.48239  1.0000
  C   C3942     1.0  0.71066  0.94190  0.70439  1.0000
  H   H6724     1.0  0.72096  0.94226  0.69561  1.0000
  H   H6725     1.0  0.54898  0.77333  0.87000  1.0000
  H   H6726     1.0  0.70324  0.79783  0.68916  1.0000
  H   H6727     1.0  0.68144  0.96259  0.67623  1.0000
  S   S1141     1.0  0.66002  0.80952  0.48606  1.0000
  C   C3943     1.0  0.73182  0.97203  0.69369  1.0000
  C   C3944     1.0  0.74367  0.88471  0.72738  1.0000
  S   S1142     1.0  0.51399  0.79123  0.73843  1.0000
  H   H6728     1.0  0.50700  0.84514  0.69423  1.0000
  C   C3945     1.0  0.61164  0.73534  0.84741  1.0000
  H   H6729     1.0  0.69725  0.78699  0.49017  1.0000
  H   H6730     1.0  0.70901  0.80794  0.48358  1.0000
  C   C3946     1.0  0.56010  0.77122  0.87270  1.0000
  C   C3947     1.0  0.55926  0.74561  0.87441  1.0000
  H   H6731     1.0  0.72001  0.93315  0.74736  1.0000
  C   C3948     1.0  0.73596  0.87446  0.69478  1.0000
  H   H6732     1.0  0.69520  0.93707  0.86527  1.0000
  H   H6733     1.0  0.70912  0.80539  0.60975  1.0000
  H   H6734     1.0  0.65576  0.95841  0.68982  1.0000
  H   H6735     1.0  0.56054  0.74147  0.90287  1.0000
  C   C3949     1.0  0.55362  0.77230  0.80724  1.0000
  H   H6736     1.0  0.49642  0.82518  0.73382  1.0000
  H   H6737     1.0  0.56420  0.79248  0.87221  1.0000
  H   H6738     1.0  0.68712  0.94828  0.70853  1.0000
  H   H6739     1.0  0.55230  0.75740  0.82953  1.0000
  C   C3950     1.0  0.68897  0.82763  0.62145  1.0000
  H   H6740     1.0  0.69742  0.78477  0.61963  1.0000
  N   N285      1.0  0.65607  0.91961  0.79303  1.0000
  C   C3951     1.0  0.64725  0.92398  0.80738  1.0000
  C   C3952     1.0  0.65542  0.93352  0.78102  1.0000
  C   C3953     1.0  0.67206  0.91333  0.79453  1.0000
  C   C3954     1.0  0.64956  0.90822  0.79041  1.0000
  C   C3955     1.0  0.64757  0.91151  0.82147  1.0000
  C   C3956     1.0  0.63961  0.94270  0.77964  1.0000
  C   C3957     1.0  0.68339  0.90845  0.78100  1.0000
  C   C3958     1.0  0.65155  0.90740  0.77420  1.0000
  H   H6741     1.0  0.65114  0.93313  0.80911  1.0000
  H   H6742     1.0  0.63523  0.92840  0.80711  1.0000
  H   H6743     1.0  0.66130  0.93116  0.77002  1.0000
  H   H6744     1.0  0.66136  0.94107  0.78282  1.0000
  H   H6745     1.0  0.67634  0.92149  0.79751  1.0000
  H   H6746     1.0  0.67292  0.90330  0.80363  1.0000
  H   H6747     1.0  0.65424  0.89694  0.79641  1.0000
  H   H6748     1.0  0.63730  0.91002  0.79511  1.0000
  H   H6749     1.0  0.64520  0.90135  0.82026  1.0000
  H   H6750     1.0  0.65840  0.90872  0.82480  1.0000
  H   H6751     1.0  0.63888  0.91536  0.83079  1.0000
  H   H6752     1.0  0.64029  0.95047  0.76865  1.0000
  H   H6753     1.0  0.63177  0.93573  0.78067  1.0000
  H   H6754     1.0  0.63498  0.94955  0.78808  1.0000
  H   H6755     1.0  0.68339  0.91718  0.77077  1.0000
  H   H6756     1.0  0.68169  0.89821  0.77928  1.0000
  H   H6757     1.0  0.69482  0.90568  0.78310  1.0000
  H   H6758     1.0  0.64469  0.91719  0.76809  1.0000
  H   H6759     1.0  0.64764  0.89760  0.77416  1.0000
  H   H6760     1.0  0.66324  0.90610  0.76789  1.0000
  H   H6761     1.0  0.73364  0.96240  0.70300  1.0000
  C   C3959     1.0  0.55682  0.75374  0.79326  1.0000
  C   C3960     1.0  0.59183  0.74599  0.79963  1.0000
  H   H6762     1.0  0.49986  0.79767  0.85885  1.0000
  C   C3961     1.0  0.68462  0.97137  0.80985  1.0000
  H   H6763     1.0  0.65918  0.77381  0.48344  1.0000
  H   H6764     1.0  0.66594  0.96096  0.70142  1.0000
  H   H6765     1.0  0.65670  0.87798  0.90761  1.0000
  N   N286      1.0  0.70150  0.81661  0.62783  1.0000
  H   H6766     1.0  0.66650  0.92232  0.86516  1.0000
  H   H6767     1.0  0.63025  0.74109  0.86991  1.0000
  H   H6768     1.0  0.70273  0.89688  0.86677  1.0000
  H   H6769     1.0  0.68298  0.90014  0.86941  1.0000
  N   N287      1.0  0.65480  0.86825  0.93107  1.0000
  N   N288      1.0  0.66117  0.80189  0.78912  1.0000
  C   C3962     1.0  0.65428  0.79626  0.78011  1.0000
  C   C3963     1.0  0.67015  0.78887  0.79810  1.0000
  C   C3964     1.0  0.67140  0.81186  0.77932  1.0000
  C   C3965     1.0  0.64881  0.81068  0.79894  1.0000
  C   C3966     1.0  0.64712  0.80806  0.76810  1.0000
  C   C3967     1.0  0.66121  0.77796  0.80954  1.0000
  C   C3968     1.0  0.68444  0.80488  0.76799  1.0000
  C   C3969     1.0  0.65342  0.81486  0.81106  1.0000
  H   H6770     1.0  0.66258  0.78767  0.77463  1.0000
  H   H6771     1.0  0.64529  0.79058  0.78736  1.0000
  H   H6772     1.0  0.67645  0.79262  0.80395  1.0000
  H   H6773     1.0  0.67882  0.78212  0.79080  1.0000
  H   H6774     1.0  0.66501  0.82214  0.77322  1.0000
  H   H6775     1.0  0.67665  0.81582  0.78596  1.0000
  H   H6776     1.0  0.64347  0.82123  0.79226  1.0000
  H   H6777     1.0  0.63960  0.80473  0.80455  1.0000
  H   H6778     1.0  0.63871  0.81713  0.77262  1.0000
  H   H6779     1.0  0.65562  0.81272  0.75891  1.0000
  H   H6780     1.0  0.64123  0.80282  0.76323  1.0000
  H   H6781     1.0  0.66887  0.76930  0.81590  1.0000
  H   H6782     1.0  0.65221  0.78334  0.81766  1.0000
  H   H6783     1.0  0.65645  0.77220  0.80412  1.0000
  H   H6784     1.0  0.69017  0.81363  0.76045  1.0000
  H   H6785     1.0  0.68069  0.79996  0.76097  1.0000
  H   H6786     1.0  0.69297  0.79647  0.77344  1.0000
  H   H6787     1.0  0.65664  0.80508  0.81974  1.0000
  H   H6788     1.0  0.64367  0.82235  0.81655  1.0000
  H   H6789     1.0  0.71595  0.86933  0.61248  1.0000
  N   N289      1.0  0.63566  0.80549  0.89939  1.0000
  C   C3970     1.0  0.64338  0.79090  0.90762  1.0000
  H   H6790     1.0  0.61970  0.83641  0.89841  1.0000
  H   H6791     1.0  0.62102  0.78238  0.90104  1.0000
  C   C3971     1.0  0.72642  0.86276  0.70245  1.0000
  H   H6792     1.0  0.61309  0.79212  0.88539  1.0000
  C   C3972     1.0  0.61683  0.79359  0.89469  1.0000
  H   H6793     1.0  0.56174  0.78280  0.69062  1.0000
  C   C3973     1.0  0.54490  0.76464  0.82213  1.0000
  C   C3974     1.0  0.57556  0.75165  0.80753  1.0000
  H   H6794     1.0  0.63799  0.79657  0.88044  1.0000
  H   H6795     1.0  0.66334  0.79673  0.90989  1.0000
  H   H6796     1.0  0.72019  0.81411  0.58063  1.0000
  C   C3975     1.0  0.66708  0.92479  0.85319  1.0000
  H   H6797     1.0  0.71597  0.93694  0.65258  1.0000
  C   C3976     1.0  0.62910  0.80261  0.88826  1.0000
  H   H6798     1.0  0.62884  0.81588  0.91809  1.0000
  C   C3977     1.0  0.65415  0.93825  0.85032  1.0000
  H   H6799     1.0  0.65585  0.94830  0.85247  1.0000
  H   H6800     1.0  0.67573  0.83893  0.63938  1.0000
  C   C3978     1.0  0.62372  0.81303  0.91053  1.0000
  C   C3979     1.0  0.61346  0.82754  0.90417  1.0000
  H   H6801     1.0  0.63503  0.78471  0.91548  1.0000
  C   C3980     1.0  0.66163  0.86786  0.91504  1.0000
  H   H6802     1.0  0.69400  0.90389  0.84333  1.0000
  Fe  Fe569     1.0  0.51559  0.80370  0.78362  1.0000
  H   H6803     1.0  0.71639  0.91709  0.69394  1.0000
  S   S1143     1.0  0.51795  0.75020  0.80693  1.0000
  H   H6804     1.0  0.62441  0.81313  0.88115  1.0000
  H   H6805     1.0  0.60733  0.82603  0.89671  1.0000
  H   H6806     1.0  0.60490  0.83163  0.91344  1.0000
  H   H6807     1.0  0.65908  0.85857  0.91221  1.0000
  H   H6808     1.0  0.61712  0.88132  0.92854  1.0000
  H   H6809     1.0  0.73550  0.88606  0.73792  1.0000
  S   S1144     1.0  0.72143  0.85859  0.64272  1.0000
  H   H6810     1.0  0.72638  0.96882  0.68668  1.0000
  C   C3981     1.0  0.70136  0.80744  0.69366  1.0000
  H   H6811     1.0  0.67947  0.82275  0.62258  1.0000
  H   H6812     1.0  0.72808  0.88521  0.69189  1.0000
  C   C3982     1.0  0.71497  0.82360  0.62207  1.0000
  S   S1145     1.0  0.69783  0.97001  0.73806  1.0000
  H   H6813     1.0  0.61642  0.80546  0.91788  1.0000
  H   H6814     1.0  0.60686  0.79941  0.90166  1.0000
  H   H6815     1.0  0.68510  0.92341  0.68813  1.0000
  S   S1146     1.0  0.74173  0.84615  0.66848  1.0000
  H   H6816     1.0  0.65219  0.73616  0.94731  1.0000
  S   S1147     1.0  0.72461  0.88805  0.66196  1.0000
  C   C3983     1.0  0.73019  0.85629  0.59701  1.0000
  H   H6817     1.0  0.52458  0.83657  0.71129  1.0000
  H   H6818     1.0  0.56488  0.78026  0.88968  1.0000
  H   H6819     1.0  0.69091  0.78826  0.63765  1.0000
  H   H6820     1.0  0.58366  0.75527  0.71831  1.0000
  C   C3984     1.0  0.67876  0.86627  0.91020  1.0000
  H   H6821     1.0  0.68220  0.87614  0.91074  1.0000
  N   N290      1.0  0.68245  0.92656  0.84428  1.0000
  C   C3985     1.0  0.69406  0.91282  0.84856  1.0000
  H   H6822     1.0  0.67854  0.91882  0.82697  1.0000
  H   H6823     1.0  0.65293  0.73660  0.91577  1.0000
  H   H6824     1.0  0.54412  0.81245  0.72708  1.0000
  Fe  Fe570     1.0  0.70737  0.96039  0.75825  1.0000
  C   C3986     1.0  0.72986  0.81395  0.62585  1.0000
  H   H6825     1.0  0.67997  0.95034  0.83954  1.0000
  C   C3987     1.0  0.73074  0.84941  0.58581  1.0000
  H   H6826     1.0  0.61193  0.74580  0.91490  1.0000
  H   H6827     1.0  0.69881  0.82278  0.64836  1.0000
  C   C3988     1.0  0.68639  0.94015  0.84560  1.0000
  C   C3989     1.0  0.64643  0.74086  0.93796  1.0000
  H   H6828     1.0  0.58678  0.75167  0.86752  1.0000
  C   C3990     1.0  0.68474  0.94231  0.86124  1.0000
  H   H6829     1.0  0.68231  0.95435  0.86088  1.0000
  C   C3991     1.0  0.71885  0.81812  0.50183  1.0000
  C   C3992     1.0  0.70537  0.80273  0.62200  1.0000
  C   C3993     1.0  0.68239  0.92817  0.82830  1.0000
  H   H6830     1.0  0.67438  0.93837  0.82437  1.0000
  H   H6831     1.0  0.58762  0.76245  0.69850  1.0000
  H   H6832     1.0  0.55715  0.75713  0.72547  1.0000
  H   H6833     1.0  0.53734  0.77326  0.82799  1.0000
  H   H6834     1.0  0.53476  0.76765  0.89437  1.0000
  H   H6835     1.0  0.70118  0.80782  0.52980  1.0000
  H   H6836     1.0  0.73018  0.87191  0.72451  1.0000
  H   H6837     1.0  0.62937  0.89259  0.92778  1.0000
  H   H6838     1.0  0.70619  0.91885  0.81933  1.0000
  C   C3994     1.0  0.70417  0.79636  0.52815  1.0000
  C   C3995     1.0  0.70609  0.91383  0.69427  1.0000
  H   H6839     1.0  0.56800  0.77313  0.86184  1.0000
  H   H6840     1.0  0.69143  0.91356  0.87195  1.0000
  N   N291      1.0  0.69399  0.94201  0.68734  1.0000
  C   C3996     1.0  0.68271  0.80947  0.65265  1.0000
  H   H6841     1.0  0.72909  0.81024  0.63791  1.0000
  H   H6842     1.0  0.62776  0.75088  0.91683  1.0000
  C   C3997     1.0  0.56085  0.76627  0.74161  1.0000
  C   C3998     1.0  0.72023  0.82906  0.48663  1.0000
  C   C3999     1.0  0.69744  0.92901  0.81712  1.0000
  C   C4000     1.0  0.50183  0.79734  0.71454  1.0000
  H   H6843     1.0  0.70550  0.91507  0.84435  1.0000
  H   H6844     1.0  0.69582  0.93015  0.80588  1.0000
  H   H6845     1.0  0.70819  0.95461  0.66968  1.0000
  H   H6846     1.0  0.70144  0.93889  0.81668  1.0000
  C   C4001     1.0  0.69635  0.94886  0.69851  1.0000
  H   H6847     1.0  0.72699  0.89058  0.71451  1.0000
  H   H6848     1.0  0.55175  0.76534  0.75171  1.0000
  C   C4002     1.0  0.68232  0.84159  0.62794  1.0000
  H   H6849     1.0  0.71698  0.78043  0.48794  1.0000
  H   H6850     1.0  0.56583  0.77529  0.74160  1.0000
  H   H6851     1.0  0.74141  0.84387  0.58015  1.0000
  C   C4003     1.0  0.58670  0.76471  0.70940  1.0000
  H   H6852     1.0  0.57838  0.78308  0.71999  1.0000
  H   H6853     1.0  0.71762  0.93663  0.67654  1.0000
  C   C4004     1.0  0.74043  0.80854  0.58853  1.0000
  H   H6854     1.0  0.54768  0.76144  0.78818  1.0000
  Fe  Fe571     1.0  0.67990  0.95762  0.75041  1.0000
  S   S1148     1.0  0.69088  0.94593  0.76952  1.0000
  H   H6855     1.0  0.58265  0.73958  0.94174  1.0000
  C   C4005     1.0  0.73007  0.93486  0.73916  1.0000
  H   H6856     1.0  0.55120  0.74630  0.80295  1.0000
  H   H6857     1.0  0.51764  0.81981  0.71911  1.0000
  H   H6858     1.0  0.50139  0.87637  0.71214  1.0000
  H   H6859     1.0  0.70248  0.92665  0.66427  1.0000
  H   H6860     1.0  0.72763  0.97613  0.72558  1.0000
  C   C4006     1.0  0.69187  0.92639  0.69412  1.0000
  C   C4007     1.0  0.70518  0.93773  0.66085  1.0000
  H   H6861     1.0  0.68530  0.92556  0.70569  1.0000
  H   H6862     1.0  0.54495  0.77952  0.80112  1.0000
  Fe  Fe572     1.0  0.73439  0.86758  0.65296  1.0000
  H   H6863     1.0  0.61338  0.79672  0.48274  1.0000
  S   S1149     1.0  0.72116  0.78973  0.56853  1.0000
  C   C4008     1.0  0.73455  0.92819  0.72704  1.0000
  C   C4009     1.0  0.68020  0.98106  0.83168  1.0000
  H   H6864     1.0  0.60065  0.75199  0.88503  1.0000
  H   H6865     1.0  0.57811  0.74023  0.85599  1.0000
  H   H6866     1.0  0.55856  0.73902  0.77929  1.0000
  C   C4010     1.0  0.67988  0.95129  0.68245  1.0000
  H   H6867     1.0  0.55854  0.77813  0.76957  1.0000
  H   H6868     1.0  0.67508  0.81066  0.64546  1.0000
  H   H6869     1.0  0.59278  0.74196  0.78971  1.0000
  H   H6870     1.0  0.73846  0.82074  0.62128  1.0000
  H   H6871     1.0  0.57206  0.75025  0.77200  1.0000
  C   C4011     1.0  0.55677  0.75312  0.89717  1.0000
  H   H6872     1.0  0.50886  0.86454  0.69941  1.0000
  H   H6873     1.0  0.57096  0.74178  0.81407  1.0000
  H   H6874     1.0  0.61109  0.74004  0.97728  1.0000
  H   H6875     1.0  0.58250  0.76506  0.77798  1.0000
  H   H6876     1.0  0.68491  0.85609  0.91658  1.0000
  H   H6877     1.0  0.55895  0.77996  0.80971  1.0000
  H   H6878     1.0  0.67675  0.81677  0.66052  1.0000
  H   H6879     1.0  0.70801  0.90807  0.68522  1.0000
  H   H6880     1.0  0.66371  0.94264  0.70234  1.0000
  H   H6881     1.0  0.53535  0.75681  0.91267  1.0000
  H   H6882     1.0  0.58387  0.73803  0.88412  1.0000
  H   H6883     1.0  0.72778  0.79466  0.52222  1.0000
  C   C4012     1.0  0.66530  0.97981  0.83523  1.0000
  H   H6884     1.0  0.58845  0.76935  0.88045  1.0000
  H   H6885     1.0  0.54696  0.74873  0.87538  1.0000
  S   S1150     1.0  0.66342  0.96260  0.80230  1.0000
  H   H6886     1.0  0.71303  0.83375  0.62623  1.0000
  C   C4013     1.0  0.73602  0.88077  0.71734  1.0000
  Fe  Fe573     1.0  0.67748  0.96544  0.77923  1.0000
  C   C4014     1.0  0.58893  0.73967  0.94943  1.0000
  H   H6887     1.0  0.72673  0.81927  0.50780  1.0000
  H   H6888     1.0  0.72798  0.92121  0.72599  1.0000
  H   H6889     1.0  0.57939  0.77786  0.78905  1.0000
  H   H6890     1.0  0.70133  0.97791  0.81614  1.0000
  C   C4015     1.0  0.73326  0.79259  0.57762  1.0000
  H   H6891     1.0  0.69082  0.84744  0.62773  1.0000
  S   S1151     1.0  0.71831  0.81865  0.66740  1.0000
  H   H6892     1.0  0.56005  0.75964  0.90300  1.0000
  C   C4016     1.0  0.56611  0.74572  0.85789  1.0000
  H   H6893     1.0  0.69227  0.96774  0.80033  1.0000
  Fe  Fe574     1.0  0.66509  0.96779  0.89591  1.0000
  H   H6894     1.0  0.74273  0.97424  0.68690  1.0000
  H   H6895     1.0  0.50432  0.77563  0.84938  1.0000
  H   H6896     1.0  0.55620  0.79192  0.78004  1.0000
  H   H6897     1.0  0.71728  0.86635  0.71156  1.0000
  H   H6898     1.0  0.51801  0.86249  0.71386  1.0000
  H   H6899     1.0  0.57194  0.78920  0.76531  1.0000
  C   C4017     1.0  0.68980  0.97696  0.81892  1.0000
  H   H6900     1.0  0.73420  0.80437  0.62050  1.0000
  H   H6901     1.0  0.64476  0.76611  0.48223  1.0000
  H   H6902     1.0  0.56049  0.73921  0.85419  1.0000
  H   H6903     1.0  0.71170  0.98200  0.70738  1.0000
  H   H6904     1.0  0.71712  0.82728  0.60982  1.0000
  H   H6905     1.0  0.74216  0.87185  0.68400  1.0000
  S   S1152     1.0  0.50077  0.79281  0.80366  1.0000
  C   C4018     1.0  0.66976  0.97007  0.81338  1.0000
  H   H6906     1.0  0.73511  0.80011  0.48037  1.0000
  C   C4019     1.0  0.70686  0.78595  0.49502  1.0000
  H   H6907     1.0  0.50294  0.82523  0.83901  1.0000
  H   H6908     1.0  0.67430  0.83416  0.47906  1.0000
  H   H6909     1.0  0.56455  0.75700  0.85077  1.0000
  H   H6910     1.0  0.56174  0.73387  0.88055  1.0000
  H   H6911     1.0  0.69623  0.96085  0.69389  1.0000
  H   H6912     1.0  0.73402  0.90809  0.67230  1.0000
  H   H6913     1.0  0.72812  0.82416  0.47758  1.0000
  H   H6914     1.0  0.70916  0.83354  0.48363  1.0000
  H   H6915     1.0  0.67454  0.84950  0.62119  1.0000
  H   H6916     1.0  0.72092  0.86142  0.69433  1.0000
  S   S1153     1.0  0.65473  0.97543  0.87621  1.0000
  C   C4020     1.0  0.74270  0.83019  0.53912  1.0000
  Fe  Fe575     1.0  0.73058  0.83693  0.65670  1.0000
  H   H6917     1.0  0.60406  0.77286  0.48545  1.0000
  C   C4021     1.0  0.70787  0.80154  0.49523  1.0000
  C   C4022     1.0  0.73584  0.98245  0.71768  1.0000
  C   C4023     1.0  0.50036  0.79097  0.72964  1.0000
  H   H6918     1.0  0.73892  0.89662  0.63116  1.0000
  H   H6919     1.0  0.69684  0.80699  0.50114  1.0000
  S   S1154     1.0  0.49847  0.81201  0.76975  1.0000
  H   H6920     1.0  0.49993  0.80230  0.83977  1.0000
  C   C4024     1.0  0.50406  0.83713  0.70462  1.0000
  H   H6921     1.0  0.73611  0.83921  0.54491  1.0000
  H   H6922     1.0  0.59736  0.73657  0.80735  1.0000
  H   H6923     1.0  0.50419  0.84710  0.73043  1.0000
  H   H6924     1.0  0.64854  0.97336  0.82884  1.0000
  H   H6925     1.0  0.61961  0.77167  0.49314  1.0000
  S   S1155     1.0  0.68475  0.97858  0.88498  1.0000
  C   C4025     1.0  0.66008  0.97429  0.82608  1.0000
  C   C4026     1.0  0.73857  0.90949  0.66059  1.0000
  H   H6926     1.0  0.57419  0.73455  0.78754  1.0000
  C   C4027     1.0  0.74153  0.90289  0.63742  1.0000
  C   C4028     1.0  0.49742  0.85403  0.72222  1.0000
  C   C4029     1.0  0.62388  0.74162  0.91548  1.0000
  C   C4030     1.0  0.50690  0.86480  0.71115  1.0000
  Fe  Fe576     1.0  0.74321  0.85434  0.62634  1.0000
  C   C4031     1.0  0.73507  0.79609  0.49231  1.0000
  H   H6927     1.0  0.73700  0.78384  0.49412  1.0000
  C   C4032     1.0  0.62379  0.73589  0.86614  1.0000
  H   H6928     1.0  0.65773  0.98329  0.84485  1.0000
  C   C4033     1.0  0.78003  0.03607  0.43757  1.0000
  S   S1156     1.0  0.97583  0.14699  0.43193  1.0000
  H   H6929     1.0  0.89905  0.01938  0.44355  1.0000
  S   S1157     1.0  0.75604  0.20847  0.06518  1.0000
  H   H6930     1.0  0.84831  0.13015  0.40137  1.0000
  H   H6931     1.0  0.74952  0.99575  0.31935  1.0000
  H   H6932     1.0  0.78261  0.04661  0.43025  1.0000
  C   C4034     1.0  0.83160  0.11329  0.43638  1.0000
  H   H6933     1.0  0.81607  0.00148  0.39497  1.0000
  H   H6934     1.0  0.84592  0.22249  0.00682  1.0000
  H   H6935     1.0  0.76730  0.19556  0.02070  1.0000
  H   H6936     1.0  0.99318  0.22419  0.34447  1.0000
  H   H6937     1.0  0.76867  0.23175  0.06617  1.0000
  C   C4035     1.0  0.83498  0.03851  0.38375  1.0000
  H   H6938     1.0  0.93570  0.16703  0.40315  1.0000
  H   H6939     1.0  0.94800  0.15081  0.39722  1.0000
  C   C4036     1.0  0.77142  0.99787  0.47368  1.0000
  H   H6940     1.0  0.82948  0.02755  0.44175  1.0000
  C   C4037     1.0  0.92083  0.10552  0.47616  1.0000
  H   H6941     1.0  0.91239  0.21114  0.44993  1.0000
  H   H6942     1.0  0.96563  0.12027  0.44686  1.0000
  H   H6943     1.0  0.75173  0.19421  0.11571  1.0000
  C   C4038     1.0  0.92864  0.13703  0.44674  1.0000
  C   C4039     1.0  0.93687  0.08111  0.47588  1.0000
  H   H6944     1.0  0.92640  0.11376  0.43700  1.0000
  H   H6945     1.0  0.75518  0.00622  0.37769  1.0000
  S   S1158     1.0  0.90217  0.18393  0.46031  1.0000
  H   H6946     1.0  0.88741  0.10348  0.43276  1.0000
  H   H6947     1.0  0.80133  0.03139  0.44329  1.0000
  H   H6948     1.0  0.74653  0.01062  0.40212  1.0000
  N   N292      1.0  0.92451  0.14561  0.43222  1.0000
  H   H6949     1.0  0.80237  0.98881  0.43777  1.0000
  C   C4040     1.0  0.80289  0.03506  0.39508  1.0000
  C   C4041     1.0  0.79378  0.01495  0.47311  1.0000
  C   C4042     1.0  0.77352  0.01302  0.46365  1.0000
  H   H6950     1.0  0.96262  0.22889  0.36757  1.0000
  C   C4043     1.0  0.80871  0.01939  0.47100  1.0000
  H   H6951     1.0  0.93833  0.13730  0.46448  1.0000
  H   H6952     1.0  0.80331  0.02610  0.40514  1.0000
  H   H6953     1.0  0.81938  0.18388  0.04330  1.0000
  H   H6954     1.0  0.95619  0.20510  0.47373  1.0000
  C   C4044     1.0  0.75811  0.01260  0.42975  1.0000
  S   S1159     1.0  0.98964  0.21633  0.40909  1.0000
  H   H6955     1.0  0.90523  0.13617  0.43706  1.0000
  C   C4045     1.0  0.98848  0.21929  0.42653  1.0000
  N   N293      1.0  0.83031  0.02526  0.38251  1.0000
  H   H6956     1.0  0.88331  0.12027  0.43866  1.0000
  C   C4046     1.0  0.92722  0.07779  0.46936  1.0000
  C   C4047     1.0  0.90798  0.20970  0.46171  1.0000
  H   H6957     1.0  0.80076  0.22681  0.05033  1.0000
  C   C4048     1.0  0.79687  0.00041  0.43862  1.0000
  H   H6958     1.0  0.82908  0.00272  0.36911  1.0000
  H   H6959     1.0  0.90852  0.03916  0.43573  1.0000
  C   C4049     1.0  0.77893  0.19712  0.01644  1.0000
  C   C4050     1.0  0.93876  0.14712  0.42083  1.0000
  H   H6960     1.0  0.75409  0.16936  0.13099  1.0000
  H   H6961     1.0  0.92948  0.06696  0.46705  1.0000
  S   S1160     1.0  0.97644  0.22351  0.47431  1.0000
  S   S1161     1.0  0.80230  0.23014  0.01966  1.0000
  C   C4051     1.0  0.91674  0.05674  0.43725  1.0000
  H   H6962     1.0  0.95243  0.21331  0.44545  1.0000
  S   S1162     1.0  0.85136  0.06958  0.43595  1.0000
  H   H6963     1.0  0.97260  0.19336  0.45327  1.0000
  H   H6964     1.0  0.74654  0.03581  0.39148  1.0000
  C   C4052     1.0  0.77789  0.06608  0.46543  1.0000
  H   H6965     1.0  0.82741  0.13340  0.44305  1.0000
  H   H6966     1.0  0.92773  0.05312  0.42999  1.0000
  H   H6967     1.0  0.90996  0.17034  0.41217  1.0000
  H   H6968     1.0  0.94562  0.14839  0.44729  1.0000
  S   S1163     1.0  0.88478  0.01039  0.38999  1.0000
  S   S1164     1.0  0.85124  0.00824  0.42465  1.0000
  C   C4053     1.0  0.77195  0.22227  0.07455  1.0000
  H   H6969     1.0  0.78216  0.02817  0.43051  1.0000
  H   H6970     1.0  0.90184  0.22002  0.09656  1.0000
  Fe  Fe577     1.0  0.90581  0.99917  0.39824  1.0000
  S   S1165     1.0  0.92385  0.01206  0.39317  1.0000
  N   N294      1.0  0.95386  0.18534  0.46896  1.0000
  S   S1166     1.0  0.81161  0.08249  0.46049  1.0000
  H   H6971     1.0  0.75206  0.18951  0.00251  1.0000
  H   H6972     1.0  0.93419  0.12098  0.41772  1.0000
  Fe  Fe578     1.0  0.96360  0.04223  0.43736  1.0000
  S   S1167     1.0  0.97635  0.03749  0.45520  1.0000
  S   S1168     1.0  0.95017  0.02490  0.44068  1.0000
  Fe  Fe579     1.0  0.97072  0.07318  0.42473  1.0000
  C   C4054     1.0  0.90849  0.22016  0.46907  1.0000
  S   S1169     1.0  0.96901  0.09499  0.40815  1.0000
  H   H6973     1.0  0.84198  0.14308  0.41918  1.0000
  Fe  Fe580     1.0  0.96483  0.06065  0.45760  1.0000
  H   H6974     1.0  0.87198  0.05443  0.45590  1.0000
  S   S1170     1.0  0.95126  0.06498  0.44075  1.0000
  H   H6975     1.0  0.76586  0.02174  0.46942  1.0000
  S   S1171     1.0  0.83286  0.05229  0.47643  1.0000
  H   H6976     1.0  0.82442  0.01974  0.35586  1.0000
  C   C4055     1.0  0.91567  0.13701  0.42840  1.0000
  Fe  Fe581     1.0  0.99370  0.04793  0.43747  1.0000
  C   C4056     1.0  0.85261  0.13483  0.42047  1.0000
  C   C4057     1.0  0.91466  0.08848  0.46579  1.0000
  H   H6977     1.0  0.93595  0.22563  0.41502  1.0000
  C   C4058     1.0  0.93044  0.01613  0.40660  1.0000
  C   C4059     1.0  0.94062  0.02543  0.40200  1.0000
  C   C4060     1.0  0.94665  0.02840  0.41231  1.0000
  C   C4061     1.0  0.94275  0.02182  0.42727  1.0000
  C   C4062     1.0  0.93257  0.01249  0.43188  1.0000
  C   C4063     1.0  0.92625  0.00982  0.42163  1.0000
  H   H6978     1.0  0.94392  0.03033  0.39038  1.0000
  H   H6979     1.0  0.95449  0.03559  0.40864  1.0000
  H   H6980     1.0  0.92950  0.00737  0.44347  1.0000
  H   H6981     1.0  0.90199  0.06020  0.46543  1.0000
  C   C4064     1.0  0.85106  0.05291  0.43221  1.0000
  C   C4065     1.0  0.86326  0.04597  0.42269  1.0000
  C   C4066     1.0  0.86348  0.03215  0.42045  1.0000
  C   C4067     1.0  0.85129  0.02547  0.42735  1.0000
  C   C4068     1.0  0.83893  0.03263  0.43652  1.0000
  C   C4069     1.0  0.83887  0.04624  0.43909  1.0000
  H   H6982     1.0  0.87270  0.05109  0.41731  1.0000
  H   H6983     1.0  0.87311  0.02667  0.41342  1.0000
  H   H6984     1.0  0.79141  0.03754  0.39318  1.0000
  C   C4070     1.0  0.78967  0.03062  0.44925  1.0000
  H   H6985     1.0  0.75337  0.02177  0.43513  1.0000
  H   H6986     1.0  0.99008  0.09650  0.44962  1.0000
  H   H6987     1.0  0.85531  0.11360  0.41340  1.0000
  H   H6988     1.0  0.85094  0.01324  0.37061  1.0000
  C   C4071     1.0  0.77120  0.98872  0.41597  1.0000
  H   H6989     1.0  0.91177  0.14277  0.41807  1.0000
  H   H6990     1.0  0.90701  0.04144  0.47365  1.0000
  C   C4072     1.0  0.75289  0.17868  0.13617  1.0000
  H   H6991     1.0  0.81229  0.18013  0.00738  1.0000
  C   C4073     1.0  0.88842  0.02346  0.45097  1.0000
  C   C4074     1.0  0.81412  0.03026  0.38142  1.0000
  C   C4075     1.0  0.82681  0.99920  0.39818  1.0000
  Fe  Fe582     1.0  0.80411  0.23311  0.10046  1.0000
  C   C4076     1.0  0.75510  0.06203  0.46217  1.0000
  H   H6992     1.0  0.77090  0.02513  0.41083  1.0000
  H   H6993     1.0  0.82864  0.04217  0.39412  1.0000
  H   H6994     1.0  0.84593  0.15841  0.45050  1.0000
  H   H6995     1.0  0.85433  0.02843  0.39404  1.0000
  S   S1172     1.0  0.89400  0.98820  0.42045  1.0000
  S   S1173     1.0  0.89591  0.11563  0.46418  1.0000
  C   C4077     1.0  0.85159  0.03624  0.38384  1.0000
  H   H6996     1.0  0.86255  0.10764  0.45059  1.0000
  H   H6997     1.0  0.76254  0.20148  0.13998  1.0000
  H   H6998     1.0  0.77279  0.17340  0.03659  1.0000
  H   H6999     1.0  0.83246  0.04811  0.37452  1.0000
  Fe  Fe583     1.0  0.88875  0.13477  0.47529  1.0000
  H   H7000     1.0  0.75351  0.98636  0.15521  1.0000
  H   H7001     1.0  0.86206  0.10414  0.43396  1.0000
  H   H7002     1.0  0.76793  0.03864  0.44281  1.0000
  H   H7003     1.0  0.80737  0.20233  0.04016  1.0000
  C   C4078     1.0  0.78524  0.21089  0.09436  1.0000
  S   S1174     1.0  0.79584  0.21197  0.10610  1.0000
  Fe  Fe584     1.0  0.87324  0.99795  0.41145  1.0000
  C   C4079     1.0  0.76726  0.20922  0.07651  1.0000
  C   C4080     1.0  0.77172  0.19690  0.08733  1.0000
  C   C4081     1.0  0.78079  0.19771  0.09616  1.0000
  S   S1175     1.0  0.98531  0.18168  0.39845  1.0000
  H   H7004     1.0  0.91841  0.03442  0.45012  1.0000
  H   H7005     1.0  0.78560  0.18859  0.01013  1.0000
  H   H7006     1.0  0.78430  0.18813  0.10446  1.0000
  H   H7007     1.0  0.94295  0.20050  0.44303  1.0000
  C   C4082     1.0  0.97910  0.13238  0.41016  1.0000
  H   H7008     1.0  0.91637  0.11624  0.42326  1.0000
  C   C4083     1.0  0.83270  0.01316  0.39598  1.0000
  S   S1176     1.0  0.80428  0.11760  0.47539  1.0000
  H   H7009     1.0  0.86139  0.14143  0.41694  1.0000
  H   H7010     1.0  0.82933  0.05165  0.44630  1.0000
  H   H7011     1.0  0.84179  0.15843  0.43361  1.0000
  C   C4084     1.0  0.84237  0.15179  0.44490  1.0000
  C   C4085     1.0  0.90983  0.04315  0.44493  1.0000
  H   H7012     1.0  0.91843  0.21745  0.10274  1.0000
  H   H7013     1.0  0.90986  0.06502  0.42988  1.0000
  H   H7014     1.0  0.91834  0.00273  0.42528  1.0000
  C   C4086     1.0  0.85618  0.12525  0.40891  1.0000
  S   S1177     1.0  0.79874  0.99119  0.35634  1.0000
  C   C4087     1.0  0.97487  0.13219  0.42527  1.0000
  H   H7015     1.0  0.96635  0.15510  0.46976  1.0000
  H   H7016     1.0  0.82454  0.99389  0.41013  1.0000
  C   C4088     1.0  0.97130  0.10920  0.41485  1.0000
  C   C4089     1.0  0.96722  0.10896  0.42998  1.0000
  C   C4090     1.0  0.96898  0.12044  0.43517  1.0000
  H   H7017     1.0  0.88390  0.05451  0.43815  1.0000
  H   H7018     1.0  0.96246  0.10004  0.43768  1.0000
  H   H7019     1.0  0.90212  0.22928  0.06563  1.0000
  H   H7020     1.0  0.89499  0.16323  0.42614  1.0000
  C   C4091     1.0  0.95392  0.20242  0.44284  1.0000
  C   C4092     1.0  0.87980  0.11459  0.43214  1.0000
  C   C4093     1.0  0.80035  0.00358  0.45192  1.0000
  H   H7021     1.0  0.78492  0.00101  0.43976  1.0000
  C   C4094     1.0  0.86351  0.11279  0.43858  1.0000
  H   H7022     1.0  0.79461  0.14804  0.47612  1.0000
  H   H7023     1.0  0.94505  0.15347  0.42391  1.0000
  S   S1178     1.0  0.98191  0.05090  0.41931  1.0000
  H   H7024     1.0  0.83576  0.11776  0.45520  1.0000
  C   C4095     1.0  0.75663  0.21005  0.13189  1.0000
  C   C4096     1.0  0.91001  0.22592  0.09715  1.0000
  H   H7025     1.0  0.88038  0.03098  0.44438  1.0000
  C   C4097     1.0  0.94180  0.17822  0.46859  1.0000
  H   H7026     1.0  0.75565  0.22414  0.14666  1.0000
  C   C4098     1.0  0.77470  0.00253  0.40917  1.0000
  C   C4099     1.0  0.76696  0.06933  0.45717  1.0000
  H   H7027     1.0  0.80440  0.04530  0.39697  1.0000
  H   H7028     1.0  0.82052  0.11128  0.44301  1.0000
  H   H7029     1.0  0.82819  0.01739  0.40632  1.0000
  H   H7030     1.0  0.80851  0.03103  0.46491  1.0000
  H   H7031     1.0  0.88014  0.03168  0.47066  1.0000
  H   H7032     1.0  0.85363  0.13104  0.45665  1.0000
  C   C4100     1.0  0.91152  0.10239  0.46908  1.0000
  H   H7033     1.0  0.92718  0.15484  0.45779  1.0000
  H   H7034     1.0  0.92866  0.15214  0.40134  1.0000
  H   H7035     1.0  0.94604  0.17135  0.46012  1.0000
  H   H7036     1.0  0.84285  0.03014  0.35979  1.0000
  H   H7037     1.0  0.81003  0.02157  0.37927  1.0000
  H   H7038     1.0  0.88363  0.01363  0.45701  1.0000
  H   H7039     1.0  0.93692  0.12651  0.44545  1.0000
  H   H7040     1.0  0.98231  0.16357  0.46161  1.0000
  H   H7041     1.0  0.86484  0.13976  0.44041  1.0000
  H   H7042     1.0  0.94656  0.13622  0.42054  1.0000
  Fe  Fe585     1.0  0.81602  0.09394  0.47559  1.0000
  H   H7043     1.0  0.91864  0.13379  0.45489  1.0000
  C   C4101     1.0  0.83342  0.01214  0.36127  1.0000
  H   H7044     1.0  0.82996  0.11884  0.42507  1.0000
  H   H7045     1.0  0.76778  0.07739  0.44677  1.0000
  C   C4102     1.0  0.83999  0.02042  0.36860  1.0000
  H   H7046     1.0  0.83106  0.15044  0.45132  1.0000
  C   C4103     1.0  0.76825  0.01443  0.41610  1.0000
  H   H7047     1.0  0.88168  0.12050  0.42041  1.0000
  H   H7048     1.0  0.81041  0.19315  0.05804  1.0000
  H   H7049     1.0  0.89916  0.18006  0.42623  1.0000
  C   C4104     1.0  0.93529  0.14504  0.45431  1.0000
  H   H7050     1.0  0.78705  0.07163  0.46135  1.0000
  H   H7051     1.0  0.90770  0.15957  0.44569  1.0000
  H   H7052     1.0  0.86752  0.12550  0.40179  1.0000
  C   C4105     1.0  0.75436  0.99889  0.43646  1.0000
  Fe  Fe586     1.0  0.83599  0.07193  0.45779  1.0000
  H   H7053     1.0  0.76436  0.17924  0.13609  1.0000
  H   H7054     1.0  0.76805  0.15674  0.05950  1.0000
  S   S1179     1.0  0.87765  0.15668  0.46329  1.0000
  C   C4106     1.0  0.93743  0.15485  0.40485  1.0000
  C   C4107     1.0  0.77797  0.16152  0.05741  1.0000
  N   N295      1.0  0.89532  0.04544  0.45620  1.0000
  H   H7055     1.0  0.93233  0.18682  0.46490  1.0000
  H   H7056     1.0  0.77842  0.20802  0.00852  1.0000
  C   C4108     1.0  0.91505  0.16059  0.43441  1.0000
  N   N296      1.0  0.85161  0.12682  0.43643  1.0000
  C   C4109     1.0  0.85374  0.13682  0.44490  1.0000
  N   N297      1.0  0.79039  0.18226  0.03888  1.0000
  C   C4110     1.0  0.77655  0.17592  0.04533  1.0000
  C   C4111     1.0  0.78587  0.19718  0.02904  1.0000
  C   C4112     1.0  0.79537  0.18425  0.05157  1.0000
  C   C4113     1.0  0.80231  0.17159  0.03066  1.0000
  H   H7057     1.0  0.86740  0.23316  0.11912  1.0000
  H   H7058     1.0  0.95670  0.98484  0.42996  1.0000
  C   C4114     1.0  0.80892  0.19133  0.04772  1.0000
  C   C4115     1.0  0.81472  0.17804  0.01846  1.0000
  H   H7059     1.0  0.95042  0.98556  0.38984  1.0000
  C   C4116     1.0  0.83644  0.12322  0.44335  1.0000
  H   H7060     1.0  0.79536  0.20265  0.02378  1.0000
  H   H7061     1.0  0.77770  0.20495  0.03570  1.0000
  H   H7062     1.0  0.78603  0.19108  0.05823  1.0000
  H   H7063     1.0  0.79845  0.17346  0.05922  1.0000
  H   H7064     1.0  0.80787  0.16231  0.03853  1.0000
  H   H7065     1.0  0.79709  0.16637  0.02504  1.0000
  C   C4117     1.0  0.78068  0.22320  0.08362  1.0000
  H   H7066     1.0  0.91904  0.06182  0.44508  1.0000
  H   H7067     1.0  0.78579  0.03920  0.45595  1.0000
  Fe  Fe587     1.0  0.79097  0.98632  0.38095  1.0000
  C   C4118     1.0  0.90432  0.16884  0.42396  1.0000
  Fe  Fe588     1.0  0.88960  0.16627  0.47408  1.0000
  Fe  Fe589     1.0  0.88788  0.98994  0.38190  1.0000
  H   H7068     1.0  0.76705  0.18417  0.05017  1.0000
  C   C4119     1.0  0.89086  0.03067  0.46227  1.0000
  H   H7069     1.0  0.82539  0.16960  0.01822  1.0000
  H   H7070     1.0  0.81701  0.18813  0.01982  1.0000
  H   H7071     1.0  0.84485  0.00906  0.39581  1.0000
  H   H7072     1.0  0.83923  0.10227  0.43653  1.0000
  H   H7073     1.0  0.90743  0.08599  0.46043  1.0000
  H   H7074     1.0  0.76884  0.01423  0.45402  1.0000
  H   H7075     1.0  0.94607  0.23051  0.39088  1.0000
  H   H7076     1.0  0.84232  0.00769  0.35240  1.0000
  H   H7077     1.0  0.76844  0.18666  0.08872  1.0000
  C   C4120     1.0  0.92383  0.12116  0.42653  1.0000
  H   H7078     1.0  0.81279  0.03964  0.37171  1.0000
  C   C4121     1.0  0.96247  0.18983  0.45330  1.0000
  S   S1180     1.0  0.78665  0.00528  0.39179  1.0000
  H   H7079     1.0  0.86330  0.22755  0.01704  1.0000
  H   H7080     1.0  0.97285  0.98414  0.41528  1.0000
  H   H7081     1.0  0.92220  0.16819  0.43382  1.0000
  H   H7082     1.0  0.83510  0.99112  0.39214  1.0000
  H   H7083     1.0  0.96665  0.18028  0.44780  1.0000
  H   H7084     1.0  0.85929  0.03249  0.37399  1.0000
  H   H7085     1.0  0.78799  0.15299  0.05413  1.0000
  H   H7086     1.0  0.88510  0.23183  0.01755  1.0000
  H   H7087     1.0  0.85381  0.04694  0.38387  1.0000
  H   H7088     1.0  0.76442  0.20890  0.12114  1.0000
  H   H7089     1.0  0.89268  0.07577  0.44787  1.0000
  H   H7090     1.0  0.77845  0.98857  0.46853  1.0000
  C   C4122     1.0  0.76107  0.98689  0.42966  1.0000
  H   H7091     1.0  0.96067  0.20312  0.43134  1.0000
  H   H7092     1.0  0.88001  0.07898  0.43636  1.0000
  H   H7093     1.0  0.80114  0.00785  0.42817  1.0000
  C   C4123     1.0  0.88314  0.05636  0.44924  1.0000
  H   H7094     1.0  0.93909  0.20703  0.46870  1.0000
  H   H7095     1.0  0.89934  0.02246  0.46808  1.0000
  H   H7096     1.0  0.75960  0.99719  0.47540  1.0000
  C   C4124     1.0  0.98253  0.22259  0.45566  1.0000
  H   H7097     1.0  0.77800  0.16372  0.06808  1.0000
  H   H7098     1.0  0.98032  0.12121  0.39324  1.0000
  C   C4125     1.0  0.97375  0.16096  0.47185  1.0000
  S   S1181     1.0  0.98341  0.07057  0.44183  1.0000
  N   N298      1.0  0.78926  0.01544  0.45916  1.0000
  H   H7099     1.0  0.81155  0.00639  0.44778  1.0000
  C   C4126     1.0  0.90181  0.19740  0.46958  1.0000
  C   C4127     1.0  0.75404  0.05174  0.47567  1.0000
  C   C4128     1.0  0.97718  0.12097  0.40495  1.0000
  C   C4129     1.0  0.89788  0.04986  0.46894  1.0000
  H   H7100     1.0  0.75105  0.22538  0.10481  1.0000
  Fe  Fe590     1.0  0.99083  0.16161  0.41629  1.0000
  S   S1182     1.0  0.84076  0.08493  0.47121  1.0000
  H   H7101     1.0  0.95481  0.99010  0.41097  1.0000
  H   H7102     1.0  0.92378  0.22434  0.07550  1.0000
  H   H7103     1.0  0.80246  0.99287  0.46004  1.0000
  H   H7104     1.0  0.76739  0.22817  0.12853  1.0000
  H   H7105     1.0  0.98353  0.14148  0.40243  1.0000
  H   H7106     1.0  0.81838  0.01185  0.46553  1.0000
  C   C4130     1.0  0.97991  0.23257  0.43031  1.0000
  H   H7107     1.0  0.87293  0.07773  0.45556  1.0000
  C   C4131     1.0  0.99235  0.20990  0.45157  1.0000
  H   H7108     1.0  0.91310  0.22969  0.46293  1.0000
  C   C4132     1.0  0.75411  0.98395  0.32112  1.0000
  S   S1183     1.0  0.76580  0.98805  0.34196  1.0000
  H   H7109     1.0  0.96460  0.22750  0.39306  1.0000
  C   C4133     1.0  0.88244  0.07299  0.44735  1.0000
  S   S1184     1.0  0.88583  0.99140  0.35896  1.0000
  C   C4134     1.0  0.75662  0.22500  0.13474  1.0000
  H   H7110     1.0  0.74650  0.17580  0.14769  1.0000
  C   C4135     1.0  0.94726  0.19917  0.47501  1.0000
  H   H7111     1.0  0.83490  0.23173  0.02117  1.0000
  H   H7112     1.0  0.78375  0.23346  0.08245  1.0000
  C   C4136     1.0  0.91807  0.23325  0.08172  1.0000
  H   H7113     1.0  0.74554  0.21425  0.00589  1.0000
  C   C4137     1.0  0.84266  0.23324  0.01021  1.0000
  H   H7114     1.0  0.93217  0.23347  0.43067  1.0000
  H   H7115     1.0  0.80912  0.07654  0.52625  1.0000
  S   S1185     1.0  0.83427  0.08715  0.61076  1.0000
  H   H7116     1.0  0.93287  0.19826  0.63832  1.0000
  H   H7117     1.0  0.94684  0.18955  0.64932  1.0000
  C   C4138     1.0  0.84511  0.06902  0.51846  1.0000
  S   S1186     1.0  0.84029  0.07273  0.58181  1.0000
  Fe  Fe591     1.0  0.83255  0.10931  0.59498  1.0000
  S   S1187     1.0  0.85300  0.10222  0.57832  1.0000
  C   C4139     1.0  0.83850  0.08375  0.51317  1.0000
  Fe  Fe592     1.0  0.83758  0.09608  0.56861  1.0000
  S   S1188     1.0  0.83813  0.10388  0.54447  1.0000
  Fe  Fe593     1.0  0.85381  0.07977  0.59317  1.0000
  S   S1189     1.0  0.87581  0.06780  0.59920  1.0000
  H   H7118     1.0  0.91604  0.11156  0.58409  1.0000
  H   H7119     1.0  0.84946  0.18166  0.58304  1.0000
  H   H7120     1.0  0.83883  0.20586  0.63821  1.0000
  S   S1190     1.0  0.89001  0.99744  0.63383  1.0000
  S   S1191     1.0  0.89767  0.00184  0.59159  1.0000
  H   H7121     1.0  0.93644  0.04030  0.57273  1.0000
  H   H7122     1.0  0.81274  0.01515  0.63108  1.0000
  H   H7123     1.0  0.93016  0.00822  0.58181  1.0000
  H   H7124     1.0  0.95215  0.01623  0.56839  1.0000
  C   C4140     1.0  0.76969  0.06371  0.59216  1.0000
  H   H7125     1.0  0.87458  0.16662  0.61901  1.0000
  Fe  Fe594     1.0  0.96068  0.05569  0.63252  1.0000
  S   S1192     1.0  0.98098  0.05678  0.61395  1.0000
  S   S1193     1.0  0.94116  0.04885  0.62920  1.0000
  Fe  Fe595     1.0  0.97032  0.07355  0.64844  1.0000
  C   C4141     1.0  0.89744  0.22580  0.59869  1.0000
  S   S1194     1.0  0.96581  0.08254  0.66884  1.0000
  Fe  Fe596     1.0  0.97628  0.08058  0.61484  1.0000
  S   S1195     1.0  0.97725  0.09723  0.59323  1.0000
  Fe  Fe597     1.0  0.98272  0.15854  0.66553  1.0000
  C   C4142     1.0  0.76558  0.08294  0.50631  1.0000
  S   S1196     1.0  0.95533  0.07999  0.63242  1.0000
  S   S1197     1.0  0.97390  0.04910  0.65028  1.0000
  C   C4143     1.0  0.91948  0.10553  0.59464  1.0000
  C   C4144     1.0  0.74759  0.23210  0.96612  1.0000
  H   H7126     1.0  0.92031  0.08871  0.57793  1.0000
  H   H7127     1.0  0.89190  0.11397  0.58557  1.0000
  Fe  Fe598     1.0  0.89696  0.18832  0.59520  1.0000
  S   S1198     1.0  0.91894  0.18896  0.57910  1.0000
  S   S1199     1.0  0.87878  0.20680  0.60290  1.0000
  Fe  Fe599     1.0  0.90024  0.15529  0.59888  1.0000
  S   S1200     1.0  0.92248  0.15271  0.58306  1.0000
  S   S1201     1.0  0.89021  0.13581  0.61240  1.0000
  Fe  Fe600     1.0  0.92751  0.16774  0.59413  1.0000
  S   S1202     1.0  0.94914  0.16243  0.60133  1.0000
  Fe  Fe601     1.0  0.91228  0.17398  0.56919  1.0000
  S   S1203     1.0  0.91536  0.17818  0.54467  1.0000
  S   S1204     1.0  0.90613  0.16848  0.61130  1.0000
  S   S1205     1.0  0.88949  0.17519  0.58391  1.0000
  Fe  Fe602     1.0  0.83531  0.06622  0.49018  1.0000
  H   H7128     1.0  0.87478  0.07750  0.52140  1.0000
  C   C4145     1.0  0.77018  0.07435  0.57888  1.0000
  H   H7129     1.0  0.90766  0.08158  0.49862  1.0000
  H   H7130     1.0  0.82135  0.02810  0.60442  1.0000
  H   H7131     1.0  0.82198  0.04983  0.56825  1.0000
  H   H7132     1.0  0.81053  0.07437  0.54504  1.0000
  C   C4146     1.0  0.91836  0.21500  0.52776  1.0000
  H   H7133     1.0  0.85586  0.15682  0.53812  1.0000
  C   C4147     1.0  0.88991  0.10266  0.59056  1.0000
  S   S1206     1.0  0.97360  0.18284  0.66367  1.0000
  C   C4148     1.0  0.82578  0.16542  0.53517  1.0000
  H   H7134     1.0  0.95837  0.02251  0.61069  1.0000
  H   H7135     1.0  0.82515  0.05043  0.54385  1.0000
  H   H7136     1.0  0.90675  0.21675  0.59635  1.0000
  H   H7137     1.0  0.85116  0.14713  0.52119  1.0000
  C   C4149     1.0  0.98836  0.21740  0.63618  1.0000
  H   H7138     1.0  0.83535  0.08709  0.50263  1.0000
  H   H7139     1.0  0.91131  0.11668  0.51213  1.0000
  H   H7140     1.0  0.89872  0.10597  0.50088  1.0000
  H   H7141     1.0  0.87760  0.10392  0.59444  1.0000
  S   S1207     1.0  0.83032  0.13145  0.59972  1.0000
  H   H7142     1.0  0.86098  0.18931  0.62717  1.0000
  H   H7143     1.0  0.96455  0.10150  0.68778  1.0000
  H   H7144     1.0  0.80123  0.02489  0.55250  1.0000
  H   H7145     1.0  0.93814  0.06580  0.57962  1.0000
  H   H7146     1.0  0.94244  0.09855  0.58226  1.0000
  H   H7147     1.0  0.84862  0.13073  0.53427  1.0000
  C   C4150     1.0  0.75928  0.09748  0.61921  1.0000
  S   S1208     1.0  0.87026  0.13379  0.49543  1.0000
  Fe  Fe603     1.0  0.88269  0.14531  0.50348  1.0000
  S   S1209     1.0  0.88475  0.13746  0.52707  1.0000
  H   H7148     1.0  0.94123  0.09871  0.60131  1.0000
  S   S1210     1.0  0.87084  0.16814  0.49406  1.0000
  H   H7149     1.0  0.76751  0.10000  0.48568  1.0000
  H   H7150     1.0  0.75224  0.10245  0.62861  1.0000
  H   H7151     1.0  0.76512  0.08595  0.62332  1.0000
  H   H7152     1.0  0.85658  0.99509  0.60393  1.0000
  C   C4151     1.0  0.93589  0.00282  0.59113  1.0000
  H   H7153     1.0  0.92680  0.00156  0.60126  1.0000
  H   H7154     1.0  0.96244  0.20753  0.63480  1.0000
  H   H7155     1.0  0.89156  0.18611  0.49101  1.0000
  C   C4152     1.0  0.82712  0.14984  0.48279  1.0000
  H   H7156     1.0  0.89340  0.06065  0.51118  1.0000
  C   C4153     1.0  0.83866  0.03680  0.60925  1.0000
  S   S1211     1.0  0.84825  0.05594  0.50796  1.0000
  C   C4154     1.0  0.93645  0.10421  0.59143  1.0000
  C   C4155     1.0  0.93446  0.07028  0.58976  1.0000
  C   C4156     1.0  0.84242  0.14186  0.52953  1.0000
  H   H7157     1.0  0.80124  0.05046  0.52056  1.0000
  C   C4157     1.0  0.81928  0.03156  0.52396  1.0000
  H   H7158     1.0  0.97616  0.22587  0.59034  1.0000
  N   N299      1.0  0.80369  0.04754  0.54295  1.0000
  C   C4158     1.0  0.92813  0.03669  0.58276  1.0000
  H   H7159     1.0  0.86617  0.09176  0.49879  1.0000
  H   H7160     1.0  0.82145  0.98625  0.66551  1.0000
  S   S1212     1.0  0.75767  0.07726  0.56749  1.0000
  Fe  Fe604     1.0  0.82046  0.08219  0.59800  1.0000
  H   H7161     1.0  0.88649  0.05756  0.48922  1.0000
  H   H7162     1.0  0.95308  0.98698  0.57897  1.0000
  C   C4159     1.0  0.83043  0.20737  0.63167  1.0000
  C   C4160     1.0  0.89044  0.21685  0.55952  1.0000
  H   H7163     1.0  0.83067  0.01727  0.64544  1.0000
  H   H7164     1.0  0.85824  0.17026  0.60529  1.0000
  N   N300      1.0  0.84366  0.18481  0.61966  1.0000
  H   H7165     1.0  0.86762  0.00188  0.61147  1.0000
  H   H7166     1.0  0.98972  0.17677  0.60836  1.0000
  H   H7167     1.0  0.82276  0.15491  0.56976  1.0000
  C   C4161     1.0  0.90704  0.16673  0.53976  1.0000
  C   C4162     1.0  0.90579  0.16921  0.52512  1.0000
  C   C4163     1.0  0.89898  0.16020  0.52116  1.0000
  C   C4164     1.0  0.89352  0.14864  0.53181  1.0000
  C   C4165     1.0  0.89495  0.14603  0.54640  1.0000
  C   C4166     1.0  0.90160  0.15514  0.55040  1.0000
  H   H7168     1.0  0.90995  0.17820  0.51689  1.0000
  H   H7169     1.0  0.89795  0.16224  0.50987  1.0000
  H   H7170     1.0  0.89090  0.13700  0.55462  1.0000
  H   H7171     1.0  0.90261  0.15313  0.56169  1.0000
  H   H7172     1.0  0.85056  0.15088  0.58455  1.0000
  H   H7173     1.0  0.76129  0.19504  0.96967  1.0000
  H   H7174     1.0  0.84629  0.20751  0.61092  1.0000
  H   H7175     1.0  0.76155  0.04170  0.52577  1.0000
  Fe  Fe605     1.0  0.89726  0.98705  0.61422  1.0000
  H   H7176     1.0  0.77379  0.07914  0.51353  1.0000
  H   H7177     1.0  0.81253  0.02298  0.52816  1.0000
  H   H7178     1.0  0.86601  0.03825  0.63268  1.0000
  H   H7179     1.0  0.82330  0.04613  0.59448  1.0000
  H   H7180     1.0  0.89202  0.20475  0.50391  1.0000
  C   C4167     1.0  0.79426  0.06296  0.54308  1.0000
  H   H7181     1.0  0.75963  0.05356  0.53762  1.0000
  H   H7182     1.0  0.95973  0.17124  0.48943  1.0000
  H   H7183     1.0  0.98272  0.16164  0.62106  1.0000
  C   C4168     1.0  0.81279  0.02556  0.63375  1.0000
  C   C4169     1.0  0.81020  0.04680  0.52695  1.0000
  H   H7184     1.0  0.82673  0.18589  0.51851  1.0000
  Fe  Fe606     1.0  0.99444  0.22434  0.74798  1.0000
  C   C4170     1.0  0.85730  0.00499  0.60718  1.0000
  H   H7185     1.0  0.85840  0.01396  0.59714  1.0000
  C   C4171     1.0  0.89643  0.20619  0.49212  1.0000
  C   C4172     1.0  0.96647  0.22133  0.59763  1.0000
  H   H7186     1.0  0.85162  0.04890  0.62318  1.0000
  H   H7187     1.0  0.76424  0.04020  0.49415  1.0000
  C   C4173     1.0  0.97081  0.11565  0.59497  1.0000
  C   C4174     1.0  0.96543  0.12643  0.58346  1.0000
  C   C4175     1.0  0.95935  0.14105  0.58507  1.0000
  C   C4176     1.0  0.95912  0.14500  0.59798  1.0000
  C   C4177     1.0  0.96550  0.13446  0.60901  1.0000
  C   C4178     1.0  0.97101  0.11969  0.60770  1.0000
  H   H7188     1.0  0.96548  0.12339  0.57349  1.0000
  H   H7189     1.0  0.95479  0.14926  0.57632  1.0000
  H   H7190     1.0  0.96549  0.13766  0.61882  1.0000
  H   H7191     1.0  0.97536  0.11141  0.61649  1.0000
  C   C4179     1.0  0.96993  0.10001  0.66497  1.0000
  H   H7192     1.0  0.93208  0.22279  0.53665  1.0000
  H   H7193     1.0  0.88180  0.04117  0.48866  1.0000
  H   H7194     1.0  0.78141  0.09120  0.56414  1.0000
  H   H7195     1.0  0.80278  0.05533  0.56882  1.0000
  C   C4180     1.0  0.96800  0.10712  0.67643  1.0000
  C   C4181     1.0  0.88279  0.22377  0.60210  1.0000
  S   S1213     1.0  0.81087  0.07640  0.49576  1.0000
  C   C4182     1.0  0.97428  0.10731  0.65035  1.0000
  S   S1214     1.0  0.83572  0.16326  0.48399  1.0000
  C   C4183     1.0  0.93048  0.00277  0.64525  1.0000
  C   C4184     1.0  0.94300  0.00518  0.64837  1.0000
  C   C4185     1.0  0.94634  0.01933  0.64378  1.0000
  C   C4186     1.0  0.93710  0.03112  0.63611  1.0000
  C   C4187     1.0  0.92448  0.02874  0.63319  1.0000
  C   C4188     1.0  0.92121  0.01462  0.63768  1.0000
  S   S1215     1.0  0.90235  0.14420  0.48434  1.0000
  H   H7196     1.0  0.95609  0.02107  0.64608  1.0000
  H   H7197     1.0  0.91722  0.03785  0.62737  1.0000
  H   H7198     1.0  0.91149  0.01296  0.63532  1.0000
  C   C4189     1.0  0.84724  0.13238  0.60283  1.0000
  H   H7199     1.0  0.92824  0.19366  0.49295  1.0000
  C   C4190     1.0  0.86842  0.14403  0.59623  1.0000
  C   C4191     1.0  0.87385  0.13450  0.60835  1.0000
  C   C4192     1.0  0.86604  0.12378  0.61757  1.0000
  C   C4193     1.0  0.85292  0.12254  0.61465  1.0000
  H   H7200     1.0  0.77347  0.99645  0.48477  1.0000
  H   H7201     1.0  0.87454  0.15207  0.58884  1.0000
  H   H7202     1.0  0.87015  0.11638  0.62698  1.0000
  H   H7203     1.0  0.84698  0.11417  0.62176  1.0000
  C   C4194     1.0  0.84024  0.09019  0.53502  1.0000
  C   C4195     1.0  0.83625  0.09435  0.52135  1.0000
  H   H7204     1.0  0.93306  0.06081  0.59933  1.0000
  C   C4196     1.0  0.84916  0.06480  0.53213  1.0000
  C   C4197     1.0  0.84656  0.07538  0.54051  1.0000
  H   H7205     1.0  0.83142  0.10582  0.51704  1.0000
  H   H7206     1.0  0.85431  0.05340  0.53622  1.0000
  H   H7207     1.0  0.84993  0.07217  0.55093  1.0000
  C   C4198     1.0  0.88208  0.04972  0.59647  1.0000
  C   C4199     1.0  0.89140  0.03943  0.60524  1.0000
  C   C4200     1.0  0.89623  0.02478  0.60363  1.0000
  C   C4201     1.0  0.89205  0.02038  0.59306  1.0000
  C   C4202     1.0  0.88314  0.03080  0.58390  1.0000
  C   C4203     1.0  0.87801  0.04545  0.58572  1.0000
  H   H7208     1.0  0.89465  0.04273  0.61350  1.0000
  H   H7209     1.0  0.90337  0.01693  0.61047  1.0000
  H   H7210     1.0  0.87997  0.02745  0.57563  1.0000
  H   H7211     1.0  0.87103  0.05345  0.57874  1.0000
  C   C4204     1.0  0.81646  0.04411  0.55051  1.0000
  H   H7212     1.0  0.82257  0.03238  0.55109  1.0000
  H   H7213     1.0  0.85939  0.12978  0.55213  1.0000
  H   H7214     1.0  0.87236  0.16392  0.63835  1.0000
  H   H7215     1.0  0.82305  0.03259  0.51181  1.0000
  H   H7216     1.0  0.77239  0.04770  0.56085  1.0000
  H   H7217     1.0  0.82644  0.03679  0.63843  1.0000
  C   C4205     1.0  0.83449  0.13492  0.48381  1.0000
  Fe  Fe607     1.0  0.99375  0.05258  0.63157  1.0000
  N   N301      1.0  0.91409  0.09127  0.60065  1.0000
  C   C4206     1.0  0.89721  0.09511  0.60397  1.0000
  C   C4207     1.0  0.91882  0.08274  0.61488  1.0000
  C   C4208     1.0  0.91946  0.08171  0.58934  1.0000
  C   C4209     1.0  0.91336  0.09069  0.62785  1.0000
  H   H7218     1.0  0.89268  0.08499  0.60971  1.0000
  H   H7219     1.0  0.89272  0.10279  0.61161  1.0000
  H   H7220     1.0  0.93116  0.07945  0.61327  1.0000
  H   H7221     1.0  0.91490  0.07215  0.61884  1.0000
  H   H7222     1.0  0.91120  0.07499  0.59060  1.0000
  H   H7223     1.0  0.89344  0.09601  0.58201  1.0000
  H   H7224     1.0  0.91847  0.08353  0.63717  1.0000
  H   H7225     1.0  0.91689  0.10131  0.62497  1.0000
  H   H7226     1.0  0.90109  0.09240  0.63205  1.0000
  H   H7227     1.0  0.94360  0.07489  0.59034  1.0000
  H   H7228     1.0  0.96702  0.00452  0.61901  1.0000
  C   C4210     1.0  0.80284  0.07555  0.53784  1.0000
  S   S1216     1.0  0.79089  0.05063  0.48898  1.0000
  S   S1217     1.0  0.90330  0.23121  0.49387  1.0000
  H   H7229     1.0  0.92587  0.20621  0.61419  1.0000
  H   H7230     1.0  0.88640  0.11147  0.51651  1.0000
  H   H7231     1.0  0.91808  0.22378  0.51763  1.0000
  H   H7232     1.0  0.92096  0.04679  0.58648  1.0000
  C   C4211     1.0  0.83431  0.17502  0.52162  1.0000
  H   H7233     1.0  0.83902  0.13298  0.51273  1.0000
  C   C4212     1.0  0.97193  0.19549  0.71430  1.0000
  H   H7234     1.0  0.98029  0.21042  0.65961  1.0000
  C   C4213     1.0  0.82818  0.02599  0.63551  1.0000
  H   H7235     1.0  0.95021  0.99608  0.65425  1.0000
  Fe  Fe608     1.0  0.97787  0.17907  0.68622  1.0000
  C   C4214     1.0  0.81260  0.04637  0.56645  1.0000
  C   C4215     1.0  0.90271  0.21841  0.48430  1.0000
  S   S1218     1.0  0.80219  0.06930  0.60838  1.0000
  H   H7236     1.0  0.89774  0.20664  0.55621  1.0000
  C   C4216     1.0  0.84678  0.15299  0.54731  1.0000
  S   S1219     1.0  0.97284  0.14822  0.65347  1.0000
  H   H7237     1.0  0.93694  0.16951  0.49335  1.0000
  H   H7238     1.0  0.83308  0.11320  0.48302  1.0000
  H   H7239     1.0  0.76989  0.07603  0.49790  1.0000
  C   C4217     1.0  0.98642  0.19924  0.73422  1.0000
  H   H7240     1.0  0.91326  0.05505  0.50660  1.0000
  H   H7241     1.0  0.93976  0.15617  0.48242  1.0000
  H   H7242     1.0  0.88002  0.10241  0.49349  1.0000
  H   H7243     1.0  0.83728  0.03100  0.58929  1.0000
  H   H7244     1.0  0.81061  0.01864  0.48203  1.0000
  H   H7245     1.0  0.82090  0.20247  0.63867  1.0000
  C   C4218     1.0  0.98570  0.22789  0.62333  1.0000
  H   H7246     1.0  0.82602  0.21949  0.62849  1.0000
  H   H7247     1.0  0.94093  0.09744  0.48468  1.0000
  H   H7248     1.0  0.84711  0.03944  0.64249  1.0000
  H   H7249     1.0  0.81085  0.03597  0.57462  1.0000
  C   C4219     1.0  0.89610  0.19565  0.48480  1.0000
  C   C4220     1.0  0.74701  0.08391  0.53020  1.0000
  H   H7250     1.0  0.81791  0.05444  0.52166  1.0000
  C   C4221     1.0  0.84343  0.00921  0.61923  1.0000
  H   H7251     1.0  0.75782  0.09149  0.59996  1.0000
  H   H7252     1.0  0.86129  0.15626  0.63170  1.0000
  S   S1220     1.0  0.98476  0.15425  0.68910  1.0000
  C   C4222     1.0  0.96979  0.12177  0.67313  1.0000
  H   H7253     1.0  0.77908  0.05403  0.61153  1.0000
  H   H7254     1.0  0.85743  0.01498  0.63613  1.0000
  H   H7255     1.0  0.84567  0.13127  0.48572  1.0000
  H   H7256     1.0  0.88529  0.08287  0.49367  1.0000
  H   H7257     1.0  0.91650  0.07630  0.51359  1.0000
  C   C4223     1.0  0.79098  0.08121  0.58326  1.0000
  H   H7258     1.0  0.97022  0.21982  0.73478  1.0000
  H   H7259     1.0  0.84443  0.00040  0.62942  1.0000
  H   H7260     1.0  0.79919  0.08793  0.57965  1.0000
  C   C4224     1.0  0.78092  0.08299  0.57443  1.0000
  H   H7261     1.0  0.76821  0.10377  0.61359  1.0000
  H   H7262     1.0  0.95699  0.21617  0.71773  1.0000
  S   S1221     1.0  0.99077  0.07662  0.63068  1.0000
  H   H7263     1.0  0.83311  0.04739  0.61288  1.0000
  C   C4225     1.0  0.77962  0.06211  0.60116  1.0000
  H   H7264     1.0  0.77721  0.10113  0.49827  1.0000
  N   N302      1.0  0.94576  0.01212  0.59224  1.0000
  H   H7265     1.0  0.75576  0.07724  0.53639  1.0000
  C   C4226     1.0  0.93557  0.02650  0.59540  1.0000
  H   H7266     1.0  0.87876  0.21618  0.56054  1.0000
  C   C4227     1.0  0.95733  0.01420  0.57799  1.0000
  H   H7267     1.0  0.75333  0.01752  0.68707  1.0000
  C   C4228     1.0  0.75358  0.20566  0.96791  1.0000
  H   H7268     1.0  0.90804  0.21070  0.53083  1.0000
  C   C4229     1.0  0.96567  0.02679  0.57487  1.0000
  H   H7269     1.0  0.96042  0.22918  0.60486  1.0000
  H   H7270     1.0  0.82953  0.02783  0.52843  1.0000
  H   H7271     1.0  0.94123  0.03328  0.59861  1.0000
  H   H7272     1.0  0.92647  0.02426  0.60527  1.0000
  H   H7273     1.0  0.75342  0.99134  0.72048  1.0000
  C   C4230     1.0  0.99133  0.18653  0.72836  1.0000
  H   H7274     1.0  0.96603  0.00379  0.57740  1.0000
  C   C4231     1.0  0.76662  0.09890  0.49764  1.0000
  H   H7275     1.0  0.92782  0.20574  0.52497  1.0000
  C   C4232     1.0  0.93874  0.19728  0.49127  1.0000
  C   C4233     1.0  0.76203  0.05305  0.52586  1.0000
  H   H7276     1.0  0.83652  0.19645  0.59047  1.0000
  C   C4234     1.0  0.77705  0.05545  0.47870  1.0000
  C   C4235     1.0  0.95293  0.00396  0.60516  1.0000
  H   H7277     1.0  0.79468  0.08625  0.53842  1.0000
  H   H7278     1.0  0.79481  0.00366  0.48036  1.0000
  H   H7279     1.0  0.92063  0.03158  0.57984  1.0000
  H   H7280     1.0  0.97792  0.02216  0.57323  1.0000
  H   H7281     1.0  0.96259  0.03312  0.58359  1.0000
  H   H7282     1.0  0.96384  0.03479  0.56441  1.0000
  H   H7283     1.0  0.93594  0.21036  0.59562  1.0000
  H   H7284     1.0  0.95553  0.19177  0.60028  1.0000
  H   H7285     1.0  0.99265  0.08921  0.69639  1.0000
  H   H7286     1.0  0.97985  0.15316  0.48020  1.0000
  C   C4236     1.0  0.76507  0.04833  0.48381  1.0000
  C   C4237     1.0  0.85492  0.02454  0.62687  1.0000
  C   C4238     1.0  0.92074  0.22031  0.54040  1.0000
  H   H7287     1.0  0.91198  0.22503  0.56758  1.0000
  H   H7288     1.0  0.97815  0.19923  0.59753  1.0000
  H   H7289     1.0  0.81587  0.16415  0.53212  1.0000
  C   C4239     1.0  0.90376  0.06121  0.51381  1.0000
  H   H7290     1.0  0.90411  0.05526  0.52536  1.0000
  H   H7291     1.0  0.93869  0.11552  0.58779  1.0000
  H   H7292     1.0  0.98113  0.20628  0.61137  1.0000
  H   H7293     1.0  0.78592  0.04024  0.57240  1.0000
  H   H7294     1.0  0.84360  0.15623  0.61916  1.0000
  C   C4240     1.0  0.87766  0.09145  0.49948  1.0000
  H   H7295     1.0  0.78578  0.06560  0.53628  1.0000
  S   S1222     1.0  0.81684  0.10520  0.58393  1.0000
  H   H7296     1.0  0.82568  0.17879  0.63790  1.0000
  C   C4241     1.0  0.79413  0.03616  0.54965  1.0000
  C   C4242     1.0  0.96677  0.20804  0.72044  1.0000
  S   S1223     1.0  0.77488  0.21663  0.97265  1.0000
  C   C4243     1.0  0.86615  0.16597  0.62958  1.0000
  H   H7297     1.0  0.81304  0.14047  0.57637  1.0000
  C   C4244     1.0  0.98436  0.18483  0.71813  1.0000
  C   C4245     1.0  0.90572  0.07721  0.51076  1.0000
  C   C4246     1.0  0.83208  0.13936  0.52114  1.0000
  H   H7298     1.0  0.97659  0.18441  0.63135  1.0000
  C   C4247     1.0  0.87838  0.08808  0.51587  1.0000
  H   H7299     1.0  0.84665  0.13600  0.56807  1.0000
  C   C4248     1.0  0.83079  0.17713  0.62648  1.0000
  C   C4249     1.0  0.78181  0.03842  0.56360  1.0000
  H   H7300     1.0  0.83644  0.15411  0.63877  1.0000
  C   C4250     1.0  0.81597  0.14926  0.56653  1.0000
  C   C4251     1.0  0.93668  0.20871  0.60727  1.0000
  C   C4252     1.0  0.97623  0.12178  0.64709  1.0000
  H   H7301     1.0  0.94844  0.21817  0.62546  1.0000
  H   H7302     1.0  0.80466  0.02617  0.64445  1.0000
  C   C4253     1.0  0.96358  0.01129  0.60865  1.0000
  C   C4254     1.0  0.85185  0.18180  0.60465  1.0000
  H   H7303     1.0  0.84237  0.16203  0.55346  1.0000
  C   C4255     1.0  0.85444  0.13933  0.55748  1.0000
  H   H7304     1.0  0.84819  0.18017  0.64149  1.0000
  H   H7305     1.0  0.84410  0.17725  0.52393  1.0000
  H   H7306     1.0  0.97401  0.01142  0.59999  1.0000
  H   H7307     1.0  0.96136  0.17650  0.63290  1.0000
  H   H7308     1.0  0.86487  0.02338  0.61762  1.0000
  C   C4256     1.0  0.82966  0.03503  0.59904  1.0000
  H   H7309     1.0  0.80556  0.15726  0.56422  1.0000
  H   H7310     1.0  0.84966  0.03848  0.60198  1.0000
  S   S1224     1.0  0.85307  0.98592  0.65638  1.0000
  H   H7311     1.0  0.93528  0.20827  0.49421  1.0000
  N   N303      1.0  0.84107  0.02424  0.62242  1.0000
  H   H7312     1.0  0.76161  0.05681  0.59556  1.0000
  H   H7313     1.0  0.95948  0.22121  0.59026  1.0000
  C   C4257     1.0  0.85494  0.14322  0.59368  1.0000
  H   H7314     1.0  0.82597  0.14985  0.51522  1.0000
  N   N304      1.0  0.83484  0.15059  0.54134  1.0000
  H   H7315     1.0  0.82405  0.13262  0.52839  1.0000
  H   H7316     1.0  0.97344  0.17185  0.60648  1.0000
  H   H7317     1.0  0.98832  0.17504  0.71356  1.0000
  H   H7318     1.0  0.95656  0.22909  0.66038  1.0000
  H   H7319     1.0  0.86946  0.09666  0.52088  1.0000
  C   C4258     1.0  0.88415  0.05195  0.48181  1.0000
  C   C4259     1.0  0.94184  0.20002  0.64238  1.0000
  C   C4260     1.0  0.82446  0.14207  0.55326  1.0000
  C   C4261     1.0  0.97805  0.21815  0.64956  1.0000
  C   C4262     1.0  0.79022  0.07094  0.59677  1.0000
  H   H7320     1.0  0.96753  0.12753  0.68191  1.0000
  Fe  Fe609     1.0  0.86009  0.15642  0.48422  1.0000
  H   H7321     1.0  0.94564  0.18990  0.49907  1.0000
  C   C4263     1.0  0.97359  0.12918  0.65840  1.0000
  N   N305      1.0  0.89323  0.08763  0.51873  1.0000
  Fe  Fe610     1.0  0.80871  0.06395  0.48042  1.0000
  C   C4264     1.0  0.89638  0.10293  0.51313  1.0000
  H   H7322     1.0  0.75240  0.06103  0.50704  1.0000
  C   C4265     1.0  0.89246  0.08234  0.53509  1.0000
  C   C4266     1.0  0.82739  0.12468  0.48219  1.0000
  C   C4267     1.0  0.90958  0.10535  0.51772  1.0000
  H   H7323     1.0  0.91417  0.11315  0.60230  1.0000
  C   C4268     1.0  0.88050  0.09199  0.54507  1.0000
  S   S1225     1.0  0.96283  0.19333  0.70178  1.0000
  H   H7324     1.0  0.97560  0.10198  0.64153  1.0000
  H   H7325     1.0  0.86368  0.14214  0.56025  1.0000
  H   H7326     1.0  0.83024  0.13049  0.55738  1.0000
  H   H7327     1.0  0.78819  0.03554  0.54150  1.0000
  C   C4269     1.0  0.83742  0.20132  0.61748  1.0000
  H   H7328     1.0  0.88979  0.07118  0.53908  1.0000
  H   H7329     1.0  0.90351  0.08054  0.53778  1.0000
  C   C4270     1.0  0.75761  0.21841  0.96839  1.0000
  H   H7330     1.0  0.83373  0.00789  0.61601  1.0000
  C   C4271     1.0  0.97422  0.21010  0.73011  1.0000
  H   H7331     1.0  0.90717  0.10472  0.52976  1.0000
  H   H7332     1.0  0.92021  0.09757  0.51431  1.0000
  H   H7333     1.0  0.80852  0.03536  0.62557  1.0000
  H   H7334     1.0  0.82145  0.18228  0.62062  1.0000
  H   H7335     1.0  0.86976  0.08834  0.54839  1.0000
  H   H7336     1.0  0.94455  0.18621  0.61801  1.0000
  H   H7337     1.0  0.88441  0.09103  0.55516  1.0000
  H   H7338     1.0  0.82444  0.15714  0.62629  1.0000
  H   H7339     1.0  0.93745  0.21943  0.60860  1.0000
  N   N306      1.0  0.92775  0.13056  0.64788  1.0000
  C   C4272     1.0  0.93545  0.14345  0.64246  1.0000
  C   C4273     1.0  0.93449  0.12073  0.63691  1.0000
  C   C4274     1.0  0.93100  0.12246  0.66286  1.0000
  C   C4275     1.0  0.91123  0.13667  0.64891  1.0000
  C   C4276     1.0  0.93180  0.15409  0.65292  1.0000
  C   C4277     1.0  0.93042  0.12706  0.62166  1.0000
  C   C4278     1.0  0.92881  0.10644  0.66873  1.0000
  C   C4279     1.0  0.90133  0.12546  0.65200  1.0000
  H   H7340     1.0  0.94780  0.13940  0.64023  1.0000
  H   H7341     1.0  0.93285  0.15045  0.63183  1.0000
  H   H7342     1.0  0.93123  0.10992  0.64093  1.0000
  H   H7343     1.0  0.94691  0.11780  0.63521  1.0000
  H   H7344     1.0  0.94283  0.12180  0.66284  1.0000
  H   H7345     1.0  0.92410  0.12869  0.67147  1.0000
  H   H7346     1.0  0.90645  0.14299  0.65779  1.0000
  H   H7347     1.0  0.90908  0.14506  0.63872  1.0000
  H   H7348     1.0  0.91977  0.15942  0.65539  1.0000
  H   H7349     1.0  0.93573  0.14856  0.66331  1.0000
  H   H7350     1.0  0.93795  0.16310  0.64740  1.0000
  H   H7351     1.0  0.93716  0.11960  0.61414  1.0000
  H   H7352     1.0  0.91849  0.12768  0.62238  1.0000
  H   H7353     1.0  0.93283  0.13810  0.61636  1.0000
  H   H7354     1.0  0.91737  0.10543  0.66956  1.0000
  H   H7355     1.0  0.93094  0.10242  0.68007  1.0000
  H   H7356     1.0  0.93708  0.09878  0.66216  1.0000
  H   H7357     1.0  0.89603  0.12277  0.66394  1.0000
  H   H7358     1.0  0.90723  0.11507  0.64835  1.0000
  H   H7359     1.0  0.89231  0.13039  0.64573  1.0000
  N   N307      1.0  0.96092  0.19796  0.61770  1.0000
  C   C4280     1.0  0.96926  0.18306  0.62486  1.0000
  C   C4281     1.0  0.95375  0.20656  0.62970  1.0000
  C   C4282     1.0  0.97230  0.20564  0.60622  1.0000
  C   C4283     1.0  0.94976  0.19549  0.61076  1.0000
  C   C4284     1.0  0.97928  0.17293  0.61439  1.0000
  H   H7360     1.0  0.83791  0.16999  0.51185  1.0000
  H   H7361     1.0  0.99346  0.10532  0.71162  1.0000
  H   H7362     1.0  0.81560  0.14061  0.54877  1.0000
  C   C4285     1.0  0.83421  0.16026  0.62775  1.0000
  H   H7363     1.0  0.80687  0.16589  0.47953  1.0000
  H   H7364     1.0  0.78760  0.06398  0.55421  1.0000
  H   H7365     1.0  0.87828  0.10395  0.53994  1.0000
  H   H7366     1.0  0.82107  0.17216  0.54373  1.0000
  H   H7367     1.0  0.97950  0.12740  0.63574  1.0000
  H   H7368     1.0  0.93653  0.20796  0.64974  1.0000
  H   H7369     1.0  0.86044  0.18860  0.59956  1.0000
  H   H7370     1.0  0.77707  0.02837  0.56828  1.0000
  C   C4286     1.0  0.85463  0.03869  0.63154  1.0000
  C   C4287     1.0  0.85440  0.18065  0.62981  1.0000
  S   S1226     1.0  0.75214  0.99359  0.65783  1.0000
  C   C4288     1.0  0.84211  0.18464  0.59342  1.0000
  H   H7371     1.0  0.82859  0.20490  0.61099  1.0000
  H   H7372     1.0  0.83377  0.17758  0.59735  1.0000
  H   H7373     1.0  0.77356  0.05437  0.52031  1.0000
  H   H7374     1.0  0.92304  0.16990  0.48430  1.0000
  H   H7375     1.0  0.92151  0.21064  0.54989  1.0000
  H   H7376     1.0  0.75050  0.08581  0.48498  1.0000
  C   C4289     1.0  0.89361  0.23105  0.54809  1.0000
  C   C4290     1.0  0.96472  0.22886  0.65004  1.0000
  H   H7377     1.0  0.98745  0.21514  0.68954  1.0000
  C   C4291     1.0  0.81263  0.15440  0.48032  1.0000
  H   H7378     1.0  0.75086  0.99260  0.69181  1.0000
  H   H7379     1.0  0.75651  0.03790  0.94200  1.0000
  H   H7380     1.0  0.75691  0.10309  0.52611  1.0000
  C   C4292     1.0  0.94363  0.98705  0.58873  1.0000
  H   H7381     1.0  0.99374  0.22738  0.61297  1.0000
  H   H7382     1.0  0.96443  0.22623  0.68983  1.0000
  S   S1227     1.0  0.92698  0.98478  0.65041  1.0000
  H   H7383     1.0  0.87396  0.05889  0.47802  1.0000
  H   H7384     1.0  0.75054  0.05479  0.92994  1.0000
  H   H7385     1.0  0.89137  0.21700  0.57064  1.0000
  H   H7386     1.0  0.89067  0.23105  0.53772  1.0000
  H   H7387     1.0  0.99473  0.11436  0.68709  1.0000
  H   H7388     1.0  0.78504  0.02230  0.47978  1.0000
  C   C4293     1.0  0.93531  0.16797  0.48307  1.0000
  H   H7389     1.0  0.94417  0.00176  0.61540  1.0000
  H   H7390     1.0  0.75753  0.10780  0.50157  1.0000
  H   H7391     1.0  0.95982  0.99295  0.60349  1.0000
  C   C4294     1.0  0.93350  0.09488  0.47958  1.0000
  H   H7392     1.0  0.91847  0.11617  0.47882  1.0000
  N   N308      1.0  0.75039  0.08042  0.51517  1.0000
  H   H7393     1.0  0.93649  0.23155  0.55387  1.0000
  C   C4295     1.0  0.75032  0.06426  0.51768  1.0000
  C   C4296     1.0  0.75028  0.09812  0.60797  1.0000
  H   H7394     1.0  0.74843  0.10977  0.60155  1.0000
  H   H7395     1.0  0.74732  0.07013  0.61700  1.0000
  H   H7396     1.0  0.98415  0.23273  0.66594  1.0000
  C   C4297     1.0  0.81307  0.12946  0.47917  1.0000
  S   S1228     1.0  0.95348  0.06840  0.47874  1.0000
  C   C4298     1.0  0.80569  0.14429  0.47840  1.0000
  H   H7397     1.0  0.74674  0.01299  0.70658  1.0000
  C   C4299     1.0  0.74591  0.10000  0.53061  1.0000
  C   C4300     1.0  0.74640  0.04647  0.93970  1.0000
  C   C4301     1.0  0.74578  0.98970  0.63341  1.0000
  N   N309      1.0  0.90922  0.23344  0.54503  1.0000
  C   C4302     1.0  0.74513  0.99973  0.64169  1.0000
  H   H7398     1.0  0.97335  0.18092  0.47803  1.0000
  C   C4303     1.0  0.96499  0.17500  0.47769  1.0000
  H   H7399     1.0  0.76487  0.33497  0.11229  1.0000
  H   H7400     1.0  0.89101  0.43298  0.34089  1.0000
  H   H7401     1.0  0.88523  0.38788  0.20591  1.0000
  H   H7402     1.0  0.89356  0.26706  0.07400  1.0000
  C   C4304     1.0  0.76739  0.33324  0.14384  1.0000
  H   H7403     1.0  0.90448  0.23393  0.10436  1.0000
  C   C4305     1.0  0.89664  0.42150  0.31170  1.0000
  H   H7404     1.0  0.87568  0.35427  0.16463  1.0000
  H   H7405     1.0  0.85413  0.41279  0.25984  1.0000
  H   H7406     1.0  0.94110  0.24004  0.05797  1.0000
  Fe  Fe611     1.0  0.83315  0.46561  0.20817  1.0000
  S   S1229     1.0  0.85433  0.46192  0.19109  1.0000
  S   S1230     1.0  0.83653  0.45976  0.23144  1.0000
  H   H7407     1.0  0.92245  0.34377  0.43024  1.0000
  H   H7408     1.0  0.94019  0.46875  0.08010  1.0000
  Fe  Fe612     1.0  0.84168  0.45150  0.18201  1.0000
  S   S1231     1.0  0.85245  0.42969  0.17566  1.0000
  C   C4306     1.0  0.91520  0.34671  0.44065  1.0000
  C   C4307     1.0  0.91424  0.29462  0.04668  1.0000
  H   H7409     1.0  0.77802  0.32690  0.16307  1.0000
  Fe  Fe613     1.0  0.87186  0.36355  0.25921  1.0000
  S   S1232     1.0  0.89231  0.36802  0.24209  1.0000
  S   S1233     1.0  0.85032  0.36538  0.25282  1.0000
  Fe  Fe614     1.0  0.88632  0.36055  0.28472  1.0000
  S   S1234     1.0  0.90786  0.36489  0.26960  1.0000
  S   S1235     1.0  0.88354  0.35514  0.30944  1.0000
  Fe  Fe615     1.0  0.89336  0.38264  0.25599  1.0000
  S   S1236     1.0  0.89682  0.40554  0.24469  1.0000
  Fe  Fe616     1.0  0.90485  0.34984  0.25730  1.0000
  S   S1237     1.0  0.92494  0.33213  0.25118  1.0000
  S   S1238     1.0  0.87192  0.37963  0.27212  1.0000
  S   S1239     1.0  0.88425  0.34402  0.27343  1.0000
  Fe  Fe617     1.0  0.97692  0.27382  0.33263  1.0000
  S   S1240     1.0  0.97443  0.26846  0.31247  1.0000
  S   S1241     1.0  0.95774  0.27955  0.35110  1.0000
  H   H7410     1.0  0.93547  0.25656  0.06520  1.0000
  S   S1242     1.0  0.87772  0.28793  0.98487  1.0000
  H   H7411     1.0  0.91834  0.26805  0.26696  1.0000
  H   H7412     1.0  0.76486  0.23789  0.04079  1.0000
  H   H7413     1.0  0.96965  0.24424  0.44785  1.0000
  C   C4308     1.0  0.76051  0.27689  0.06638  1.0000
  H   H7414     1.0  0.92975  0.25329  0.38934  1.0000
  H   H7415     1.0  0.87742  0.24688  0.13094  1.0000
  H   H7416     1.0  0.92835  0.28277  0.39195  1.0000
  H   H7417     1.0  0.85201  0.26688  0.03767  1.0000
  C   C4309     1.0  0.83085  0.40961  0.21448  1.0000
  H   H7418     1.0  0.92492  0.44367  0.08808  1.0000
  Fe  Fe618     1.0  0.94805  0.34950  0.37287  1.0000
  S   S1243     1.0  0.92695  0.34716  0.36872  1.0000
  S   S1244     1.0  0.96961  0.33273  0.36807  1.0000
  Fe  Fe619     1.0  0.93267  0.37778  0.38418  1.0000
  S   S1245     1.0  0.91039  0.37698  0.38148  1.0000
  S   S1246     1.0  0.93229  0.39642  0.39417  1.0000
  Fe  Fe620     1.0  0.91671  0.35262  0.39101  1.0000
  S   S1247     1.0  0.90202  0.33929  0.40929  1.0000
  Fe  Fe621     1.0  0.92310  0.37162  0.35960  1.0000
  S   S1248     1.0  0.91774  0.38388  0.33746  1.0000
  S   S1249     1.0  0.93800  0.35382  0.39557  1.0000
  S   S1250     1.0  0.94515  0.37365  0.36185  1.0000
  Fe  Fe622     1.0  0.80979  0.38058  0.16823  1.0000
  S   S1251     1.0  0.80884  0.37228  0.19248  1.0000
  S   S1252     1.0  0.80590  0.40514  0.15921  1.0000
  Fe  Fe623     1.0  0.81605  0.34979  0.16288  1.0000
  S   S1253     1.0  0.81619  0.33887  0.18656  1.0000
  S   S1254     1.0  0.81912  0.33499  0.14756  1.0000
  Fe  Fe624     1.0  0.79582  0.35678  0.19100  1.0000
  H   H7419     1.0  0.76568  0.31209  0.97791  1.0000
  Fe  Fe625     1.0  0.82933  0.35528  0.18561  1.0000
  S   S1255     1.0  0.85113  0.34922  0.19324  1.0000
  S   S1256     1.0  0.79484  0.36673  0.16739  1.0000
  S   S1257     1.0  0.83106  0.36458  0.16125  1.0000
  Fe  Fe626     1.0  0.88665  0.32750  0.09390  1.0000
  S   S1258     1.0  0.86948  0.34875  0.09125  1.0000
  S   S1259     1.0  0.92373  0.29964  0.05717  1.0000
  S   S1260     1.0  0.91095  0.32681  0.08460  1.0000
  C   C4310     1.0  0.75853  0.39234  0.20092  1.0000
  H   H7420     1.0  0.83576  0.28741  0.00454  1.0000
  Fe  Fe627     1.0  0.98133  0.32703  0.18451  1.0000
  S   S1261     1.0  0.97195  0.30669  0.19486  1.0000
  S   S1262     1.0  0.96600  0.34860  0.18829  1.0000
  C   C4311     1.0  0.80340  0.24243  0.02941  1.0000
  H   H7421     1.0  0.78319  0.46423  0.00187  1.0000
  Fe  Fe628     1.0  0.98180  0.30117  0.17258  1.0000
  S   S1263     1.0  0.96821  0.29059  0.16415  1.0000
  C   C4312     1.0  0.91953  0.30839  0.46743  1.0000
  S   S1264     1.0  0.98998  0.32219  0.16185  1.0000
  C   C4313     1.0  0.93819  0.31378  0.13070  1.0000
  C   C4314     1.0  0.94587  0.32191  0.13485  1.0000
  C   C4315     1.0  0.95541  0.31492  0.14477  1.0000
  C   C4316     1.0  0.95720  0.29972  0.15081  1.0000
  C   C4317     1.0  0.94944  0.29161  0.14674  1.0000
  C   C4318     1.0  0.94002  0.29857  0.13669  1.0000
  H   H7422     1.0  0.94460  0.33366  0.13021  1.0000
  H   H7423     1.0  0.96144  0.32125  0.14767  1.0000
  H   H7424     1.0  0.95072  0.27985  0.15139  1.0000
  H   H7425     1.0  0.88807  0.33639  0.15391  1.0000
  C   C4319     1.0  0.83211  0.33954  0.13119  1.0000
  C   C4320     1.0  0.83443  0.35395  0.12571  1.0000
  C   C4321     1.0  0.84532  0.35711  0.11278  1.0000
  C   C4322     1.0  0.85417  0.34571  0.10574  1.0000
  C   C4323     1.0  0.85164  0.33141  0.11115  1.0000
  C   C4324     1.0  0.84042  0.32843  0.12368  1.0000
  H   H7426     1.0  0.82786  0.36264  0.13140  1.0000
  H   H7427     1.0  0.84732  0.36818  0.10860  1.0000
  H   H7428     1.0  0.85844  0.32258  0.10576  1.0000
  H   H7429     1.0  0.83860  0.31739  0.12784  1.0000
  H   H7430     1.0  0.89638  0.45989  0.08266  1.0000
  H   H7431     1.0  0.90250  0.27327  0.09213  1.0000
  H   H7432     1.0  0.97436  0.24824  0.39329  1.0000
  H   H7433     1.0  0.78518  0.37110  0.12143  1.0000
  S   S1265     1.0  0.78981  0.27193  0.13013  1.0000
  C   C4325     1.0  0.90072  0.46708  0.07213  1.0000
  C   C4326     1.0  0.77704  0.47840  0.18410  1.0000
  H   H7434     1.0  0.89589  0.33744  0.02437  1.0000
  N   N310      1.0  0.92477  0.32228  0.45847  1.0000
  N   N311      1.0  0.90844  0.24564  0.07275  1.0000
  C   C4327     1.0  0.95433  0.39357  0.23245  1.0000
  H   H7435     1.0  0.78936  0.47984  0.00237  1.0000
  H   H7436     1.0  0.85033  0.23582  0.03830  1.0000
  S   S1266     1.0  0.77028  0.24164  0.99871  1.0000
  H   H7437     1.0  0.78067  0.44161  0.15705  1.0000
  H   H7438     1.0  0.98988  0.30826  0.35631  1.0000
  C   C4328     1.0  0.96155  0.29236  0.35850  1.0000
  C   C4329     1.0  0.97611  0.29441  0.35554  1.0000
  C   C4330     1.0  0.97870  0.30640  0.35920  1.0000
  C   C4331     1.0  0.96677  0.31622  0.36604  1.0000
  C   C4332     1.0  0.95252  0.31314  0.37038  1.0000
  C   C4333     1.0  0.94985  0.30133  0.36650  1.0000
  H   H7439     1.0  0.98535  0.28692  0.35023  1.0000
  H   H7440     1.0  0.77327  0.25600  0.04818  1.0000
  H   H7441     1.0  0.94347  0.31996  0.37655  1.0000
  H   H7442     1.0  0.93863  0.29954  0.36923  1.0000
  C   C4334     1.0  0.75744  0.30321  0.11256  1.0000
  H   H7443     1.0  0.89839  0.35992  0.19502  1.0000
  C   C4335     1.0  0.80217  0.23789  0.04466  1.0000
  H   H7444     1.0  0.87558  0.23725  0.03493  1.0000
  H   H7445     1.0  0.77135  0.35816  0.14603  1.0000
  H   H7446     1.0  0.91566  0.30351  0.46038  1.0000
  H   H7447     1.0  0.94333  0.31448  0.18544  1.0000
  H   H7448     1.0  0.77018  0.38560  0.19998  1.0000
  C   C4336     1.0  0.89541  0.46509  0.18553  1.0000
  H   H7449     1.0  0.85065  0.42768  0.24455  1.0000
  C   C4337     1.0  0.85082  0.36083  0.23622  1.0000
  C   C4338     1.0  0.83752  0.36413  0.23132  1.0000
  C   C4339     1.0  0.83749  0.36071  0.21812  1.0000
  C   C4340     1.0  0.85078  0.35390  0.20975  1.0000
  C   C4341     1.0  0.86411  0.35065  0.21462  1.0000
  C   C4342     1.0  0.86417  0.35416  0.22778  1.0000
  H   H7450     1.0  0.82715  0.36926  0.23781  1.0000
  H   H7451     1.0  0.82715  0.36315  0.21457  1.0000
  H   H7452     1.0  0.87434  0.34520  0.20830  1.0000
  H   H7453     1.0  0.87445  0.35150  0.23152  1.0000
  C   C4343     1.0  0.89315  0.36325  0.31698  1.0000
  C   C4344     1.0  0.89226  0.35933  0.33226  1.0000
  C   C4345     1.0  0.90007  0.36534  0.33861  1.0000
  C   C4346     1.0  0.90855  0.37556  0.32971  1.0000
  C   C4347     1.0  0.90942  0.37956  0.31443  1.0000
  C   C4348     1.0  0.90174  0.37341  0.30806  1.0000
  H   H7454     1.0  0.88554  0.35154  0.33921  1.0000
  H   H7455     1.0  0.89928  0.36229  0.35042  1.0000
  H   H7456     1.0  0.91595  0.38752  0.30753  1.0000
  H   H7457     1.0  0.90233  0.37664  0.29630  1.0000
  C   C4349     1.0  0.93635  0.33736  0.23384  1.0000
  C   C4350     1.0  0.95097  0.32915  0.23051  1.0000
  C   C4351     1.0  0.96011  0.33277  0.21653  1.0000
  C   C4352     1.0  0.95472  0.34469  0.20589  1.0000
  C   C4353     1.0  0.94021  0.35313  0.20925  1.0000
  C   C4354     1.0  0.93100  0.34942  0.22324  1.0000
  H   H7458     1.0  0.95530  0.32005  0.23873  1.0000
  H   H7459     1.0  0.97140  0.32639  0.21399  1.0000
  H   H7460     1.0  0.93600  0.36227  0.20094  1.0000
  H   H7461     1.0  0.91970  0.35570  0.22566  1.0000
  H   H7462     1.0  0.91587  0.48132  0.06254  1.0000
  C   C4355     1.0  0.93999  0.41156  0.38312  1.0000
  C   C4356     1.0  0.94934  0.41108  0.36916  1.0000
  C   C4357     1.0  0.87064  0.48260  0.23580  1.0000
  H   H7463     1.0  0.95206  0.40119  0.36491  1.0000
  C   C4358     1.0  0.91870  0.42668  0.26730  1.0000
  C   C4359     1.0  0.91177  0.43521  0.25576  1.0000
  C   C4360     1.0  0.90522  0.42858  0.24877  1.0000
  C   C4361     1.0  0.90522  0.41349  0.25356  1.0000
  C   C4362     1.0  0.91189  0.40500  0.26530  1.0000
  C   C4363     1.0  0.91886  0.41153  0.27201  1.0000
  H   H7464     1.0  0.91153  0.44694  0.25214  1.0000
  H   H7465     1.0  0.89991  0.43523  0.23981  1.0000
  H   H7466     1.0  0.91156  0.39347  0.26931  1.0000
  H   H7467     1.0  0.92399  0.40498  0.28111  1.0000
  H   H7468     1.0  0.85651  0.45159  0.25128  1.0000
  C   C4364     1.0  0.83933  0.42292  0.17136  1.0000
  C   C4365     1.0  0.82605  0.43240  0.16808  1.0000
  C   C4366     1.0  0.81581  0.42693  0.16427  1.0000
  C   C4367     1.0  0.81868  0.41194  0.16406  1.0000
  C   C4368     1.0  0.83175  0.40240  0.16780  1.0000
  C   C4369     1.0  0.84215  0.40792  0.17126  1.0000
  H   H7469     1.0  0.82374  0.44397  0.16831  1.0000
  H   H7470     1.0  0.80561  0.43427  0.16170  1.0000
  H   H7471     1.0  0.83396  0.39079  0.16788  1.0000
  H   H7472     1.0  0.85231  0.40052  0.17399  1.0000
  H   H7473     1.0  0.93546  0.26501  0.25364  1.0000
  H   H7474     1.0  0.92663  0.41448  0.35062  1.0000
  H   H7475     1.0  0.88083  0.46047  0.35333  1.0000
  H   H7476     1.0  0.74800  0.23435  0.13063  1.0000
  H   H7477     1.0  0.86338  0.40217  0.29352  1.0000
  C   C4370     1.0  0.92171  0.29197  0.03260  1.0000
  C   C4371     1.0  0.91449  0.28766  0.02414  1.0000
  H   H7478     1.0  0.93316  0.29319  0.02826  1.0000
  H   H7479     1.0  0.92039  0.28551  0.01337  1.0000
  C   C4372     1.0  0.96411  0.25657  0.39082  1.0000
  H   H7480     1.0  0.88094  0.28716  0.04829  1.0000
  H   H7481     1.0  0.87197  0.35438  0.12010  1.0000
  H   H7482     1.0  0.86614  0.33506  0.13648  1.0000
  H   H7483     1.0  0.76196  0.27517  0.01757  1.0000
  H   H7484     1.0  0.75459  0.39169  0.21303  1.0000
  H   H7485     1.0  0.85126  0.26662  0.14304  1.0000
  H   H7486     1.0  0.91067  0.41495  0.37343  1.0000
  N   N312      1.0  0.95095  0.24928  0.39543  1.0000
  C   C4373     1.0  0.94778  0.24331  0.41193  1.0000
  H   H7487     1.0  0.77588  0.28157  0.04560  1.0000
  H   H7488     1.0  0.95807  0.37428  0.21339  1.0000
  C   C4374     1.0  0.75975  0.34587  0.11513  1.0000
  H   H7489     1.0  0.80061  0.24449  0.06454  1.0000
  H   H7490     1.0  0.75221  0.41865  0.16198  1.0000
  H   H7491     1.0  0.94630  0.25180  0.41818  1.0000
  H   H7492     1.0  0.89058  0.35279  0.00230  1.0000
  H   H7493     1.0  0.75955  0.41486  0.21158  1.0000
  H   H7494     1.0  0.96653  0.26112  0.37871  1.0000
  Fe  Fe629     1.0  0.89746  0.28174  0.99535  1.0000
  C   C4375     1.0  0.86714  0.35665  0.01097  1.0000
  H   H7495     1.0  0.80973  0.44799  0.98278  1.0000
  H   H7496     1.0  0.75647  0.35364  0.10508  1.0000
  H   H7497     1.0  0.85790  0.35081  0.01603  1.0000
  H   H7498     1.0  0.89233  0.25376  0.09085  1.0000
  C   C4376     1.0  0.95681  0.40202  0.21608  1.0000
  H   H7499     1.0  0.98187  0.35817  0.23138  1.0000
  H   H7500     1.0  0.93143  0.27090  0.40907  1.0000
  C   C4377     1.0  0.91005  0.26506  0.08576  1.0000
  C   C4378     1.0  0.93879  0.33731  0.17366  1.0000
  H   H7501     1.0  0.93404  0.33945  0.46053  1.0000
  H   H7502     1.0  0.89291  0.25428  0.04881  1.0000
  C   C4379     1.0  0.85861  0.41626  0.30956  1.0000
  Fe  Fe630     1.0  0.95500  0.24061  0.47640  1.0000
  H   H7503     1.0  0.84755  0.30078  0.15758  1.0000
  H   H7504     1.0  0.87570  0.47505  0.16012  1.0000
  H   H7505     1.0  0.87917  0.25924  0.06489  1.0000
  H   H7506     1.0  0.90092  0.32012  0.18886  1.0000
  S   S1267     1.0  0.90963  0.29777  0.97797  1.0000
  N   N313      1.0  0.85333  0.40921  0.22492  1.0000
  C   C4380     1.0  0.92539  0.44762  0.09763  1.0000
  H   H7507     1.0  0.91523  0.46551  0.10903  1.0000
  H   H7508     1.0  0.91329  0.34026  0.99427  1.0000
  H   H7509     1.0  0.84464  0.43288  0.22098  1.0000
  C   C4381     1.0  0.79215  0.47738  0.98008  1.0000
  C   C4382     1.0  0.76595  0.45755  0.19826  1.0000
  Fe  Fe631     1.0  0.76926  0.26513  0.98634  1.0000
  H   H7510     1.0  0.78324  0.31302  0.15209  1.0000
  H   H7511     1.0  0.87460  0.43322  0.20447  1.0000
  H   H7512     1.0  0.98148  0.37704  0.22090  1.0000
  C   C4383     1.0  0.88151  0.34724  0.00322  1.0000
  C   C4384     1.0  0.76356  0.28288  0.04945  1.0000
  H   H7513     1.0  0.88095  0.34888  0.99149  1.0000
  C   C4385     1.0  0.99245  0.29520  0.26327  1.0000
  Fe  Fe632     1.0  0.99442  0.25007  0.31595  1.0000
  C   C4386     1.0  0.89829  0.48242  0.33998  1.0000
  H   H7514     1.0  0.91772  0.32473  0.00928  1.0000
  H   H7515     1.0  0.97818  0.25934  0.28388  1.0000
  H   H7516     1.0  0.89990  0.46571  0.17354  1.0000
  H   H7517     1.0  0.93490  0.37490  0.26740  1.0000
  H   H7518     1.0  0.94316  0.32819  0.44051  1.0000
  C   C4387     1.0  0.74993  0.38362  0.19635  1.0000
  H   H7519     1.0  0.88504  0.39629  0.22014  1.0000
  H   H7520     1.0  0.96450  0.39304  0.23625  1.0000
  H   H7521     1.0  0.92868  0.29952  0.47140  1.0000
  H   H7522     1.0  0.86303  0.32719  0.02045  1.0000
  H   H7523     1.0  0.86374  0.23918  0.99918  1.0000
  H   H7524     1.0  0.93721  0.34811  0.17651  1.0000
  H   H7525     1.0  0.78802  0.45936  0.19812  1.0000
  H   H7526     1.0  0.95059  0.33424  0.16770  1.0000
  S   S1268     1.0  0.93901  0.24062  0.46336  1.0000
  C   C4388     1.0  0.93408  0.23618  0.41842  1.0000
  H   H7527     1.0  0.85172  0.28265  0.01229  1.0000
  H   H7528     1.0  0.93213  0.33841  0.16560  1.0000
  H   H7529     1.0  0.92718  0.23705  0.08364  1.0000
  H   H7530     1.0  0.85446  0.28179  0.15648  1.0000
  H   H7531     1.0  0.87678  0.31123  0.01760  1.0000
  H   H7532     1.0  0.80198  0.46582  0.12349  1.0000
  H   H7533     1.0  0.82927  0.25087  0.16724  1.0000
  H   H7534     1.0  0.95523  0.27910  0.28809  1.0000
  N   N314      1.0  0.75758  0.27593  0.04074  1.0000
  C   C4389     1.0  0.97478  0.25176  0.27933  1.0000
  H   H7535     1.0  0.75453  0.30766  0.10189  1.0000
  H   H7536     1.0  0.84895  0.24960  0.16517  1.0000
  H   H7537     1.0  0.90965  0.47868  0.34121  1.0000
  H   H7538     1.0  0.89048  0.24549  0.02286  1.0000
  H   H7539     1.0  0.88274  0.47875  0.20098  1.0000
  H   H7540     1.0  0.95301  0.24785  0.36565  1.0000
  H   H7541     1.0  0.96223  0.26615  0.40972  1.0000
  H   H7542     1.0  0.85412  0.24992  0.05147  1.0000
  H   H7543     1.0  0.90417  0.45863  0.19174  1.0000
  H   H7544     1.0  0.88139  0.32914  0.04837  1.0000
  H   H7545     1.0  0.83396  0.27853  0.02354  1.0000
  C   C4390     1.0  0.92951  0.32974  0.46764  1.0000
  H   H7546     1.0  0.95803  0.30420  0.43767  1.0000
  S   S1269     1.0  0.79143  0.26568  0.98904  1.0000
  N   N315      1.0  0.88552  0.33107  0.01043  1.0000
  C   C4391     1.0  0.76191  0.25930  0.04582  1.0000
  H   H7547     1.0  0.77872  0.35566  0.11019  1.0000
  H   H7548     1.0  0.78811  0.34504  0.14847  1.0000
  Fe  Fe633     1.0  0.94696  0.47384  0.36061  1.0000
  C   C4392     1.0  0.89907  0.32391  0.00028  1.0000
  H   H7549     1.0  0.95327  0.27885  0.39522  1.0000
  H   H7550     1.0  0.98821  0.30882  0.22771  1.0000
  N   N316      1.0  0.93801  0.32951  0.32261  1.0000
  C   C4393     1.0  0.93989  0.33596  0.33436  1.0000
  C   C4394     1.0  0.92323  0.32485  0.32816  1.0000
  C   C4395     1.0  0.93741  0.34173  0.30890  1.0000
  C   C4396     1.0  0.95115  0.31682  0.31985  1.0000
  C   C4397     1.0  0.95374  0.34269  0.33059  1.0000
  C   C4398     1.0  0.92160  0.31336  0.34295  1.0000
  C   C4399     1.0  0.93415  0.33826  0.29565  1.0000
  C   C4400     1.0  0.94896  0.30515  0.31290  1.0000
  H   H7551     1.0  0.92990  0.34475  0.33737  1.0000
  H   H7552     1.0  0.94076  0.32739  0.34470  1.0000
  H   H7553     1.0  0.92062  0.32029  0.32012  1.0000
  H   H7554     1.0  0.91392  0.33464  0.32958  1.0000
  H   H7555     1.0  0.92878  0.35164  0.31161  1.0000
  H   H7556     1.0  0.94819  0.34535  0.30458  1.0000
  H   H7557     1.0  0.96113  0.32104  0.31272  1.0000
  H   H7558     1.0  0.95448  0.31057  0.33045  1.0000
  H   H7559     1.0  0.95471  0.34537  0.34070  1.0000
  H   H7560     1.0  0.96426  0.33485  0.32699  1.0000
  H   H7561     1.0  0.95261  0.35328  0.32225  1.0000
  H   H7562     1.0  0.91989  0.31848  0.35241  1.0000
  H   H7563     1.0  0.91150  0.30898  0.34470  1.0000
  H   H7564     1.0  0.93130  0.30384  0.34315  1.0000
  H   H7565     1.0  0.94343  0.32991  0.29086  1.0000
  H   H7566     1.0  0.93335  0.34848  0.28679  1.0000
  H   H7567     1.0  0.92329  0.33503  0.29828  1.0000
  H   H7568     1.0  0.95938  0.30180  0.30479  1.0000
  H   H7569     1.0  0.93985  0.30877  0.30690  1.0000
  H   H7570     1.0  0.94740  0.29492  0.32144  1.0000
  H   H7571     1.0  0.95379  0.35813  0.25292  1.0000
  H   H7572     1.0  0.99359  0.35193  0.34712  1.0000
  H   H7573     1.0  0.93288  0.36762  0.24064  1.0000
  H   H7574     1.0  0.91226  0.26294  0.05309  1.0000
  H   H7575     1.0  0.83614  0.26076  0.04980  1.0000
  C   C4401     1.0  0.92855  0.38712  0.22350  1.0000
  H   H7576     1.0  0.99002  0.33406  0.33940  1.0000
  C   C4402     1.0  0.93755  0.25965  0.38999  1.0000
  H   H7577     1.0  0.90459  0.35377  0.43773  1.0000
  C   C4403     1.0  0.86733  0.24477  0.11451  1.0000
  C   C4404     1.0  0.92804  0.27149  0.39891  1.0000
  H   H7578     1.0  0.75033  0.34072  0.17476  1.0000
  H   H7579     1.0  0.94499  0.40075  0.23887  1.0000
  S   S1270     1.0  0.92918  0.47775  0.38082  1.0000
  H   H7580     1.0  0.85146  0.26565  0.99615  1.0000
  H   H7581     1.0  0.80222  0.35757  0.12431  1.0000
  H   H7582     1.0  0.75426  0.25541  0.05640  1.0000
  C   C4405     1.0  0.79391  0.45988  0.13210  1.0000
  C   C4406     1.0  0.79350  0.44678  0.12612  1.0000
  S   S1271     1.0  0.90923  0.26267  0.98437  1.0000
  H   H7583     1.0  0.91615  0.27063  0.40217  1.0000
  H   H7584     1.0  0.87540  0.25593  0.00313  1.0000
  H   H7585     1.0  0.74924  0.34519  0.12365  1.0000
  H   H7586     1.0  0.91939  0.29690  0.18526  1.0000
  C   C4407     1.0  0.91391  0.32826  0.99873  1.0000
  H   H7587     1.0  0.95795  0.35827  0.22749  1.0000
  H   H7588     1.0  0.82709  0.28792  0.16566  1.0000
  H   H7589     1.0  0.95359  0.30576  0.27609  1.0000
  Fe  Fe634     1.0  0.99444  0.29626  0.20020  1.0000
  C   C4408     1.0  0.83725  0.40794  0.22802  1.0000
  H   H7590     1.0  0.90871  0.29064  0.44354  1.0000
  H   H7591     1.0  0.91953  0.35452  0.14266  1.0000
  C   C4409     1.0  0.76554  0.41520  0.19988  1.0000
  H   H7592     1.0  0.89419  0.42837  0.37687  1.0000
  H   H7593     1.0  0.85112  0.39654  0.31065  1.0000
  H   H7594     1.0  0.87381  0.42447  0.26793  1.0000
  Fe  Fe635     1.0  0.83115  0.24660  0.09531  1.0000
  H   H7595     1.0  0.86923  0.26391  0.01853  1.0000
  H   H7596     1.0  0.75382  0.39887  0.16841  1.0000
  H   H7597     1.0  0.87062  0.39290  0.30998  1.0000
  H   H7598     1.0  0.97287  0.27426  0.39272  1.0000
  H   H7599     1.0  0.89186  0.47703  0.06940  1.0000
  C   C4410     1.0  0.93410  0.25146  0.05690  1.0000
  H   H7600     1.0  0.90817  0.44201  0.38005  1.0000
  H   H7601     1.0  0.89552  0.45574  0.36953  1.0000
  C   C4411     1.0  0.86985  0.43035  0.27715  1.0000
  C   C4412     1.0  0.86819  0.32409  0.99840  1.0000
  C   C4413     1.0  0.92707  0.31688  0.40905  1.0000
  H   H7602     1.0  0.84881  0.42363  0.30523  1.0000
  H   H7603     1.0  0.93365  0.47058  0.42961  1.0000
  H   H7604     1.0  0.87061  0.44211  0.27265  1.0000
  H   H7605     1.0  0.90091  0.36916  0.12934  1.0000
  H   H7606     1.0  0.91976  0.33473  0.47555  1.0000
  C   C4414     1.0  0.90038  0.25788  0.08082  1.0000
  C   C4415     1.0  0.78215  0.40838  0.20025  1.0000
  H   H7607     1.0  0.90765  0.47534  0.20406  1.0000
  C   C4416     1.0  0.94811  0.29881  0.27280  1.0000
  H   H7608     1.0  0.75224  0.25209  0.03124  1.0000
  H   H7609     1.0  0.76820  0.28765  0.15065  1.0000
  C   C4417     1.0  0.87331  0.36553  0.15768  1.0000
  H   H7610     1.0  0.90226  0.35315  0.15573  1.0000
  H   H7611     1.0  0.86947  0.36097  0.01942  1.0000
  C   C4418     1.0  0.91168  0.33290  0.45260  1.0000
  C   C4419     1.0  0.77029  0.35199  0.12021  1.0000
  C   C4420     1.0  0.96116  0.27206  0.25384  1.0000
  C   C4421     1.0  0.85689  0.23758  0.01066  1.0000
  Fe  Fe636     1.0  0.79357  0.24161  0.99919  1.0000
  C   C4422     1.0  0.95653  0.28600  0.24216  1.0000
  C   C4423     1.0  0.86166  0.25195  0.10187  1.0000
  H   H7612     1.0  0.89730  0.31816  0.02767  1.0000
  H   H7613     1.0  0.97330  0.27092  0.25270  1.0000
  H   H7614     1.0  0.96085  0.26222  0.25015  1.0000
  C   C4424     1.0  0.83129  0.29129  0.15358  1.0000
  C   C4425     1.0  0.93626  0.27447  0.27170  1.0000
  H   H7615     1.0  0.76470  0.42717  0.19448  1.0000
  H   H7616     1.0  0.92023  0.35357  0.44451  1.0000
  H   H7617     1.0  0.95292  0.32120  0.46962  1.0000
  C   C4426     1.0  0.77235  0.45139  0.16032  1.0000
  H   H7618     1.0  0.96323  0.29421  0.24068  1.0000
  H   H7619     1.0  0.94454  0.29130  0.24450  1.0000
  H   H7620     1.0  0.95872  0.28290  0.23138  1.0000
  H   H7621     1.0  0.95755  0.23474  0.41514  1.0000
  C   C4427     1.0  0.77408  0.32178  0.15636  1.0000
  H   H7622     1.0  0.94103  0.26571  0.37843  1.0000
  C   C4428     1.0  0.84747  0.25691  0.04323  1.0000
  H   H7623     1.0  0.83293  0.41953  0.20578  1.0000
  H   H7624     1.0  0.76312  0.45654  0.14142  1.0000
  C   C4429     1.0  0.84929  0.41623  0.24989  1.0000
  H   H7625     1.0  0.90282  0.33712  0.46164  1.0000
  H   H7626     1.0  0.92241  0.43907  0.10770  1.0000
  C   C4430     1.0  0.87304  0.25252  0.12115  1.0000
  C   C4431     1.0  0.76744  0.46273  0.14678  1.0000
  C   C4432     1.0  0.90123  0.35708  0.13230  1.0000
  C   C4433     1.0  0.79102  0.36304  0.12980  1.0000
  H   H7627     1.0  0.88188  0.40750  0.20229  1.0000
  H   H7628     1.0  0.94009  0.44643  0.38457  1.0000
  H   H7629     1.0  0.78705  0.47452  0.15352  1.0000
  C   C4434     1.0  0.83807  0.25736  0.16403  1.0000
  H   H7630     1.0  0.75397  0.47228  0.12272  1.0000
  C   C4435     1.0  0.93588  0.32514  0.18766  1.0000
  C   C4436     1.0  0.84557  0.26391  0.00802  1.0000
  H   H7631     1.0  0.86173  0.37049  0.16295  1.0000
  H   H7632     1.0  0.88353  0.36957  0.09735  1.0000
  H   H7633     1.0  0.93416  0.29219  0.13363  1.0000
  H   H7634     1.0  0.80201  0.29047  0.16802  1.0000
  H   H7635     1.0  0.80993  0.27084  0.17319  1.0000
  N   N317      1.0  0.95298  0.27169  0.26971  1.0000
  S   S1272     1.0  0.91710  0.29182  0.10112  1.0000
  Fe  Fe637     1.0  0.80061  0.26101  0.11086  1.0000
  H   H7636     1.0  0.77217  0.25100  0.02546  1.0000
  H   H7637     1.0  0.91346  0.45847  0.36851  1.0000
  S   S1273     1.0  0.89044  0.46477  0.27623  1.0000
  C   C4437     1.0  0.80523  0.26674  0.03031  1.0000
  H   H7638     1.0  0.77691  0.45617  0.16679  1.0000
  H   H7639     1.0  0.89451  0.34811  0.18601  1.0000
  H   H7640     1.0  0.81729  0.28222  0.11989  1.0000
  H   H7641     1.0  0.76852  0.40611  0.15480  1.0000
  C   C4438     1.0  0.84634  0.24761  0.03301  1.0000
  H   H7642     1.0  0.97561  0.47832  0.24059  1.0000
  S   S1274     1.0  0.78836  0.25532  0.09723  1.0000
  Fe  Fe638     1.0  0.99130  0.28232  0.30005  1.0000
  C   C4439     1.0  0.76519  0.29194  0.14001  1.0000
  H   H7643     1.0  0.91645  0.45123  0.34618  1.0000
  C   C4440     1.0  0.90919  0.35028  0.14527  1.0000
  C   C4441     1.0  0.89948  0.29299  0.05218  1.0000
  C   C4442     1.0  0.78188  0.48078  0.14397  1.0000
  H   H7644     1.0  0.91273  0.41450  0.34172  1.0000
  H   H7645     1.0  0.88094  0.37203  0.15833  1.0000
  H   H7646     1.0  0.88899  0.42871  0.28508  1.0000
  H   H7647     1.0  0.93415  0.42129  0.32362  1.0000
  C   C4443     1.0  0.95548  0.42334  0.36081  1.0000
  N   N318      1.0  0.77791  0.34198  0.13236  1.0000
  H   H7648     1.0  0.83678  0.24127  0.00183  1.0000
  H   H7649     1.0  0.86784  0.33958  0.03775  1.0000
  C   C4444     1.0  0.79226  0.33215  0.12609  1.0000
  C   C4445     1.0  0.95553  0.23605  0.38839  1.0000
  S   S1275     1.0  0.83349  0.47247  0.16660  1.0000
  C   C4446     1.0  0.79088  0.32027  0.11900  1.0000
  H   H7650     1.0  0.76272  0.32698  0.13893  1.0000
  H   H7651     1.0  0.91840  0.24494  0.04967  1.0000
  S   S1276     1.0  0.98761  0.30070  0.28014  1.0000
  H   H7652     1.0  0.79954  0.33885  0.11731  1.0000
  H   H7653     1.0  0.79922  0.32663  0.13446  1.0000
  H   H7654     1.0  0.89386  0.31535  0.43350  1.0000
  C   C4447     1.0  0.75154  0.33916  0.18589  1.0000
  Fe  Fe639     1.0  0.91148  0.30533  0.07938  1.0000
  H   H7655     1.0  0.94062  0.32758  0.19576  1.0000
  C   C4448     1.0  0.89676  0.23934  0.07026  1.0000
  H   H7656     1.0  0.91702  0.27127  0.07622  1.0000
  H   H7657     1.0  0.85884  0.31832  0.00143  1.0000
  H   H7658     1.0  0.79052  0.32480  0.10717  1.0000
  H   H7659     1.0  0.78114  0.31529  0.12474  1.0000
  H   H7660     1.0  0.80069  0.31085  0.11978  1.0000
  S   S1277     1.0  0.80333  0.27472  0.05588  1.0000
  C   C4449     1.0  0.87958  0.42293  0.28872  1.0000
  H   H7661     1.0  0.88512  0.41142  0.28744  1.0000
  H   H7662     1.0  0.85602  0.45433  0.32057  1.0000
  H   H7663     1.0  0.75741  0.47098  0.15087  1.0000
  C   C4450     1.0  0.92006  0.31039  0.20706  1.0000
  Fe  Fe640     1.0  0.93633  0.26526  0.45779  1.0000
  H   H7664     1.0  0.83724  0.41613  0.25383  1.0000
  H   H7665     1.0  0.94791  0.30342  0.26105  1.0000
  H   H7666     1.0  0.83427  0.24877  0.03370  1.0000
  C   C4451     1.0  0.91506  0.47155  0.07192  1.0000
  C   C4452     1.0  0.96273  0.26961  0.39770  1.0000
  H   H7667     1.0  0.76320  0.36232  0.12367  1.0000
  H   H7668     1.0  0.98219  0.25071  0.26839  1.0000
  H   H7669     1.0  0.95467  0.30360  0.45691  1.0000
  C   C4453     1.0  0.87324  0.32317  0.01252  1.0000
  H   H7670     1.0  0.91184  0.35444  0.17944  1.0000
  H   H7671     1.0  0.94677  0.38808  0.26231  1.0000
  C   C4454     1.0  0.92053  0.30733  0.17694  1.0000
  H   H7672     1.0  0.96884  0.28281  0.27166  1.0000
  S   S1278     1.0  0.99197  0.28936  0.32000  1.0000
  H   H7673     1.0  0.86401  0.33566  0.99284  1.0000
  H   H7674     1.0  0.75720  0.37808  0.18739  1.0000
  C   C4455     1.0  0.76518  0.47322  0.11562  1.0000
  C   C4456     1.0  0.94658  0.37628  0.26402  1.0000
  C   C4457     1.0  0.76323  0.34358  0.20326  1.0000
  H   H7675     1.0  0.98361  0.31688  0.25117  1.0000
  H   H7676     1.0  0.92432  0.30130  0.22914  1.0000
  C   C4458     1.0  0.93509  0.37898  0.23723  1.0000
  C   C4459     1.0  0.76266  0.24977  0.03510  1.0000
  C   C4460     1.0  0.95806  0.25638  0.27870  1.0000
  H   H7677     1.0  0.77250  0.41830  0.17235  1.0000
  S   S1279     1.0  0.92637  0.43505  0.27643  1.0000
  S   S1280     1.0  0.82189  0.23915  0.08049  1.0000
  H   H7678     1.0  0.85793  0.42996  0.28144  1.0000
  C   C4461     1.0  0.87390  0.36581  0.14150  1.0000
  H   H7679     1.0  0.78608  0.41496  0.20558  1.0000
  S   S1281     1.0  0.88671  0.30726  0.08697  1.0000
  Fe  Fe641     1.0  0.89102  0.47965  0.29016  1.0000
  H   H7680     1.0  0.83732  0.25880  0.14192  1.0000
  Fe  Fe642     1.0  0.84395  0.48317  0.17763  1.0000
  C   C4462     1.0  0.77003  0.29164  0.11413  1.0000
  H   H7681     1.0  0.90046  0.47128  0.14252  1.0000
  H   H7682     1.0  0.90328  0.46036  0.06373  1.0000
  H   H7683     1.0  0.77684  0.28719  0.10469  1.0000
  H   H7684     1.0  0.93285  0.25267  0.27179  1.0000
  C   C4463     1.0  0.85808  0.46207  0.24396  1.0000
  C   C4464     1.0  0.86981  0.25375  0.01508  1.0000
  C   C4465     1.0  0.93122  0.47810  0.08356  1.0000
  Fe  Fe643     1.0  0.89441  0.48348  0.25674  1.0000
  H   H7685     1.0  0.85314  0.29615  0.13998  1.0000
  S   S1282     1.0  0.82100  0.45363  0.20003  1.0000
  H   H7686     1.0  0.80652  0.27787  0.02472  1.0000
  C   C4466     1.0  0.91770  0.25147  0.05780  1.0000
  H   H7687     1.0  0.92490  0.46300  0.06813  1.0000
  H   H7688     1.0  0.78380  0.39688  0.20692  1.0000
  H   H7689     1.0  0.82966  0.41648  0.23401  1.0000
  H   H7690     1.0  0.76248  0.44735  0.16785  1.0000
  C   C4467     1.0  0.75257  0.30340  0.13846  1.0000
  C   C4468     1.0  0.95532  0.36971  0.25040  1.0000
  H   H7691     1.0  0.86533  0.43993  0.22081  1.0000
  C   C4469     1.0  0.78172  0.35174  0.13995  1.0000
  H   H7692     1.0  0.88773  0.40547  0.37907  1.0000
  H   H7693     1.0  0.87521  0.37714  0.13529  1.0000
  N   N319      1.0  0.75849  0.40802  0.19234  1.0000
  H   H7694     1.0  0.76656  0.26523  0.06946  1.0000
  Fe  Fe644     1.0  0.91409  0.31359  0.10721  1.0000
  S   S1283     1.0  0.88951  0.31547  0.11669  1.0000
  S   S1284     1.0  0.92609  0.32327  0.11844  1.0000
  H   H7695     1.0  0.91743  0.34126  0.20531  1.0000
  H   H7696     1.0  0.92596  0.43634  0.35803  1.0000
  H   H7697     1.0  0.96283  0.42289  0.35008  1.0000
  H   H7698     1.0  0.80695  0.26010  0.01037  1.0000
  C   C4470     1.0  0.89978  0.28588  0.02980  1.0000
  C   C4471     1.0  0.75310  0.46409  0.19250  1.0000
  H   H7699     1.0  0.91698  0.38557  0.22574  1.0000
  C   C4472     1.0  0.90727  0.44996  0.36936  1.0000
  C   C4473     1.0  0.90110  0.42202  0.36846  1.0000
  C   C4474     1.0  0.91461  0.44231  0.35626  1.0000
  C   C4475     1.0  0.86130  0.40114  0.30561  1.0000
  C   C4476     1.0  0.93720  0.31895  0.44540  1.0000
  H   H7700     1.0  0.92757  0.30032  0.20344  1.0000
  C   C4477     1.0  0.80521  0.25677  0.02220  1.0000
  C   C4478     1.0  0.92292  0.47496  0.42590  1.0000
  C   C4479     1.0  0.91214  0.32146  0.41588  1.0000
  H   H7701     1.0  0.91283  0.33806  0.14667  1.0000
  C   C4480     1.0  0.91178  0.48256  0.19324  1.0000
  N   N320      1.0  0.95140  0.37825  0.23578  1.0000
  C   C4481     1.0  0.86974  0.33469  0.14655  1.0000
  C   C4482     1.0  0.88277  0.41512  0.31424  1.0000
  H   H7702     1.0  0.87719  0.41398  0.32615  1.0000
  H   H7703     1.0  0.93231  0.32422  0.39963  1.0000
  C   C4483     1.0  0.88658  0.24993  0.05998  1.0000
  H   H7704     1.0  0.78943  0.40871  0.18906  1.0000
  C   C4484     1.0  0.93532  0.30285  0.41446  1.0000
  N   N321      1.0  0.85455  0.25089  0.01704  1.0000
  H   H7705     1.0  0.79296  0.36955  0.13663  1.0000
  C   C4485     1.0  0.98878  0.30548  0.25062  1.0000
  H   H7706     1.0  0.89121  0.34658  0.11416  1.0000
  Fe  Fe645     1.0  0.91533  0.45916  0.27337  1.0000
  H   H7707     1.0  0.77765  0.39873  0.17678  1.0000
  H   H7708     1.0  0.93374  0.43629  0.33116  1.0000
  S   S1285     1.0  0.95365  0.26504  0.46953  1.0000
  Fe  Fe646     1.0  0.89207  0.29498  0.10886  1.0000
  C   C4486     1.0  0.90547  0.31190  0.42825  1.0000
  H   H7709     1.0  0.93713  0.31228  0.21753  1.0000
  C   C4487     1.0  0.86178  0.26694  0.09581  1.0000
  H   H7710     1.0  0.88709  0.40360  0.31274  1.0000
  C   C4488     1.0  0.93668  0.42438  0.38859  1.0000
  C   C4489     1.0  0.77391  0.28601  0.12788  1.0000
  C   C4490     1.0  0.89231  0.28857  0.04382  1.0000
  H   H7711     1.0  0.89362  0.29484  0.06297  1.0000
  C   C4491     1.0  0.93066  0.26434  0.26561  1.0000
  H   H7712     1.0  0.95608  0.24774  0.27435  1.0000
  H   H7713     1.0  0.90340  0.41462  0.31986  1.0000
  N   N322      1.0  0.87186  0.42346  0.30451  1.0000
  N   N323      1.0  0.90667  0.43190  0.35394  1.0000
  H   H7714     1.0  0.91817  0.32088  0.22545  1.0000
  S   S1286     1.0  0.89042  0.27982  0.02008  1.0000
  H   H7715     1.0  0.80207  0.43697  0.12988  1.0000
  H   H7716     1.0  0.93300  0.47914  0.09413  1.0000
  C   C4492     1.0  0.86656  0.43944  0.30560  1.0000
  H   H7717     1.0  0.89374  0.43300  0.31323  1.0000
  C   C4493     1.0  0.85969  0.44219  0.32131  1.0000
  H   H7718     1.0  0.91901  0.43698  0.32232  1.0000
  H   H7719     1.0  0.85797  0.44531  0.29892  1.0000
  H   H7720     1.0  0.85465  0.41438  0.32178  1.0000
  H   H7721     1.0  0.84969  0.43740  0.32662  1.0000
  H   H7722     1.0  0.83521  0.39959  0.20974  1.0000
  H   H7723     1.0  0.86775  0.28622  0.09769  1.0000
  H   H7724     1.0  0.93142  0.28596  0.26645  1.0000
  H   H7725     1.0  0.90402  0.42090  0.30068  1.0000
  H   H7726     1.0  0.86955  0.40394  0.23871  1.0000
  H   H7727     1.0  0.90113  0.33421  0.20939  1.0000
  H   H7728     1.0  0.92022  0.47500  0.18656  1.0000
  H   H7729     1.0  0.86793  0.43798  0.32843  1.0000
  H   H7730     1.0  0.87578  0.44544  0.30069  1.0000
  C   C4494     1.0  0.88503  0.37034  0.10808  1.0000
  H   H7731     1.0  0.92956  0.42477  0.39943  1.0000
  C   C4495     1.0  0.83309  0.28819  0.12898  1.0000
  H   H7732     1.0  0.92767  0.39922  0.22132  1.0000
  C   C4496     1.0  0.80367  0.26227  0.04561  1.0000
  H   H7733     1.0  0.81203  0.27009  0.14596  1.0000
  H   H7734     1.0  0.83510  0.26919  0.11932  1.0000
  H   H7735     1.0  0.87630  0.37984  0.11143  1.0000
  H   H7736     1.0  0.93648  0.30005  0.27949  1.0000
  H   H7737     1.0  0.81854  0.41081  0.21804  1.0000
  C   C4497     1.0  0.76778  0.40820  0.17681  1.0000
  S   S1287     1.0  0.81498  0.23822  0.11572  1.0000
  H   H7738     1.0  0.96729  0.36877  0.24999  1.0000
  H   H7739     1.0  0.83346  0.28679  0.10683  1.0000
  H   H7740     1.0  0.79321  0.27717  0.16636  1.0000
  C   C4498     1.0  0.88335  0.35564  0.11935  1.0000
  H   H7741     1.0  0.89630  0.37259  0.10591  1.0000
  H   H7742     1.0  0.94689  0.29945  0.40906  1.0000
  H   H7743     1.0  0.80626  0.28967  0.14240  1.0000
  N   N324      1.0  0.77926  0.47048  0.13617  1.0000
  C   C4499     1.0  0.80218  0.24785  0.05273  1.0000
  C   C4500     1.0  0.77801  0.46459  0.19389  1.0000
  C   C4501     1.0  0.92657  0.42982  0.32961  1.0000
  C   C4502     1.0  0.92525  0.31152  0.22041  1.0000
  C   C4503     1.0  0.82946  0.28101  0.11837  1.0000
  C   C4504     1.0  0.83933  0.26611  0.14790  1.0000
  C   C4505     1.0  0.91803  0.42195  0.34449  1.0000
  C   C4506     1.0  0.81297  0.28006  0.14901  1.0000
  C   C4507     1.0  0.80428  0.27956  0.16514  1.0000
  C   C4508     1.0  0.88959  0.32907  0.02502  1.0000
  H   H7744     1.0  0.79956  0.45527  0.14158  1.0000
  C   C4509     1.0  0.96110  0.23914  0.37142  1.0000
  C   C4510     1.0  0.90362  0.35055  0.18937  1.0000
  N   N325      1.0  0.82914  0.28121  0.14525  1.0000
  C   C4511     1.0  0.95202  0.43623  0.36625  1.0000
  N   N326      1.0  0.88585  0.35433  0.13445  1.0000
  H   H7745     1.0  0.93075  0.27340  0.28365  1.0000
  C   C4512     1.0  0.91422  0.46244  0.09910  1.0000
  H   H7746     1.0  0.93467  0.38280  0.21352  1.0000
  H   H7747     1.0  0.75475  0.33450  0.22615  1.0000
  C   C4513     1.0  0.84173  0.27883  0.01257  1.0000
  H   H7748     1.0  0.95151  0.25519  0.29034  1.0000
  H   H7749     1.0  0.86257  0.36561  0.14065  1.0000
  H   H7750     1.0  0.98321  0.36251  0.21196  1.0000
  H   H7751     1.0  0.82708  0.30000  0.12677  1.0000
  H   H7752     1.0  0.82452  0.30267  0.15046  1.0000
  H   H7753     1.0  0.84521  0.28819  0.12521  1.0000
  H   H7754     1.0  0.95254  0.39809  0.20871  1.0000
  S   S1288     1.0  0.81764  0.26983  0.09156  1.0000
  C   C4514     1.0  0.92883  0.29346  0.42706  1.0000
  C   C4515     1.0  0.91387  0.29797  0.43397  1.0000
  C   C4516     1.0  0.94258  0.43670  0.38015  1.0000
  H   H7755     1.0  0.74606  0.30801  0.14784  1.0000
  H   H7756     1.0  0.85386  0.42623  0.20490  1.0000
  H   H7757     1.0  0.90625  0.32718  0.44772  1.0000
  H   H7758     1.0  0.93246  0.30717  0.17191  1.0000
  H   H7759     1.0  0.93250  0.31808  0.43644  1.0000
  C   C4517     1.0  0.91268  0.32109  0.18351  1.0000
  S   S1289     1.0  0.88097  0.27658  0.12357  1.0000
  C   C4518     1.0  0.86774  0.27466  0.10235  1.0000
  C   C4519     1.0  0.91070  0.33715  0.20028  1.0000
  H   H7760     1.0  0.96883  0.40205  0.21143  1.0000
  H   H7761     1.0  0.90302  0.47463  0.31992  1.0000
  H   H7762     1.0  0.95181  0.37013  0.27354  1.0000
  H   H7763     1.0  0.86092  0.34174  0.15339  1.0000
  H   H7764     1.0  0.87059  0.32311  0.15306  1.0000
  S   S1290     1.0  0.93977  0.27613  0.43357  1.0000
  H   H7765     1.0  0.78347  0.45110  0.98611  1.0000
  C   C4520     1.0  0.84758  0.29243  0.15163  1.0000
  H   H7766     1.0  0.91524  0.30752  0.16799  1.0000
  C   C4521     1.0  0.96066  0.36938  0.22442  1.0000
  H   H7767     1.0  0.91179  0.33057  0.17399  1.0000
  H   H7768     1.0  0.78285  0.44306  0.13026  1.0000
  C   C4522     1.0  0.85449  0.42473  0.21653  1.0000
  C   C4523     1.0  0.86278  0.39798  0.21598  1.0000
  H   H7769     1.0  0.76917  0.35125  0.17962  1.0000
  C   C4524     1.0  0.84967  0.46854  0.23306  1.0000
  H   H7770     1.0  0.76315  0.48088  0.10505  1.0000
  H   H7771     1.0  0.89357  0.33061  0.13715  1.0000
  C   C4525     1.0  0.76483  0.28065  0.02468  1.0000
  H   H7772     1.0  0.87537  0.46382  0.25338  1.0000
  H   H7773     1.0  0.87710  0.44386  0.36636  1.0000
  C   C4526     1.0  0.87965  0.39758  0.21099  1.0000
  H   H7774     1.0  0.76487  0.28342  0.07139  1.0000
  H   H7775     1.0  0.90911  0.35262  0.12281  1.0000
  C   C4527     1.0  0.88507  0.33877  0.14309  1.0000
  H   H7776     1.0  0.88657  0.45865  0.18896  1.0000
  H   H7777     1.0  0.74687  0.32198  0.98081  1.0000
  H   H7778     1.0  0.90869  0.30790  0.21136  1.0000
  H   H7779     1.0  0.89806  0.40358  0.36095  1.0000
  C   C4528     1.0  0.75398  0.33578  0.21488  1.0000
  H   H7780     1.0  0.95103  0.41383  0.21551  1.0000
  H   H7781     1.0  0.76521  0.31618  0.16403  1.0000
  S   S1291     1.0  0.95945  0.45163  0.35545  1.0000
  H   H7782     1.0  0.83568  0.39704  0.23543  1.0000
  C   C4529     1.0  0.89158  0.41179  0.36772  1.0000
  H   H7783     1.0  0.76668  0.44693  0.20596  1.0000
  H   H7784     1.0  0.83460  0.26182  0.00844  1.0000
  C   C4530     1.0  0.86861  0.42993  0.21610  1.0000
  N   N327      1.0  0.91992  0.32370  0.19430  1.0000
  S   S1292     1.0  0.77509  0.35200  0.20773  1.0000
  C   C4531     1.0  0.87677  0.32947  0.03889  1.0000
  C   C4532     1.0  0.89441  0.44034  0.34580  1.0000
  C   C4533     1.0  0.88005  0.44896  0.35449  1.0000
  H   H7785     1.0  0.89858  0.44861  0.33600  1.0000
  C   C4534     1.0  0.86867  0.46900  0.24522  1.0000
  H   H7786     1.0  0.77719  0.27701  0.02299  1.0000
  H   H7787     1.0  0.85750  0.27250  0.08596  1.0000
  H   H7788     1.0  0.93868  0.25793  0.04586  1.0000
  C   C4535     1.0  0.94919  0.30456  0.44795  1.0000
  H   H7789     1.0  0.79604  0.44950  0.11386  1.0000
  H   H7790     1.0  0.83598  0.26435  0.17202  1.0000
  Fe  Fe647     1.0  0.80692  0.26181  0.07831  1.0000
  H   H7791     1.0  0.86141  0.38667  0.22222  1.0000
  C   C4536     1.0  0.87348  0.26740  0.11499  1.0000
  H   H7792     1.0  0.88141  0.41805  0.36354  1.0000
  H   H7793     1.0  0.87038  0.44939  0.35003  1.0000
  H   H7794     1.0  0.87192  0.31953  0.04198  1.0000
  H   H7795     1.0  0.75742  0.34086  0.14896  1.0000
  H   H7796     1.0  0.94444  0.29472  0.45013  1.0000
  H   H7797     1.0  0.97326  0.48073  0.30659  1.0000
  H   H7798     1.0  0.85911  0.39991  0.20552  1.0000
  H   H7799     1.0  0.85539  0.39422  0.24595  1.0000
  C   C4537     1.0  0.88070  0.24123  0.02318  1.0000
  H   H7800     1.0  0.87681  0.42177  0.22202  1.0000
  C   C4538     1.0  0.76215  0.34514  0.18867  1.0000
  C   C4539     1.0  0.95685  0.28260  0.27583  1.0000
  C   C4540     1.0  0.85749  0.40529  0.23971  1.0000
  H   H7801     1.0  0.92800  0.38480  0.24603  1.0000
  C   C4541     1.0  0.97776  0.36678  0.22219  1.0000
  S   S1293     1.0  0.87424  0.48115  0.31173  1.0000
  C   C4542     1.0  0.75995  0.40786  0.16500  1.0000
  H   H7802     1.0  0.75899  0.29504  0.04764  1.0000
  H   H7803     1.0  0.93699  0.44823  0.09697  1.0000
  H   H7804     1.0  0.90295  0.45999  0.10212  1.0000
  N   N328      1.0  0.91592  0.47511  0.08584  1.0000
  S   S1294     1.0  0.91566  0.47268  0.28873  1.0000
  S   S1295     1.0  0.85607  0.24166  0.09286  1.0000
  H   H7805     1.0  0.87908  0.24373  0.05855  1.0000
  Fe  Fe648     1.0  0.81364  0.47571  0.18533  1.0000
  H   H7806     1.0  0.89726  0.32648  0.98886  1.0000
  C   C4543     1.0  0.94155  0.32035  0.47634  1.0000
  H   H7807     1.0  0.86274  0.36620  0.00260  1.0000
  S   S1296     1.0  0.91944  0.47675  0.25273  1.0000
  C   C4544     1.0  0.77374  0.47989  0.12256  1.0000
  C   C4545     1.0  0.75213  0.47790  0.18272  1.0000
  C   C4546     1.0  0.74868  0.30908  0.12473  1.0000
  H   H7808     1.0  0.77139  0.46242  0.11304  1.0000
  H   H7809     1.0  0.91699  0.25703  0.09321  1.0000
  H   H7810     1.0  0.97689  0.24067  0.28683  1.0000
  H   H7811     1.0  0.97532  0.24153  0.42213  1.0000
  H   H7812     1.0  0.90113  0.31163  0.00400  1.0000
  H   H7813     1.0  0.76711  0.29932  0.00611  1.0000
  H   H7814     1.0  0.91610  0.46652  0.43118  1.0000
  C   C4547     1.0  0.99133  0.30095  0.23736  1.0000
  H   H7815     1.0  0.92371  0.24374  0.41555  1.0000
  H   H7816     1.0  0.92277  0.32244  0.99076  1.0000
  H   H7817     1.0  0.74844  0.27798  0.07145  1.0000
  C   C4548     1.0  0.97675  0.23414  0.44490  1.0000
  H   H7818     1.0  0.76510  0.30388  0.02329  1.0000
  H   H7819     1.0  0.92585  0.47612  0.41376  1.0000
  C   C4549     1.0  0.76117  0.29738  0.01791  1.0000
  C   C4550     1.0  0.89341  0.48226  0.14219  1.0000
  H   H7820     1.0  0.87718  0.31839  0.99048  1.0000
  S   S1297     1.0  0.91710  0.26882  0.47703  1.0000
  C   C4551     1.0  0.89448  0.47998  0.32793  1.0000
  C   C4552     1.0  0.85180  0.48202  0.22353  1.0000
  H   H7821     1.0  0.88900  0.48169  0.10980  1.0000
  H   H7822     1.0  0.99322  0.33933  0.31982  1.0000
  H   H7823     1.0  0.80301  0.46374  0.99845  1.0000
  H   H7824     1.0  0.74908  0.30161  0.01810  1.0000
  S   S1298     1.0  0.75093  0.28417  0.99213  1.0000
  H   H7825     1.0  0.88353  0.48072  0.09362  1.0000
  H   H7826     1.0  0.89238  0.47767  0.43223  1.0000
  H   H7827     1.0  0.88900  0.23572  0.08085  1.0000
  H   H7828     1.0  0.94994  0.48214  0.25641  1.0000
  C   C4553     1.0  0.88841  0.48057  0.18905  1.0000
  H   H7829     1.0  0.97218  0.24209  0.36792  1.0000
  C   C4554     1.0  0.79202  0.47065  0.99658  1.0000
  H   H7830     1.0  0.74628  0.37499  0.20605  1.0000
  S   S1299     1.0  0.80425  0.23435  0.97794  1.0000
  H   H7831     1.0  0.78317  0.48341  0.11365  1.0000
  H   H7832     1.0  0.92403  0.48224  0.95589  1.0000
  S   S1300     1.0  0.91758  0.34401  0.79537  1.0000
  Fe  Fe649     1.0  0.93018  0.37879  0.76880  1.0000
  S   S1301     1.0  0.90625  0.37703  0.77484  1.0000
  H   H7833     1.0  0.90944  0.47999  0.84218  1.0000
  Fe  Fe650     1.0  0.91020  0.36754  0.79779  1.0000
  S   S1302     1.0  0.89335  0.37635  0.81646  1.0000
  Fe  Fe651     1.0  0.91547  0.35372  0.77187  1.0000
  S   S1303     1.0  0.90400  0.34229  0.76251  1.0000
  S   S1304     1.0  0.93344  0.37147  0.79196  1.0000
  Fe  Fe652     1.0  0.93510  0.35804  0.67960  1.0000
  S   S1305     1.0  0.94973  0.36966  0.68458  1.0000
  S   S1306     1.0  0.91217  0.35574  0.69301  1.0000
  Fe  Fe653     1.0  0.95931  0.34553  0.65536  1.0000
  S   S1307     1.0  0.97619  0.35609  0.65842  1.0000
  S   S1308     1.0  0.96651  0.32809  0.64156  1.0000
  Fe  Fe654     1.0  0.96727  0.34895  0.68265  1.0000
  H   H7834     1.0  0.74664  0.37568  0.90314  1.0000
  Fe  Fe655     1.0  0.95741  0.37621  0.65999  1.0000
  S   S1309     1.0  0.96319  0.39860  0.64910  1.0000
  S   S1310     1.0  0.95198  0.33675  0.67971  1.0000
  S   S1311     1.0  0.94112  0.36627  0.65489  1.0000
  Fe  Fe656     1.0  0.91268  0.27220  0.60106  1.0000
  S   S1312     1.0  0.93288  0.25368  0.60021  1.0000
  S   S1313     1.0  0.89012  0.26884  0.60164  1.0000
  Fe  Fe657     1.0  0.93051  0.29472  0.60014  1.0000
  S   S1314     1.0  0.95214  0.27777  0.59839  1.0000
  S   S1315     1.0  0.92906  0.31826  0.60139  1.0000
  Fe  Fe658     1.0  0.94381  0.27048  0.58248  1.0000
  S   S1316     1.0  0.95784  0.26365  0.56131  1.0000
  Fe  Fe659     1.0  0.93866  0.26310  0.61610  1.0000
  H   H7835     1.0  0.74646  0.46996  0.96796  1.0000
  S   S1317     1.0  0.92327  0.28874  0.58270  1.0000
  S   S1318     1.0  0.91741  0.28031  0.61852  1.0000
  C   C4555     1.0  0.79115  0.30701  0.95837  1.0000
  Fe  Fe660     1.0  0.83359  0.35256  0.87885  1.0000
  S   S1319     1.0  0.84413  0.35667  0.89482  1.0000
  S   S1320     1.0  0.84869  0.33903  0.86257  1.0000
  Fe  Fe661     1.0  0.80244  0.36889  0.89215  1.0000
  S   S1321     1.0  0.81063  0.37476  0.90893  1.0000
  S   S1322     1.0  0.77769  0.37670  0.89302  1.0000
  Fe  Fe662     1.0  0.83007  0.37964  0.89035  1.0000
  S   S1323     1.0  0.84080  0.39923  0.88348  1.0000
  Fe  Fe663     1.0  0.82381  0.35131  0.91181  1.0000
  S   S1324     1.0  0.82069  0.37596  0.87314  1.0000
  S   S1325     1.0  0.81444  0.34509  0.89621  1.0000
  H   H7836     1.0  0.75060  0.24198  0.96647  1.0000
  H   H7837     1.0  0.86060  0.29842  0.93848  1.0000
  H   H7838     1.0  0.87908  0.31040  0.89644  1.0000
  H   H7839     1.0  0.99120  0.35236  0.82564  1.0000
  H   H7840     1.0  0.96600  0.38790  0.68804  1.0000
  C   C4556     1.0  0.96989  0.29652  0.76472  1.0000
  C   C4557     1.0  0.87613  0.47009  0.83948  1.0000
  H   H7841     1.0  0.91574  0.34519  0.87832  1.0000
  Fe  Fe664     1.0  0.83499  0.46046  0.91480  1.0000
  Fe  Fe665     1.0  0.97958  0.48122  0.68630  1.0000
  S   S1326     1.0  0.83254  0.43813  0.92915  1.0000
  H   H7842     1.0  0.99279  0.23518  0.93220  1.0000
  C   C4558     1.0  0.97098  0.37289  0.79032  1.0000
  C   C4559     1.0  0.75279  0.36501  0.90102  1.0000
  H   H7843     1.0  0.95789  0.39777  0.72480  1.0000
  H   H7844     1.0  0.98142  0.25290  0.92725  1.0000
  C   C4560     1.0  0.78110  0.30389  0.94998  1.0000
  H   H7845     1.0  0.95424  0.46136  0.65393  1.0000
  C   C4561     1.0  0.96823  0.47375  0.83081  1.0000
  Fe  Fe666     1.0  0.92143  0.24402  0.48367  1.0000
  C   C4562     1.0  0.94449  0.39204  0.71359  1.0000
  Fe  Fe667     1.0  0.92823  0.45346  0.81803  1.0000
  S   S1327     1.0  0.95295  0.45085  0.81402  1.0000
  H   H7846     1.0  0.97175  0.35507  0.73393  1.0000
  Fe  Fe668     1.0  0.92683  0.47171  0.78689  1.0000
  Fe  Fe669     1.0  0.95327  0.44695  0.79211  1.0000
  S   S1328     1.0  0.96992  0.42871  0.78226  1.0000
  S   S1329     1.0  0.92878  0.44750  0.79709  1.0000
  Fe  Fe670     1.0  0.95748  0.46507  0.68372  1.0000
  C   C4563     1.0  0.90686  0.31023  0.48120  1.0000
  S   S1330     1.0  0.94937  0.44367  0.69040  1.0000
  C   C4564     1.0  0.77231  0.33110  0.93954  1.0000
  C   C4565     1.0  0.75650  0.29871  0.93857  1.0000
  H   H7847     1.0  0.83546  0.31376  0.95715  1.0000
  H   H7848     1.0  0.85994  0.47777  0.93388  1.0000
  S   S1331     1.0  0.94424  0.25104  0.63796  1.0000
  H   H7849     1.0  0.79624  0.47012  0.92175  1.0000
  C   C4566     1.0  0.75793  0.47918  0.91105  1.0000
  Fe  Fe671     1.0  0.94845  0.47493  0.80307  1.0000
  H   H7850     1.0  0.93308  0.47455  0.61692  1.0000
  C   C4567     1.0  0.92653  0.24001  0.55740  1.0000
  C   C4568     1.0  0.94393  0.44998  0.63738  1.0000
  N   N329      1.0  0.92434  0.44765  0.74077  1.0000
  H   H7851     1.0  0.95840  0.31132  0.90099  1.0000
  H   H7852     1.0  0.91415  0.32118  0.88085  1.0000
  C   C4569     1.0  0.92224  0.43042  0.72530  1.0000
  H   H7853     1.0  0.77202  0.31149  0.92425  1.0000
  H   H7854     1.0  0.91953  0.29531  0.88830  1.0000
  Fe  Fe672     1.0  0.93473  0.26636  0.48943  1.0000
  S   S1332     1.0  0.92988  0.28203  0.50457  1.0000
  H   H7855     1.0  0.94660  0.47334  0.93837  1.0000
  C   C4570     1.0  0.99199  0.35877  0.80172  1.0000
  H   H7856     1.0  0.78542  0.32807  0.91727  1.0000
  H   H7857     1.0  0.79659  0.32466  0.93065  1.0000
  H   H7858     1.0  0.79125  0.29881  0.96904  1.0000
  H   H7859     1.0  0.97465  0.29443  0.55365  1.0000
  H   H7860     1.0  0.84519  0.32169  0.90134  1.0000
  H   H7861     1.0  0.92392  0.33035  0.55322  1.0000
  H   H7862     1.0  0.99366  0.31134  0.82637  1.0000
  H   H7863     1.0  0.93640  0.29778  0.91043  1.0000
  H   H7864     1.0  0.90596  0.31856  0.90586  1.0000
  C   C4571     1.0  0.93762  0.29202  0.86981  1.0000
  N   N330      1.0  0.93474  0.30856  0.88790  1.0000
  C   C4572     1.0  0.91324  0.30859  0.91126  1.0000
  C   C4573     1.0  0.96192  0.33812  0.83110  1.0000
  H   H7865     1.0  0.92463  0.29522  0.64792  1.0000
  C   C4574     1.0  0.76286  0.31279  0.93416  1.0000
  H   H7866     1.0  0.95995  0.24437  0.67821  1.0000
  H   H7867     1.0  0.90931  0.32037  0.65869  1.0000
  C   C4575     1.0  0.86188  0.34105  0.93916  1.0000
  S   S1333     1.0  0.97464  0.24334  0.75015  1.0000
  H   H7868     1.0  0.98295  0.39250  0.72284  1.0000
  H   H7869     1.0  0.97848  0.46591  0.63858  1.0000
  H   H7870     1.0  0.78863  0.30033  0.93989  1.0000
  H   H7871     1.0  0.91856  0.34342  0.64902  1.0000
  H   H7872     1.0  0.92983  0.31980  0.56964  1.0000
  C   C4576     1.0  0.97862  0.26100  0.81022  1.0000
  H   H7873     1.0  0.94800  0.30256  0.65635  1.0000
  H   H7874     1.0  0.90437  0.29921  0.48706  1.0000
  H   H7875     1.0  0.87146  0.47140  0.95564  1.0000
  H   H7876     1.0  0.90021  0.44064  0.76598  1.0000
  H   H7877     1.0  0.89634  0.44169  0.86883  1.0000
  C   C4577     1.0  0.94610  0.28881  0.76871  1.0000
  C   C4578     1.0  0.97151  0.37659  0.81399  1.0000
  C   C4579     1.0  0.96000  0.26830  0.90779  1.0000
  N   N331      1.0  0.99088  0.23762  0.68316  1.0000
  Fe  Fe673     1.0  0.98607  0.24881  0.76478  1.0000
  C   C4580     1.0  0.97519  0.39087  0.69065  1.0000
  C   C4581     1.0  0.91181  0.23547  0.55897  1.0000
  H   H7878     1.0  0.94103  0.30857  0.48049  1.0000
  H   H7879     1.0  0.93663  0.28481  0.89314  1.0000
  H   H7880     1.0  0.95773  0.31198  0.52921  1.0000
  C   C4582     1.0  0.97186  0.36705  0.73049  1.0000
  C   C4583     1.0  0.76378  0.40557  0.91875  1.0000
  H   H7881     1.0  0.76079  0.33186  0.96993  1.0000
  H   H7882     1.0  0.90344  0.27076  0.52621  1.0000
  H   H7883     1.0  0.87043  0.47786  0.83124  1.0000
  C   C4584     1.0  0.98371  0.26086  0.79515  1.0000
  H   H7884     1.0  0.96243  0.44868  0.73138  1.0000
  N   N332      1.0  0.79607  0.46650  0.97029  1.0000
  H   H7885     1.0  0.99420  0.38953  0.81069  1.0000
  H   H7886     1.0  0.94395  0.38092  0.72076  1.0000
  H   H7887     1.0  0.95550  0.29566  0.55760  1.0000
  H   H7888     1.0  0.96263  0.29264  0.53353  1.0000
  H   H7889     1.0  0.83014  0.43574  0.86228  1.0000
  H   H7890     1.0  0.96978  0.36809  0.77011  1.0000
  C   C4585     1.0  0.78538  0.44722  0.96488  1.0000
  S   S1334     1.0  0.92362  0.47776  0.80845  1.0000
  C   C4586     1.0  0.92056  0.31189  0.68583  1.0000
  H   H7891     1.0  0.93267  0.31716  0.90722  1.0000
  C   C4587     1.0  0.83941  0.40889  0.89690  1.0000
  C   C4588     1.0  0.83231  0.40448  0.91169  1.0000
  C   C4589     1.0  0.83057  0.41318  0.92183  1.0000
  C   C4590     1.0  0.83586  0.42628  0.91713  1.0000
  C   C4591     1.0  0.84326  0.43040  0.90245  1.0000
  C   C4592     1.0  0.84506  0.42173  0.89241  1.0000
  H   H7892     1.0  0.82802  0.39450  0.91528  1.0000
  H   H7893     1.0  0.82488  0.40992  0.93321  1.0000
  H   H7894     1.0  0.84749  0.44040  0.89873  1.0000
  H   H7895     1.0  0.85047  0.42531  0.88104  1.0000
  C   C4593     1.0  0.76827  0.36257  0.89546  1.0000
  H   H7896     1.0  0.98253  0.31040  0.57444  1.0000
  C   C4594     1.0  0.95181  0.28448  0.75357  1.0000
  C   C4595     1.0  0.92218  0.46802  0.86511  1.0000
  C   C4596     1.0  0.76834  0.33767  0.89446  1.0000
  C   C4597     1.0  0.77601  0.34890  0.89206  1.0000
  S   S1335     1.0  0.98438  0.47752  0.86376  1.0000
  S   S1336     1.0  0.97888  0.47035  0.66885  1.0000
  H   H7897     1.0  0.77436  0.32716  0.89170  1.0000
  H   H7898     1.0  0.78784  0.34706  0.88728  1.0000
  H   H7899     1.0  0.93236  0.30090  0.86154  1.0000
  C   C4598     1.0  0.82621  0.44711  0.86426  1.0000
  H   H7900     1.0  0.77697  0.29386  0.95688  1.0000
  C   C4599     1.0  0.78565  0.47268  0.91860  1.0000
  S   S1337     1.0  0.95139  0.47093  0.78046  1.0000
  H   H7901     1.0  0.96731  0.46487  0.82663  1.0000
  H   H7902     1.0  0.87115  0.32903  0.89764  1.0000
  H   H7903     1.0  0.86306  0.26969  0.90528  1.0000
  C   C4600     1.0  0.96051  0.28110  0.92593  1.0000
  H   H7904     1.0  0.76981  0.39980  0.90956  1.0000
  H   H7905     1.0  0.75218  0.40078  0.95398  1.0000
  C   C4601     1.0  0.98552  0.39263  0.71084  1.0000
  C   C4602     1.0  0.94938  0.26806  0.54604  1.0000
  C   C4603     1.0  0.93665  0.27944  0.54487  1.0000
  C   C4604     1.0  0.93075  0.28352  0.53217  1.0000
  C   C4605     1.0  0.93727  0.27603  0.52062  1.0000
  C   C4606     1.0  0.94976  0.26435  0.52190  1.0000
  C   C4607     1.0  0.95591  0.26053  0.53448  1.0000
  H   H7906     1.0  0.93155  0.28540  0.55355  1.0000
  H   H7907     1.0  0.92108  0.29254  0.53128  1.0000
  H   H7908     1.0  0.95494  0.25855  0.51302  1.0000
  H   H7909     1.0  0.96773  0.34380  0.53269  1.0000
  C   C4608     1.0  0.95920  0.41134  0.66038  1.0000
  C   C4609     1.0  0.96844  0.42136  0.65736  1.0000
  C   C4610     1.0  0.96552  0.43147  0.66641  1.0000
  C   C4611     1.0  0.95319  0.43174  0.67834  1.0000
  C   C4612     1.0  0.94388  0.42185  0.68122  1.0000
  C   C4613     1.0  0.94687  0.41168  0.67228  1.0000
  H   H7910     1.0  0.92123  0.46612  0.87721  1.0000
  H   H7911     1.0  0.93804  0.44696  0.86439  1.0000
  H   H7912     1.0  0.93433  0.42202  0.69044  1.0000
  H   H7913     1.0  0.93959  0.40413  0.67456  1.0000
  C   C4614     1.0  0.95591  0.32581  0.63032  1.0000
  C   C4615     1.0  0.95869  0.31194  0.62688  1.0000
  C   C4616     1.0  0.95022  0.30942  0.61842  1.0000
  C   C4617     1.0  0.93928  0.32093  0.61278  1.0000
  C   C4618     1.0  0.93665  0.33490  0.61598  1.0000
  C   C4619     1.0  0.94484  0.33730  0.62484  1.0000
  H   H7914     1.0  0.96730  0.30301  0.63098  1.0000
  H   H7915     1.0  0.95230  0.29859  0.61614  1.0000
  H   H7916     1.0  0.92822  0.34387  0.61163  1.0000
  H   H7917     1.0  0.94271  0.34808  0.62728  1.0000
  H   H7918     1.0  0.86447  0.44697  0.82616  1.0000
  C   C4620     1.0  0.98247  0.29549  0.71970  1.0000
  H   H7919     1.0  0.93979  0.32447  0.48647  1.0000
  C   C4621     1.0  0.91941  0.46662  0.71642  1.0000
  H   H7920     1.0  0.90377  0.26460  0.54530  1.0000
  H   H7921     1.0  0.97800  0.47919  0.71991  1.0000
  C   C4622     1.0  0.88182  0.36521  0.82958  1.0000
  C   C4623     1.0  0.87030  0.37178  0.83987  1.0000
  C   C4624     1.0  0.86043  0.36363  0.85024  1.0000
  C   C4625     1.0  0.86188  0.34882  0.85030  1.0000
  C   C4626     1.0  0.87365  0.34203  0.84024  1.0000
  C   C4627     1.0  0.88365  0.35022  0.82987  1.0000
  H   H7922     1.0  0.86886  0.38328  0.83971  1.0000
  H   H7923     1.0  0.85156  0.36892  0.85806  1.0000
  H   H7924     1.0  0.87492  0.33050  0.84038  1.0000
  H   H7925     1.0  0.89266  0.34498  0.82212  1.0000
  C   C4628     1.0  0.94854  0.40502  0.76172  1.0000
  C   C4629     1.0  0.94138  0.40838  0.77551  1.0000
  C   C4630     1.0  0.94784  0.41580  0.78182  1.0000
  C   C4631     1.0  0.96157  0.41960  0.77448  1.0000
  C   C4632     1.0  0.96901  0.41563  0.76101  1.0000
  C   C4633     1.0  0.96243  0.40850  0.75456  1.0000
  H   H7926     1.0  0.93064  0.40569  0.78109  1.0000
  H   H7927     1.0  0.94230  0.41839  0.79246  1.0000
  H   H7928     1.0  0.99151  0.23603  0.90784  1.0000
  H   H7929     1.0  0.93032  0.28935  0.79617  1.0000
  C   C4634     1.0  0.90662  0.34637  0.74316  1.0000
  C   C4635     1.0  0.89697  0.34258  0.73699  1.0000
  C   C4636     1.0  0.89870  0.34566  0.72162  1.0000
  C   C4637     1.0  0.91034  0.35218  0.71227  1.0000
  C   C4638     1.0  0.92013  0.35583  0.71843  1.0000
  C   C4639     1.0  0.91815  0.35312  0.73387  1.0000
  H   H7930     1.0  0.88805  0.33737  0.74410  1.0000
  H   H7931     1.0  0.89107  0.34286  0.71695  1.0000
  H   H7932     1.0  0.92906  0.36096  0.71132  1.0000
  H   H7933     1.0  0.92560  0.35615  0.73853  1.0000
  H   H7934     1.0  0.81411  0.44861  0.96362  1.0000
  H   H7935     1.0  0.96106  0.37301  0.73619  1.0000
  C   C4640     1.0  0.88787  0.25131  0.60164  1.0000
  C   C4641     1.0  0.97627  0.48190  0.84842  1.0000
  H   H7936     1.0  0.75755  0.37972  0.92254  1.0000
  H   H7937     1.0  0.91425  0.33956  0.66868  1.0000
  C   C4642     1.0  0.89999  0.23958  0.59849  1.0000
  H   H7938     1.0  0.95752  0.31645  0.74253  1.0000
  H   H7939     1.0  0.92543  0.32093  0.68635  1.0000
  S   S1338     1.0  0.98155  0.28685  0.85167  1.0000
  H   H7940     1.0  0.89634  0.31742  0.47832  1.0000
  H   H7941     1.0  0.76286  0.33946  0.93530  1.0000
  N   N333      1.0  0.95336  0.29953  0.77153  1.0000
  C   C4643     1.0  0.92093  0.29414  0.67186  1.0000
  H   H7942     1.0  0.77056  0.40940  0.93703  1.0000
  H   H7943     1.0  0.92327  0.28531  0.68170  1.0000
  H   H7944     1.0  0.94879  0.33090  0.53913  1.0000
  H   H7945     1.0  0.89710  0.46575  0.82398  1.0000
  C   C4644     1.0  0.98744  0.26435  0.81777  1.0000
  H   H7946     1.0  0.95785  0.29635  0.88479  1.0000
  C   C4645     1.0  0.93159  0.44598  0.63279  1.0000
  S   S1339     1.0  0.93985  0.39731  0.75293  1.0000
  H   H7947     1.0  0.93917  0.45932  0.84682  1.0000
  Fe  Fe674     1.0  0.78063  0.23624  0.97646  1.0000
  H   H7948     1.0  0.98320  0.25171  0.66378  1.0000
  C   C4646     1.0  0.74979  0.38594  0.93086  1.0000
  H   H7949     1.0  0.96581  0.25176  0.53523  1.0000
  C   C4647     1.0  0.95455  0.46792  0.64244  1.0000
  H   H7950     1.0  0.96533  0.36760  0.81966  1.0000
  N   N334      1.0  0.94226  0.46618  0.63653  1.0000
  N   N335      1.0  0.92640  0.30760  0.67109  1.0000
  H   H7951     1.0  0.91764  0.42661  0.74871  1.0000
  C   C4648     1.0  0.95943  0.31333  0.57183  1.0000
  H   H7952     1.0  0.98786  0.26874  0.67879  1.0000
  H   H7953     1.0  0.95432  0.31189  0.87030  1.0000
  H   H7954     1.0  0.78577  0.45282  0.95313  1.0000
  H   H7955     1.0  0.98625  0.34967  0.80335  1.0000
  H   H7956     1.0  0.93373  0.31160  0.55378  1.0000
  H   H7957     1.0  0.91492  0.42319  0.72549  1.0000
  N   N336      1.0  0.97340  0.38807  0.70710  1.0000
  H   H7958     1.0  0.95545  0.32383  0.57587  1.0000
  H   H7959     1.0  0.80292  0.30549  0.95199  1.0000
  H   H7960     1.0  0.94376  0.25468  0.91486  1.0000
  H   H7961     1.0  0.83576  0.28888  0.95626  1.0000
  C   C4649     1.0  0.90566  0.44940  0.76592  1.0000
  H   H7962     1.0  0.97387  0.40284  0.68540  1.0000
  C   C4650     1.0  0.84100  0.27733  0.95926  1.0000
  H   H7963     1.0  0.98591  0.31368  0.80340  1.0000
  H   H7964     1.0  0.88526  0.24035  0.55240  1.0000
  H   H7965     1.0  0.93409  0.43378  0.63401  1.0000
  C   C4651     1.0  0.85485  0.27323  0.96338  1.0000
  H   H7966     1.0  0.85939  0.23585  0.97074  1.0000
  H   H7967     1.0  0.90854  0.29684  0.67347  1.0000
  H   H7968     1.0  0.97565  0.33071  0.55534  1.0000
  H   H7969     1.0  0.94877  0.29346  0.68946  1.0000
  H   H7970     1.0  0.96328  0.27744  0.75259  1.0000
  N   N337      1.0  0.88189  0.41420  0.84391  1.0000
  C   C4652     1.0  0.89120  0.40893  0.85552  1.0000
  C   C4653     1.0  0.89011  0.40602  0.83176  1.0000
  C   C4654     1.0  0.86699  0.41003  0.85094  1.0000
  C   C4655     1.0  0.88007  0.43072  0.83870  1.0000
  C   C4656     1.0  0.88365  0.41315  0.87058  1.0000
  C   C4657     1.0  0.90562  0.40926  0.82349  1.0000
  C   C4658     1.0  0.85565  0.41384  0.84110  1.0000
  C   C4659     1.0  0.87468  0.43814  0.82411  1.0000
  H   H7971     1.0  0.89495  0.39663  0.85795  1.0000
  H   H7972     1.0  0.90163  0.41327  0.85149  1.0000
  H   H7973     1.0  0.88368  0.40806  0.82324  1.0000
  H   H7974     1.0  0.89177  0.39386  0.83634  1.0000
  H   H7975     1.0  0.86864  0.39795  0.85603  1.0000
  H   H7976     1.0  0.86098  0.41573  0.86011  1.0000
  H   H7977     1.0  0.87234  0.43643  0.84738  1.0000
  H   H7978     1.0  0.89092  0.43370  0.83700  1.0000
  H   H7979     1.0  0.87568  0.40604  0.87726  1.0000
  H   H7980     1.0  0.89229  0.41126  0.87697  1.0000
  H   H7981     1.0  0.87779  0.42491  0.86943  1.0000
  H   H7982     1.0  0.91375  0.40523  0.83074  1.0000
  H   H7983     1.0  0.91016  0.40325  0.81436  1.0000
  H   H7984     1.0  0.90505  0.42119  0.81844  1.0000
  H   H7985     1.0  0.86003  0.40924  0.83107  1.0000
  H   H7986     1.0  0.85117  0.42593  0.83820  1.0000
  H   H7987     1.0  0.84594  0.40888  0.84758  1.0000
  H   H7988     1.0  0.87206  0.43070  0.81884  1.0000
  H   H7989     1.0  0.88326  0.44374  0.81590  1.0000
  H   H7990     1.0  0.90040  0.32487  0.69741  1.0000
  N   N338      1.0  0.86087  0.35312  0.79466  1.0000
  C   C4660     1.0  0.86858  0.33847  0.79038  1.0000
  C   C4661     1.0  0.84928  0.36057  0.78548  1.0000
  C   C4662     1.0  0.85316  0.34977  0.81076  1.0000
  C   C4663     1.0  0.87245  0.36203  0.79206  1.0000
  C   C4664     1.0  0.88045  0.32838  0.79902  1.0000
  C   C4665     1.0  0.85539  0.36378  0.76858  1.0000
  C   C4666     1.0  0.84468  0.36309  0.81779  1.0000
  C   C4667     1.0  0.86692  0.37904  0.78997  1.0000
  H   H7991     1.0  0.86026  0.33189  0.79147  1.0000
  H   H7992     1.0  0.87450  0.34019  0.77856  1.0000
  H   H7993     1.0  0.84259  0.37118  0.78830  1.0000
  H   H7994     1.0  0.84090  0.35368  0.78793  1.0000
  H   H7995     1.0  0.84513  0.34265  0.81259  1.0000
  H   H7996     1.0  0.86132  0.34336  0.81767  1.0000
  H   H7997     1.0  0.87848  0.35813  0.80123  1.0000
  H   H7998     1.0  0.88117  0.36016  0.78194  1.0000
  H   H7999     1.0  0.87529  0.32317  0.81040  1.0000
  H   H8000     1.0  0.88678  0.31920  0.79335  1.0000
  H   H8001     1.0  0.88874  0.33427  0.79931  1.0000
  H   H8002     1.0  0.84659  0.37165  0.76307  1.0000
  H   H8003     1.0  0.86529  0.36877  0.76515  1.0000
  H   H8004     1.0  0.85830  0.35357  0.76426  1.0000
  H   H8005     1.0  0.83911  0.35889  0.82940  1.0000
  H   H8006     1.0  0.83577  0.37043  0.81219  1.0000
  H   H8007     1.0  0.85246  0.36941  0.81845  1.0000
  H   H8008     1.0  0.87314  0.38316  0.79556  1.0000
  H   H8009     1.0  0.85497  0.38304  0.79455  1.0000
  H   H8010     1.0  0.86976  0.38455  0.77811  1.0000
  S   S1340     1.0  0.93771  0.24180  0.49741  1.0000
  C   C4668     1.0  0.94311  0.47444  0.62067  1.0000
  H   H8011     1.0  0.95465  0.44550  0.63022  1.0000
  C   C4669     1.0  0.96615  0.33063  0.80801  1.0000
  H   H8012     1.0  0.98240  0.29376  0.68508  1.0000
  H   H8013     1.0  0.92041  0.44906  0.63989  1.0000
  H   H8014     1.0  0.98546  0.36519  0.70905  1.0000
  C   C4670     1.0  0.94836  0.26220  0.91785  1.0000
  H   H8015     1.0  0.89756  0.32113  0.68166  1.0000
  C   C4671     1.0  0.98242  0.29837  0.69405  1.0000
  C   C4672     1.0  0.92199  0.44736  0.75697  1.0000
  C   C4673     1.0  0.97064  0.46318  0.63368  1.0000
  H   H8016     1.0  0.97243  0.46916  0.62195  1.0000
  H   H8017     1.0  0.85886  0.30954  0.96556  1.0000
  C   C4674     1.0  0.91075  0.24690  0.53265  1.0000
  H   H8018     1.0  0.98824  0.37138  0.68172  1.0000
  C   C4675     1.0  0.98252  0.31055  0.71708  1.0000
  C   C4676     1.0  0.85512  0.29378  0.89776  1.0000
  H   H8019     1.0  0.85945  0.23403  0.60772  1.0000
  H   H8020     1.0  0.93880  0.47801  0.87786  1.0000
  Fe  Fe675     1.0  0.94048  0.34880  0.78731  1.0000
  H   H8021     1.0  0.93033  0.32228  0.86700  1.0000
  C   C4677     1.0  0.94565  0.31530  0.76612  1.0000
  H   H8022     1.0  0.95712  0.40889  0.70707  1.0000
  S   S1341     1.0  0.95955  0.47389  0.70208  1.0000
  C   C4678     1.0  0.79295  0.41754  0.88041  1.0000
  H   H8023     1.0  0.92832  0.43675  0.76263  1.0000
  H   H8024     1.0  0.94504  0.43133  0.73970  1.0000
  H   H8025     1.0  0.91018  0.31434  0.48916  1.0000
  H   H8026     1.0  0.97292  0.43887  0.66428  1.0000
  C   C4679     1.0  0.92999  0.30804  0.90429  1.0000
  H   H8027     1.0  0.83083  0.44789  0.87327  1.0000
  H   H8028     1.0  0.86958  0.45345  0.87595  1.0000
  H   H8029     1.0  0.98378  0.26383  0.82953  1.0000
  H   H8030     1.0  0.78216  0.46751  0.88913  1.0000
  H   H8031     1.0  0.96996  0.24651  0.61381  1.0000
  H   H8032     1.0  0.91125  0.24115  0.59586  1.0000
  N   N339      1.0  0.96165  0.31649  0.55523  1.0000
  C   C4680     1.0  0.97892  0.30623  0.76725  1.0000
  C   C4681     1.0  0.94778  0.32728  0.55124  1.0000
  H   H8033     1.0  0.92188  0.47140  0.73589  1.0000
  C   C4682     1.0  0.96418  0.30199  0.55089  1.0000
  H   H8034     1.0  0.95276  0.46875  0.61318  1.0000
  H   H8035     1.0  0.98171  0.39597  0.78639  1.0000
  H   H8036     1.0  0.95520  0.34483  0.83891  1.0000
  Fe  Fe676     1.0  0.98570  0.27326  0.87372  1.0000
  S   S1342     1.0  0.75458  0.45043  0.92146  1.0000
  H   H8037     1.0  0.84600  0.35271  0.92552  1.0000
  S   S1343     1.0  0.93906  0.35639  0.76358  1.0000
  C   C4683     1.0  0.90110  0.26180  0.53610  1.0000
  C   C4684     1.0  0.97541  0.24284  0.69210  1.0000
  S   S1344     1.0  0.98116  0.33853  0.69976  1.0000
  H   H8038     1.0  0.77418  0.33574  0.94793  1.0000
  H   H8039     1.0  0.74541  0.30005  0.94630  1.0000
  H   H8040     1.0  0.97815  0.37633  0.82181  1.0000
  H   H8041     1.0  0.97729  0.29326  0.57592  1.0000
  H   H8042     1.0  0.86915  0.34877  0.93422  1.0000
  H   H8043     1.0  0.78791  0.31813  0.96080  1.0000
  H   H8044     1.0  0.95291  0.47956  0.64325  1.0000
  H   H8045     1.0  0.95087  0.39156  0.80803  1.0000
  H   H8046     1.0  0.89887  0.46050  0.76206  1.0000
  C   C4685     1.0  0.87567  0.45653  0.86474  1.0000
  C   C4686     1.0  0.89077  0.44978  0.86066  1.0000
  H   H8047     1.0  0.94604  0.33763  0.55509  1.0000
  S   S1345     1.0  0.82622  0.48142  0.92320  1.0000
  C   C4687     1.0  0.92103  0.31989  0.65885  1.0000
  H   H8048     1.0  0.77518  0.38992  0.93607  1.0000
  H   H8049     1.0  0.95850  0.28585  0.79226  1.0000
  C   C4688     1.0  0.95989  0.39141  0.81325  1.0000
  Fe  Fe677     1.0  0.99287  0.30227  0.85571  1.0000
  C   C4689     1.0  0.93750  0.45878  0.85875  1.0000
  C   C4690     1.0  0.89856  0.45318  0.84601  1.0000
  S   S1346     1.0  0.91690  0.44344  0.84087  1.0000
  C   C4691     1.0  0.97458  0.47049  0.84312  1.0000
  S   S1347     1.0  0.87929  0.25263  0.97175  1.0000
  S   S1348     1.0  0.84935  0.47483  0.85903  1.0000
  H   H8050     1.0  0.90547  0.46598  0.73783  1.0000
  C   C4692     1.0  0.95169  0.29689  0.78802  1.0000
  H   H8051     1.0  0.93439  0.39976  0.71825  1.0000
  C   C4693     1.0  0.89126  0.46338  0.83541  1.0000
  N   N340      1.0  0.74837  0.40237  0.92491  1.0000
  N   N341      1.0  0.76818  0.31622  0.94592  1.0000
  H   H8052     1.0  0.76426  0.28872  0.94323  1.0000
  C   C4694     1.0  0.75514  0.31733  0.95898  1.0000
  H   H8053     1.0  0.75489  0.38197  0.94063  1.0000
  H   H8054     1.0  0.92844  0.30885  0.79525  1.0000
  C   C4695     1.0  0.95742  0.33937  0.81806  1.0000
  C   C4696     1.0  0.96166  0.23887  0.63712  1.0000
  C   C4697     1.0  0.96561  0.30261  0.53447  1.0000
  H   H8055     1.0  0.98517  0.37617  0.76773  1.0000
  C   C4698     1.0  0.87331  0.24920  0.60480  1.0000
  C   C4699     1.0  0.85424  0.24745  0.96763  1.0000
  H   H8056     1.0  0.93174  0.46277  0.66818  1.0000
  H   H8057     1.0  0.97218  0.25507  0.69028  1.0000
  H   H8058     1.0  0.94692  0.46197  0.86075  1.0000
  H   H8059     1.0  0.82491  0.29850  0.90843  1.0000
  C   C4700     1.0  0.97499  0.32798  0.83414  1.0000
  C   C4701     1.0  0.97916  0.32051  0.81110  1.0000
  H   H8060     1.0  0.92259  0.24805  0.52877  1.0000
  H   H8061     1.0  0.80260  0.46743  0.94670  1.0000
  H   H8062     1.0  0.84032  0.28535  0.92798  1.0000
  H   H8063     1.0  0.93946  0.28271  0.65642  1.0000
  H   H8064     1.0  0.89047  0.47645  0.87008  1.0000
  H   H8065     1.0  0.95442  0.39288  0.82467  1.0000
  C   C4702     1.0  0.97326  0.30449  0.57825  1.0000
  H   H8066     1.0  0.88899  0.26215  0.53843  1.0000
  C   C4703     1.0  0.79750  0.47499  0.95449  1.0000
  H   H8067     1.0  0.96808  0.25802  0.81616  1.0000
  H   H8068     1.0  0.92201  0.27782  0.65968  1.0000
  S   S1349     1.0  0.85594  0.46706  0.89996  1.0000
  H   H8069     1.0  0.86549  0.27865  0.92394  1.0000
  C   C4704     1.0  0.91656  0.43657  0.73948  1.0000
  H   H8070     1.0  0.92717  0.25085  0.54972  1.0000
  H   H8071     1.0  0.82251  0.46972  0.97729  1.0000
  H   H8072     1.0  0.78163  0.47259  0.86982  1.0000
  H   H8073     1.0  0.94554  0.33295  0.74631  1.0000
  H   H8074     1.0  0.76313  0.41759  0.91390  1.0000
  C   C4705     1.0  0.94323  0.30449  0.66769  1.0000
  H   H8075     1.0  0.78184  0.45068  0.92810  1.0000
  C   C4706     1.0  0.87251  0.48153  0.94743  1.0000
  H   H8076     1.0  0.98236  0.31532  0.72601  1.0000
  H   H8077     1.0  0.98265  0.32021  0.68040  1.0000
  H   H8078     1.0  0.82342  0.31575  0.91335  1.0000
  H   H8079     1.0  0.90242  0.24375  0.56391  1.0000
  C   C4707     1.0  0.92196  0.33555  0.65896  1.0000
  C   C4708     1.0  0.86834  0.46671  0.85416  1.0000
  H   H8080     1.0  0.90995  0.29843  0.91131  1.0000
  C   C4709     1.0  0.98821  0.40819  0.70259  1.0000
  H   H8081     1.0  0.85426  0.27503  0.88997  1.0000
  H   H8082     1.0  0.91877  0.47868  0.71206  1.0000
  C   C4710     1.0  0.93313  0.32171  0.55743  1.0000
  H   H8083     1.0  0.80676  0.46335  0.87044  1.0000
  C   C4711     1.0  0.80900  0.45247  0.86742  1.0000
  C   C4712     1.0  0.87079  0.23550  0.60511  1.0000
  H   H8084     1.0  0.97784  0.41694  0.70385  1.0000
  S   S1350     1.0  0.77777  0.26001  0.96383  1.0000
  H   H8085     1.0  0.78372  0.42213  0.87443  1.0000
  C   C4713     1.0  0.84010  0.29722  0.92265  1.0000
  C   C4714     1.0  0.87059  0.29627  0.92961  1.0000
  H   H8086     1.0  0.83891  0.30264  0.93178  1.0000
  C   C4715     1.0  0.96574  0.27810  0.91175  1.0000
  H   H8087     1.0  0.84647  0.30105  0.89165  1.0000
  H   H8088     1.0  0.87933  0.28801  0.93491  1.0000
  H   H8089     1.0  0.99060  0.30360  0.76086  1.0000
  C   C4716     1.0  0.92610  0.33723  0.88088  1.0000
  H   H8090     1.0  0.86739  0.32184  0.88401  1.0000
  H   H8091     1.0  0.96533  0.28835  0.92909  1.0000
  H   H8092     1.0  0.81601  0.43696  0.89289  1.0000
  H   H8093     1.0  0.83422  0.45382  0.97083  1.0000
  H   H8094     1.0  0.80131  0.45168  0.89671  1.0000
  C   C4717     1.0  0.77820  0.46507  0.88057  1.0000
  H   H8095     1.0  0.80553  0.45489  0.85674  1.0000
  C   C4718     1.0  0.86889  0.31921  0.89552  1.0000
  H   H8096     1.0  0.97802  0.42109  0.64818  1.0000
  C   C4719     1.0  0.86733  0.28995  0.91816  1.0000
  C   C4720     1.0  0.82544  0.30359  0.91716  1.0000
  H   H8097     1.0  0.81603  0.30114  0.92657  1.0000
  H   H8098     1.0  0.77513  0.47809  0.95036  1.0000
  H   H8099     1.0  0.93755  0.31821  0.74610  1.0000
  H   H8100     1.0  0.94459  0.27768  0.75266  1.0000
  C   C4721     1.0  0.78636  0.33148  0.92691  1.0000
  C   C4722     1.0  0.80382  0.44083  0.89370  1.0000
  H   H8101     1.0  0.94727  0.34711  0.81578  1.0000
  H   H8102     1.0  0.92753  0.31776  0.64785  1.0000
  H   H8103     1.0  0.91260  0.46987  0.66749  1.0000
  H   H8104     1.0  0.96508  0.40102  0.80751  1.0000
  N   N342      1.0  0.85433  0.29905  0.91127  1.0000
  H   H8105     1.0  0.87783  0.28798  0.90965  1.0000
  H   H8106     1.0  0.87485  0.30655  0.92451  1.0000
  H   H8107     1.0  0.95599  0.30507  0.79083  1.0000
  H   H8108     1.0  0.96799  0.40592  0.74390  1.0000
  S   S1351     1.0  0.98060  0.32594  0.85050  1.0000
  S   S1352     1.0  0.82354  0.33533  0.93378  1.0000
  H   H8109     1.0  0.94376  0.44379  0.72278  1.0000
  H   H8110     1.0  0.79839  0.40640  0.87807  1.0000
  H   H8111     1.0  0.78792  0.34305  0.92295  1.0000
  H   H8112     1.0  0.98218  0.28867  0.73065  1.0000
  H   H8113     1.0  0.81487  0.42054  0.87890  1.0000
  H   H8114     1.0  0.79841  0.43198  0.91728  1.0000
  H   H8115     1.0  0.96627  0.36776  0.71000  1.0000
  S   S1353     1.0  0.96153  0.33250  0.79119  1.0000
  C   C4723     1.0  0.97225  0.23862  0.62378  1.0000
  N   N343      1.0  0.80016  0.44217  0.87913  1.0000
  S   S1354     1.0  0.96722  0.26332  0.89050  1.0000
  C   C4724     1.0  0.99013  0.24047  0.66721  1.0000
  C   C4725     1.0  0.79703  0.42986  0.90708  1.0000
  H   H8116     1.0  0.95244  0.32837  0.88823  1.0000
  C   C4726     1.0  0.97861  0.36821  0.77549  1.0000
  C   C4727     1.0  0.97513  0.32337  0.54847  1.0000
  C   C4728     1.0  0.85467  0.31524  0.90666  1.0000
  H   H8117     1.0  0.86593  0.29469  0.88972  1.0000
  H   H8118     1.0  0.85270  0.32015  0.91634  1.0000
  H   H8119     1.0  0.84294  0.27565  0.90803  1.0000
  H   H8120     1.0  0.95057  0.30695  0.57732  1.0000
  C   C4729     1.0  0.81075  0.45577  0.97178  1.0000
  C   C4730     1.0  0.84880  0.34325  0.93419  1.0000
  H   H8121     1.0  0.90566  0.44868  0.77759  1.0000
  H   H8122     1.0  0.80282  0.41827  0.90652  1.0000
  H   H8123     1.0  0.80773  0.42862  0.86272  1.0000
  C   C4731     1.0  0.80466  0.42729  0.87496  1.0000
  H   H8124     1.0  0.98008  0.24249  0.95452  1.0000
  H   H8125     1.0  0.94445  0.44344  0.64875  1.0000
  C   C4732     1.0  0.85373  0.27761  0.90063  1.0000
  C   C4733     1.0  0.83933  0.33335  0.94059  1.0000
  H   H8126     1.0  0.95151  0.29409  0.74412  1.0000
  Fe  Fe678     1.0  0.91971  0.27932  0.96582  1.0000
  H   H8127     1.0  0.97215  0.29773  0.75265  1.0000
  C   C4734     1.0  0.77750  0.46166  0.92220  1.0000
  H   H8128     1.0  0.89884  0.30647  0.69783  1.0000
  H   H8129     1.0  0.92710  0.24122  0.56832  1.0000
  H   H8130     1.0  0.91108  0.30917  0.92303  1.0000
  C   C4735     1.0  0.91770  0.46310  0.73329  1.0000
  H   H8131     1.0  0.90767  0.24578  0.52279  1.0000
  H   H8132     1.0  0.96333  0.28988  0.67393  1.0000
  H   H8133     1.0  0.83117  0.45459  0.85417  1.0000
  C   C4736     1.0  0.98229  0.31953  0.70296  1.0000
  H   H8134     1.0  0.91364  0.46278  0.86409  1.0000
  C   C4737     1.0  0.93172  0.29491  0.88558  1.0000
  H   H8135     1.0  0.94994  0.29033  0.86634  1.0000
  C   C4738     1.0  0.98229  0.28944  0.70821  1.0000
  C   C4739     1.0  0.92339  0.46378  0.66181  1.0000
  N   N344      1.0  0.98122  0.37362  0.79938  1.0000
  H   H8136     1.0  0.96333  0.38380  0.78752  1.0000
  C   C4740     1.0  0.95134  0.30797  0.88254  1.0000
  H   H8137     1.0  0.97840  0.45908  0.84843  1.0000
  H   H8138     1.0  0.95134  0.44905  0.74951  1.0000
  S   S1355     1.0  0.81723  0.27172  0.95266  1.0000
  H   H8139     1.0  0.86391  0.25819  0.60717  1.0000
  H   H8140     1.0  0.77541  0.44223  0.96876  1.0000
  H   H8141     1.0  0.93348  0.33613  0.65852  1.0000
  C   C4741     1.0  0.98249  0.31338  0.69141  1.0000
  Fe  Fe679     1.0  0.89026  0.27009  0.97263  1.0000
  C   C4742     1.0  0.94095  0.44316  0.73482  1.0000
  Fe  Fe680     1.0  0.98914  0.25650  0.73180  1.0000
  H   H8142     1.0  0.93612  0.29500  0.80932  1.0000
  H   H8143     1.0  0.97968  0.41845  0.75538  1.0000
  H   H8144     1.0  0.96997  0.31633  0.88327  1.0000
  Fe  Fe681     1.0  0.89090  0.30236  0.96656  1.0000
  C   C4743     1.0  0.94916  0.27470  0.93612  1.0000
  C   C4744     1.0  0.77410  0.40148  0.92965  1.0000
  H   H8145     1.0  0.93346  0.31708  0.77110  1.0000
  H   H8146     1.0  0.90435  0.44129  0.74053  1.0000
  H   H8147     1.0  0.93369  0.42339  0.72476  1.0000
  H   H8148     1.0  0.94695  0.46389  0.73398  1.0000
  H   H8149     1.0  0.78484  0.43141  0.90850  1.0000
  H   H8150     1.0  0.97444  0.31819  0.76335  1.0000
  S   S1356     1.0  0.97302  0.25577  0.78599  1.0000
  H   H8151     1.0  0.78821  0.41588  0.89240  1.0000
  H   H8152     1.0  0.93489  0.28159  0.86971  1.0000
  C   C4745     1.0  0.86564  0.32879  0.95034  1.0000
  H   H8153     1.0  0.92430  0.30259  0.69475  1.0000
  H   H8154     1.0  0.95213  0.24113  0.69759  1.0000
  H   H8155     1.0  0.94824  0.28076  0.67890  1.0000
  S   S1357     1.0  0.90175  0.28509  0.95314  1.0000
  H   H8156     1.0  0.92205  0.43912  0.71508  1.0000
  H   H8157     1.0  0.78554  0.40251  0.92329  1.0000
  C   C4746     1.0  0.93562  0.29761  0.79750  1.0000
  H   H8158     1.0  0.99272  0.27507  0.91967  1.0000
  C   C4747     1.0  0.84035  0.25156  0.96367  1.0000
  H   H8159     1.0  0.92641  0.45623  0.75850  1.0000
  S   S1358     1.0  0.88231  0.32596  0.95602  1.0000
  C   C4748     1.0  0.83385  0.26651  0.95915  1.0000
  Fe  Fe682     1.0  0.84211  0.47650  0.88278  1.0000
  H   H8160     1.0  0.93119  0.45107  0.62107  1.0000
  H   H8161     1.0  0.97005  0.30299  0.59046  1.0000
  H   H8162     1.0  0.97960  0.30383  0.77899  1.0000
  H   H8163     1.0  0.93409  0.26048  0.93976  1.0000
  C   C4749     1.0  0.95817  0.31660  0.88925  1.0000
  H   H8164     1.0  0.94929  0.32321  0.77008  1.0000
  H   H8165     1.0  0.96371  0.36500  0.79677  1.0000
  H   H8166     1.0  0.93379  0.29312  0.77020  1.0000
  H   H8167     1.0  0.76578  0.46775  0.88351  1.0000
  C   C4750     1.0  0.90337  0.31622  0.69088  1.0000
  C   C4751     1.0  0.78379  0.44871  0.87942  1.0000
  C   C4752     1.0  0.92598  0.32191  0.87902  1.0000
  C   C4753     1.0  0.84285  0.32135  0.95209  1.0000
  H   H8168     1.0  0.94712  0.31429  0.66771  1.0000
  C   C4754     1.0  0.94666  0.32077  0.74935  1.0000
  H   H8169     1.0  0.77658  0.44236  0.88866  1.0000
  C   C4755     1.0  0.95079  0.45183  0.73769  1.0000
  C   C4756     1.0  0.76376  0.46481  0.91825  1.0000
  C   C4757     1.0  0.95106  0.29133  0.67825  1.0000
  C   C4758     1.0  0.85610  0.31894  0.95683  1.0000
  C   C4759     1.0  0.86163  0.25826  0.96728  1.0000
  C   C4760     1.0  0.96241  0.23825  0.68915  1.0000
  H   H8170     1.0  0.94355  0.39224  0.70239  1.0000
  S   S1359     1.0  0.82215  0.46803  0.89695  1.0000
  C   C4761     1.0  0.95851  0.39719  0.71335  1.0000
  H   H8171     1.0  0.78109  0.44806  0.86916  1.0000
  H   H8172     1.0  0.83492  0.24314  0.96362  1.0000
  H   H8173     1.0  0.92586  0.33752  0.89228  1.0000
  C   C4762     1.0  0.97431  0.37177  0.71350  1.0000
  H   H8174     1.0  0.93588  0.34133  0.87320  1.0000
  C   C4763     1.0  0.94283  0.26551  0.93193  1.0000
  C   C4764     1.0  0.92724  0.28725  0.65812  1.0000
  Fe  Fe683     1.0  0.80041  0.25865  0.96755  1.0000
  S   S1360     1.0  0.94403  0.27747  0.95426  1.0000
  H   H8175     1.0  0.97442  0.28315  0.90404  1.0000
  H   H8176     1.0  0.94760  0.27809  0.77696  1.0000
  H   H8177     1.0  0.93038  0.46144  0.71046  1.0000
  C   C4765     1.0  0.98355  0.31917  0.82414  1.0000
  H   H8178     1.0  0.97395  0.45107  0.63442  1.0000
  H   H8179     1.0  0.86033  0.28161  0.96341  1.0000
  H   H8180     1.0  0.97514  0.28480  0.76897  1.0000
  H   H8181     1.0  0.75466  0.29671  0.92850  1.0000
  H   H8182     1.0  0.82690  0.46940  0.95788  1.0000
  H   H8183     1.0  0.98567  0.35684  0.77703  1.0000
  S   S1361     1.0  0.98188  0.27077  0.71126  1.0000
  H   H8184     1.0  0.92441  0.47128  0.93213  1.0000
  H   H8185     1.0  0.75396  0.32214  0.93023  1.0000
  H   H8186     1.0  0.90352  0.47917  0.92047  1.0000
  C   C4766     1.0  0.98970  0.38228  0.68215  1.0000
  H   H8187     1.0  0.98359  0.26061  0.94830  1.0000
  H   H8188     1.0  0.97513  0.23900  0.70418  1.0000
  H   H8189     1.0  0.99252  0.38882  0.67067  1.0000
  C   C4767     1.0  0.99175  0.24714  0.93146  1.0000
  H   H8190     1.0  0.97484  0.32766  0.52469  1.0000
  H   H8191     1.0  0.75159  0.30665  0.96343  1.0000
  C   C4768     1.0  0.97611  0.33316  0.53271  1.0000
  H   H8192     1.0  0.98362  0.47662  0.78628  1.0000
  H   H8193     1.0  0.98565  0.31466  0.54833  1.0000
  H   H8194     1.0  0.94746  0.47164  0.91316  1.0000
  C   C4769     1.0  0.98856  0.24890  0.94750  1.0000
  H   H8195     1.0  0.74740  0.48163  0.90780  1.0000
  C   C4770     1.0  0.82418  0.46280  0.96930  1.0000
  H   H8196     1.0  0.98728  0.33599  0.52868  1.0000
  H   H8197     1.0  0.97726  0.30265  0.52812  1.0000
  C   C4771     1.0  0.98943  0.38575  0.79084  1.0000
  H   H8198     1.0  0.91809  0.47358  0.64041  1.0000
  H   H8199     1.0  0.92187  0.45260  0.66254  1.0000
  H   H8200     1.0  0.91956  0.48113  0.90593  1.0000
  C   C4772     1.0  0.78391  0.45795  0.97469  1.0000
  H   H8201     1.0  0.91039  0.46363  0.71346  1.0000
  H   H8202     1.0  0.98108  0.36854  0.73441  1.0000
  H   H8203     1.0  0.99324  0.40867  0.69067  1.0000
  C   C4773     1.0  0.75759  0.32111  0.97246  1.0000
  H   H8204     1.0  0.79531  0.43798  0.96570  1.0000
  H   H8205     1.0  0.77271  0.46558  0.97510  1.0000
  H   H8206     1.0  0.74991  0.42519  0.89628  1.0000
  C   C4774     1.0  0.75292  0.34000  0.90043  1.0000
  C   C4775     1.0  0.92742  0.47246  0.64570  1.0000
  C   C4776     1.0  0.74516  0.35368  0.90379  1.0000
  H   H8207     1.0  0.92822  0.48099  0.83589  1.0000
  H   H8208     1.0  0.96818  0.48062  0.91422  1.0000
  H   H8209     1.0  0.80526  0.48249  0.95193  1.0000
  H   H8210     1.0  0.74659  0.39981  0.90389  1.0000
  H   H8211     1.0  0.93959  0.48238  0.75268  1.0000
  H   H8212     1.0  0.74529  0.32565  0.95550  1.0000
  C   C4777     1.0  0.92118  0.48342  0.92760  1.0000
  C   C4778     1.0  0.84537  0.57151  0.05567  1.0000
  H   H8213     1.0  0.91087  0.54991  0.27871  1.0000
  S   S1362     1.0  0.79389  0.52213  0.09630  1.0000
  H   H8214     1.0  0.91397  0.48751  0.44266  1.0000
  H   H8215     1.0  0.86307  0.49988  0.21811  1.0000
  S   S1363     1.0  0.82366  0.48793  0.19538  1.0000
  H   H8216     1.0  0.93928  0.60259  0.33944  1.0000
  Fe  Fe684     1.0  0.89397  0.51735  0.99696  1.0000
  S   S1364     1.0  0.89379  0.51057  0.02148  1.0000
  H   H8217     1.0  0.86380  0.49830  0.35735  1.0000
  S   S1365     1.0  0.96713  0.62976  0.36346  1.0000
  C   C4779     1.0  0.87078  0.49874  0.15219  1.0000
  H   H8218     1.0  0.87933  0.48557  0.18286  1.0000
  H   H8219     1.0  0.82930  0.55884  0.09102  1.0000
  S   S1366     1.0  0.83139  0.52734  0.09380  1.0000
  Fe  Fe685     1.0  0.92624  0.53253  0.07534  1.0000
  S   S1367     1.0  0.92062  0.55404  0.08247  1.0000
  S   S1368     1.0  0.93323  0.53209  0.05099  1.0000
  Fe  Fe686     1.0  0.91874  0.51523  0.10707  1.0000
  S   S1369     1.0  0.91228  0.53542  0.11672  1.0000
  C   C4780     1.0  0.76100  0.52547  0.03152  1.0000
  Fe  Fe687     1.0  0.90059  0.54615  0.09788  1.0000
  S   S1370     1.0  0.87730  0.56066  0.09904  1.0000
  Fe  Fe688     1.0  0.93284  0.54132  0.10061  1.0000
  S   S1371     1.0  0.94882  0.55100  0.10662  1.0000
  S   S1372     1.0  0.90552  0.52554  0.08955  1.0000
  S   S1373     1.0  0.94023  0.52032  0.09217  1.0000
  Fe  Fe689     1.0  0.98225  0.53280  0.17737  1.0000
  C   C4781     1.0  0.76231  0.61266  0.11789  1.0000
  S   S1374     1.0  0.96407  0.52749  0.17004  1.0000
  H   H8220     1.0  0.74864  0.58849  0.04884  1.0000
  H   H8221     1.0  0.75767  0.56135  0.03187  1.0000
  C   C4782     1.0  0.90457  0.49458  0.16908  1.0000
  S   S1375     1.0  0.88949  0.54108  0.98460  1.0000
  H   H8222     1.0  0.79056  0.52181  0.15136  1.0000
  H   H8223     1.0  0.74696  0.51356  0.15193  1.0000
  H   H8224     1.0  0.97704  0.49373  0.28027  1.0000
  C   C4783     1.0  0.99305  0.54233  0.09765  1.0000
  S   S1376     1.0  0.97537  0.53553  0.20079  1.0000
  S   S1377     1.0  0.79084  0.55525  0.10117  1.0000
  H   H8225     1.0  0.90320  0.66495  0.46306  1.0000
  H   H8226     1.0  0.97526  0.51076  0.31036  1.0000
  S   S1378     1.0  0.89245  0.49909  0.27094  1.0000
  S   S1379     1.0  0.92961  0.50885  0.26426  1.0000
  S   S1380     1.0  0.97843  0.69297  0.36759  1.0000
  C   C4784     1.0  0.98378  0.61325  0.38386  1.0000
  C   C4785     1.0  0.97827  0.52159  0.28236  1.0000
  H   H8227     1.0  0.88696  0.50784  0.45322  1.0000
  C   C4786     1.0  0.86203  0.48915  0.22509  1.0000
  H   H8228     1.0  0.91448  0.49982  0.40374  1.0000
  H   H8229     1.0  0.82131  0.53785  0.03893  1.0000
  H   H8230     1.0  0.92663  0.50016  0.16294  1.0000
  H   H8231     1.0  0.92399  0.62174  0.41224  1.0000
  C   C4787     1.0  0.99272  0.54655  0.24177  1.0000
  C   C4788     1.0  0.75351  0.63983  0.07367  1.0000
  H   H8232     1.0  0.92359  0.49708  0.42583  1.0000
  C   C4789     1.0  0.90284  0.49889  0.40962  1.0000
  C   C4790     1.0  0.87648  0.51312  0.18572  1.0000
  H   H8233     1.0  0.97845  0.52427  0.12630  1.0000
  H   H8234     1.0  0.98210  0.54941  0.36244  1.0000
  H   H8235     1.0  0.96978  0.72752  0.44611  1.0000
  H   H8236     1.0  0.93322  0.49902  0.21931  1.0000
  H   H8237     1.0  0.89754  0.51216  0.18995  1.0000
  C   C4791     1.0  0.92814  0.63213  0.40892  1.0000
  H   H8238     1.0  0.89152  0.52559  0.44608  1.0000
  H   H8239     1.0  0.96168  0.54299  0.41640  1.0000
  H   H8240     1.0  0.94109  0.60261  0.35724  1.0000
  Fe  Fe690     1.0  0.93880  0.56743  0.46685  1.0000
  S   S1381     1.0  0.91654  0.57560  0.46026  1.0000
  Fe  Fe691     1.0  0.95560  0.57774  0.43546  1.0000
  S   S1382     1.0  0.93458  0.58731  0.42707  1.0000
  S   S1383     1.0  0.97784  0.58051  0.42034  1.0000
  Fe  Fe692     1.0  0.92535  0.59587  0.44775  1.0000
  S   S1384     1.0  0.91107  0.61898  0.44705  1.0000
  Fe  Fe693     1.0  0.92802  0.56603  0.44013  1.0000
  S   S1385     1.0  0.91661  0.55675  0.42804  1.0000
  S   S1386     1.0  0.94701  0.58816  0.45508  1.0000
  S   S1387     1.0  0.94959  0.55592  0.44778  1.0000
  H   H8241     1.0  0.79150  0.53236  0.16892  1.0000
  H   H8242     1.0  0.98323  0.71080  0.38412  1.0000
  H   H8243     1.0  0.76105  0.59254  0.98466  1.0000
  C   C4792     1.0  0.89303  0.51221  0.40097  1.0000
  S   S1388     1.0  0.92246  0.51302  0.36456  1.0000
  S   S1389     1.0  0.94511  0.52322  0.32430  1.0000
  S   S1390     1.0  0.76125  0.53362  0.12784  1.0000
  S   S1391     1.0  0.98213  0.56571  0.32939  1.0000
  C   C4793     1.0  0.75059  0.66156  0.09809  1.0000
  Fe  Fe694     1.0  0.91544  0.49255  0.36468  1.0000
  C   C4794     1.0  0.95015  0.65134  0.39709  1.0000
  H   H8244     1.0  0.76372  0.63519  0.11327  1.0000
  H   H8245     1.0  0.75731  0.57571  0.09618  1.0000
  H   H8246     1.0  0.94751  0.72011  0.44543  1.0000
  H   H8247     1.0  0.84573  0.54850  0.12839  1.0000
  H   H8248     1.0  0.93335  0.51029  0.23121  1.0000
  H   H8249     1.0  0.92738  0.50716  0.31545  1.0000
  C   C4795     1.0  0.92556  0.54210  0.41883  1.0000
  C   C4796     1.0  0.92077  0.54161  0.40651  1.0000
  C   C4797     1.0  0.92698  0.52960  0.39949  1.0000
  C   C4798     1.0  0.93783  0.51783  0.40496  1.0000
  C   C4799     1.0  0.94275  0.51841  0.41715  1.0000
  C   C4800     1.0  0.93668  0.53050  0.42404  1.0000
  H   H8250     1.0  0.91212  0.55054  0.40246  1.0000
  H   H8251     1.0  0.92316  0.52931  0.39007  1.0000
  H   H8252     1.0  0.95111  0.50931  0.42148  1.0000
  H   H8253     1.0  0.94030  0.53065  0.43364  1.0000
  C   C4801     1.0  0.92194  0.64872  0.47013  1.0000
  Fe  Fe695     1.0  0.93061  0.70977  0.47425  1.0000
  C   C4802     1.0  0.92735  0.62524  0.46303  1.0000
  C   C4803     1.0  0.91524  0.63022  0.45616  1.0000
  C   C4804     1.0  0.90666  0.64465  0.45602  1.0000
  C   C4805     1.0  0.91004  0.65393  0.46295  1.0000
  C   C4806     1.0  0.75866  0.63247  0.08831  1.0000
  S   S1392     1.0  0.91637  0.49250  0.12078  1.0000
  H   H8254     1.0  0.94142  0.62202  0.42499  1.0000
  H   H8255     1.0  0.93931  0.61970  0.34391  1.0000
  C   C4807     1.0  0.97128  0.61507  0.37816  1.0000
  C   C4808     1.0  0.96154  0.60546  0.38471  1.0000
  C   C4809     1.0  0.96385  0.59456  0.39740  1.0000
  C   C4810     1.0  0.97587  0.59318  0.40360  1.0000
  H   H8256     1.0  0.95194  0.60672  0.38026  1.0000
  H   H8257     1.0  0.95633  0.58722  0.40242  1.0000
  H   H8258     1.0  0.94002  0.63046  0.47540  1.0000
  H   H8259     1.0  0.81606  0.55719  0.98163  1.0000
  H   H8260     1.0  0.86088  0.57913  0.03568  1.0000
  H   H8261     1.0  0.87884  0.57857  0.04796  1.0000
  S   S1393     1.0  0.88408  0.49149  0.23671  1.0000
  C   C4811     1.0  0.87962  0.48429  0.32642  1.0000
  H   H8262     1.0  0.97474  0.54953  0.42178  1.0000
  C   C4812     1.0  0.75633  0.54086  0.02808  1.0000
  S   S1394     1.0  0.76464  0.51456  0.99719  1.0000
  C   C4813     1.0  0.86861  0.49079  0.33716  1.0000
  C   C4814     1.0  0.97117  0.55439  0.32817  1.0000
  C   C4815     1.0  0.96410  0.54564  0.34095  1.0000
  C   C4816     1.0  0.95605  0.53599  0.33987  1.0000
  C   C4817     1.0  0.95461  0.53552  0.32601  1.0000
  C   C4818     1.0  0.96109  0.54474  0.31332  1.0000
  C   C4819     1.0  0.96964  0.55389  0.31436  1.0000
  H   H8263     1.0  0.96507  0.54606  0.35163  1.0000
  H   H8264     1.0  0.95095  0.52895  0.34974  1.0000
  H   H8265     1.0  0.95962  0.54472  0.30264  1.0000
  H   H8266     1.0  0.97493  0.56061  0.30444  1.0000
  H   H8267     1.0  0.95143  0.62147  0.40663  1.0000
  C   C4820     1.0  0.90263  0.52239  0.22518  1.0000
  C   C4821     1.0  0.88869  0.48697  0.09805  1.0000
  H   H8268     1.0  0.82484  0.49334  0.13526  1.0000
  C   C4822     1.0  0.99236  0.60926  0.33369  1.0000
  C   C4823     1.0  0.80195  0.52562  0.17231  1.0000
  C   C4824     1.0  0.95280  0.72246  0.42182  1.0000
  H   H8269     1.0  0.83165  0.50174  0.00600  1.0000
  H   H8270     1.0  0.82036  0.49323  0.02313  1.0000
  C   C4825     1.0  0.89530  0.51381  0.44522  1.0000
  C   C4826     1.0  0.97684  0.50119  0.23596  1.0000
  C   C4827     1.0  0.96955  0.51515  0.23880  1.0000
  C   C4828     1.0  0.95532  0.51720  0.24809  1.0000
  C   C4829     1.0  0.94809  0.50541  0.25418  1.0000
  H   H8271     1.0  0.93360  0.51166  0.29565  1.0000
  H   H8272     1.0  0.91131  0.52415  0.20185  1.0000
  H   H8273     1.0  0.97496  0.52436  0.23392  1.0000
  H   H8274     1.0  0.94976  0.52804  0.25026  1.0000
  H   H8275     1.0  0.75719  0.51876  0.02669  1.0000
  H   H8276     1.0  0.88122  0.49809  0.09803  1.0000
  H   H8277     1.0  0.98038  0.53202  0.41686  1.0000
  C   C4830     1.0  0.89048  0.50420  0.19176  1.0000
  S   S1395     1.0  0.93738  0.71608  0.42152  1.0000
  H   H8278     1.0  0.75433  0.61259  0.05907  1.0000
  H   H8279     1.0  0.99295  0.51695  0.14780  1.0000
  C   C4831     1.0  0.93070  0.63446  0.46999  1.0000
  H   H8280     1.0  0.88102  0.51409  0.40629  1.0000
  H   H8281     1.0  0.98853  0.62064  0.33556  1.0000
  H   H8282     1.0  0.91482  0.54995  0.22277  1.0000
  H   H8283     1.0  0.93665  0.54882  0.23211  1.0000
  C   C4832     1.0  0.95187  0.54529  0.12474  1.0000
  C   C4833     1.0  0.96080  0.55214  0.12886  1.0000
  C   C4834     1.0  0.96455  0.54693  0.14279  1.0000
  C   C4835     1.0  0.95932  0.53486  0.15267  1.0000
  C   C4836     1.0  0.95010  0.52825  0.14870  1.0000
  C   C4837     1.0  0.94641  0.53341  0.13477  1.0000
  H   H8284     1.0  0.96500  0.56138  0.12115  1.0000
  H   H8285     1.0  0.97151  0.55220  0.14583  1.0000
  H   H8286     1.0  0.94602  0.51891  0.15631  1.0000
  H   H8287     1.0  0.93960  0.52801  0.13167  1.0000
  H   H8288     1.0  0.91941  0.64032  0.41449  1.0000
  S   S1396     1.0  0.94003  0.69354  0.45976  1.0000
  C   C4838     1.0  0.77020  0.51864  0.04165  1.0000
  C   C4839     1.0  0.98062  0.51035  0.11188  1.0000
  H   H8289     1.0  0.80224  0.51367  0.17461  1.0000
  H   H8290     1.0  0.82977  0.50408  0.15389  1.0000
  H   H8291     1.0  0.94111  0.55407  0.21246  1.0000
  C   C4840     1.0  0.92025  0.49197  0.19704  1.0000
  C   C4841     1.0  0.98119  0.57002  0.36673  1.0000
  C   C4842     1.0  0.87556  0.51075  0.14181  1.0000
  C   C4843     1.0  0.88912  0.50854  0.13161  1.0000
  C   C4844     1.0  0.94383  0.72446  0.37851  1.0000
  H   H8292     1.0  0.86892  0.52186  0.14176  1.0000
  H   H8293     1.0  0.89251  0.51789  0.12355  1.0000
  C   C4845     1.0  0.84330  0.53711  0.09594  1.0000
  C   C4846     1.0  0.83980  0.55253  0.09384  1.0000
  C   C4847     1.0  0.85017  0.55979  0.09504  1.0000
  C   C4848     1.0  0.86387  0.55160  0.09857  1.0000
  C   C4849     1.0  0.86684  0.53617  0.10147  1.0000
  C   C4850     1.0  0.85674  0.52898  0.09990  1.0000
  H   H8294     1.0  0.92950  0.63572  0.39675  1.0000
  H   H8295     1.0  0.84769  0.57174  0.09307  1.0000
  H   H8296     1.0  0.87679  0.52973  0.10521  1.0000
  H   H8297     1.0  0.85920  0.51703  0.10205  1.0000
  H   H8298     1.0  0.98009  0.63441  0.30327  1.0000
  H   H8299     1.0  0.75931  0.66080  0.08784  1.0000
  H   H8300     1.0  0.80318  0.48588  0.12948  1.0000
  H   H8301     1.0  0.87899  0.51667  0.17351  1.0000
  H   H8302     1.0  0.89040  0.54841  0.01315  1.0000
  C   C4851     1.0  0.97520  0.73178  0.40902  1.0000
  C   C4852     1.0  0.76998  0.54260  0.04510  1.0000
  C   C4853     1.0  0.93841  0.65083  0.42364  1.0000
  H   H8303     1.0  0.84751  0.57792  0.06246  1.0000
  N   N345      1.0  0.90067  0.49779  0.42600  1.0000
  C   C4854     1.0  0.90508  0.51659  0.02922  1.0000
  C   C4855     1.0  0.91655  0.52369  0.02050  1.0000
  C   C4856     1.0  0.92522  0.52834  0.02725  1.0000
  C   C4857     1.0  0.92222  0.52626  0.04269  1.0000
  C   C4858     1.0  0.91055  0.51947  0.05128  1.0000
  C   C4859     1.0  0.90225  0.51435  0.04463  1.0000
  H   H8304     1.0  0.91884  0.52546  0.00859  1.0000
  H   H8305     1.0  0.93422  0.53364  0.02048  1.0000
  H   H8306     1.0  0.90790  0.51822  0.06304  1.0000
  H   H8307     1.0  0.89342  0.50885  0.05145  1.0000
  S   S1397     1.0  0.99158  0.65207  0.37175  1.0000
  S   S1398     1.0  0.94495  0.50180  0.39757  1.0000
  H   H8308     1.0  0.90141  0.48861  0.40757  1.0000
  S   S1399     1.0  0.91723  0.72659  0.45903  1.0000
  N   N346      1.0  0.74709  0.63493  0.10217  1.0000
  H   H8309     1.0  0.87320  0.56167  0.01533  1.0000
  C   C4860     1.0  0.85876  0.56830  0.04280  1.0000
  H   H8310     1.0  0.83530  0.54864  0.14670  1.0000
  H   H8311     1.0  0.92113  0.53295  0.30728  1.0000
  S   S1400     1.0  0.90590  0.69847  0.45545  1.0000
  H   H8312     1.0  0.98883  0.49389  0.31080  1.0000
  Fe  Fe696     1.0  0.80839  0.53854  0.08995  1.0000
  H   H8313     1.0  0.97006  0.57459  0.36400  1.0000
  H   H8314     1.0  0.81455  0.52625  0.00772  1.0000
  C   C4861     1.0  0.77455  0.52717  0.04856  1.0000
  N   N347      1.0  0.97531  0.54655  0.38632  1.0000
  H   H8315     1.0  0.98721  0.50571  0.13271  1.0000
  H   H8316     1.0  0.93411  0.49187  0.06068  1.0000
  C   C4862     1.0  0.82850  0.51138  0.05382  1.0000
  C   C4863     1.0  0.95874  0.55080  0.38671  1.0000
  H   H8317     1.0  0.74873  0.60602  0.00643  1.0000
  Fe  Fe697     1.0  0.94065  0.50671  0.34557  1.0000
  C   C4864     1.0  0.88924  0.48878  0.43491  1.0000
  C   C4865     1.0  0.94970  0.56518  0.39175  1.0000
  H   H8318     1.0  0.98895  0.50566  0.10294  1.0000
  S   S1401     1.0  0.74831  0.49175  0.98158  1.0000
  H   H8319     1.0  0.98253  0.57534  0.37491  1.0000
  Fe  Fe698     1.0  0.98367  0.64426  0.35618  1.0000
  N   N348      1.0  0.98695  0.50658  0.28868  1.0000
  H   H8320     1.0  0.77396  0.61083  0.11124  1.0000
  H   H8321     1.0  0.95669  0.55166  0.37570  1.0000
  H   H8322     1.0  0.95310  0.54201  0.39428  1.0000
  H   H8323     1.0  0.90822  0.49469  0.09496  1.0000
  H   H8324     1.0  0.99056  0.70273  0.40745  1.0000
  C   C4866     1.0  0.96784  0.72747  0.43561  1.0000
  H   H8325     1.0  0.76267  0.62041  0.08847  1.0000
  H   H8326     1.0  0.92188  0.53217  0.23259  1.0000
  C   C4867     1.0  0.74799  0.52001  0.11525  1.0000
  C   C4868     1.0  0.93777  0.52082  0.20711  1.0000
  S   S1402     1.0  0.99011  0.58234  0.28663  1.0000
  H   H8327     1.0  0.78083  0.48453  0.97975  1.0000
  H   H8328     1.0  0.94881  0.56419  0.40366  1.0000
  H   H8329     1.0  0.93807  0.56730  0.39038  1.0000
  H   H8330     1.0  0.95419  0.57498  0.38526  1.0000
  H   H8331     1.0  0.89734  0.64863  0.45060  1.0000
  H   H8332     1.0  0.92847  0.54679  0.28342  1.0000
  H   H8333     1.0  0.83741  0.50545  0.12726  1.0000
  H   H8334     1.0  0.97520  0.56329  0.39751  1.0000
  C   C4869     1.0  0.91533  0.48991  0.43046  1.0000
  C   C4870     1.0  0.95588  0.66560  0.39367  1.0000
  C   C4871     1.0  0.96149  0.60439  0.34046  1.0000
  C   C4872     1.0  0.91898  0.54163  0.28480  1.0000
  C   C4873     1.0  0.92595  0.50595  0.30495  1.0000
  H   H8335     1.0  0.95167  0.63327  0.32274  1.0000
  Fe  Fe699     1.0  0.92002  0.68398  0.47147  1.0000
  H   H8336     1.0  0.89636  0.56740  0.06433  1.0000
  Fe  Fe700     1.0  0.92543  0.70956  0.44517  1.0000
  H   H8337     1.0  0.90303  0.55952  0.04845  1.0000
  H   H8338     1.0  0.85622  0.52857  0.06424  1.0000
  H   H8339     1.0  0.96701  0.66360  0.39611  1.0000
  H   H8340     1.0  0.94772  0.67398  0.39944  1.0000
  Fe  Fe701     1.0  0.98847  0.67410  0.35594  1.0000
  Fe  Fe702     1.0  0.77581  0.53963  0.10545  1.0000
  N   N349      1.0  0.82416  0.52076  0.02697  1.0000
  C   C4874     1.0  0.81609  0.53527  0.03135  1.0000
  C   C4875     1.0  0.75758  0.59356  0.07687  1.0000
  C   C4876     1.0  0.83957  0.52123  0.01741  1.0000
  H   H8341     1.0  0.91140  0.51515  0.16827  1.0000
  H   H8342     1.0  0.86464  0.54620  0.06912  1.0000
  C   C4877     1.0  0.85019  0.52679  0.02298  1.0000
  C   C4878     1.0  0.98859  0.71437  0.37274  1.0000
  H   H8343     1.0  0.95501  0.52110  0.29342  1.0000
  C   C4879     1.0  0.94429  0.60768  0.34529  1.0000
  H   H8344     1.0  0.84565  0.51003  0.01556  1.0000
  H   H8345     1.0  0.83901  0.52780  0.00608  1.0000
  H   H8346     1.0  0.87022  0.52681  0.04757  1.0000
  C   C4880     1.0  0.93647  0.71274  0.37702  1.0000
  H   H8347     1.0  0.94744  0.65506  0.44029  1.0000
  H   H8348     1.0  0.83862  0.51590  0.05088  1.0000
  C   C4881     1.0  0.94475  0.66078  0.42934  1.0000
  H   H8349     1.0  0.88139  0.53695  0.05975  1.0000
  H   H8350     1.0  0.98135  0.54143  0.10279  1.0000
  H   H8351     1.0  0.85728  0.51743  0.02937  1.0000
  Fe  Fe703     1.0  0.89910  0.71421  0.47082  1.0000
  C   C4882     1.0  0.75075  0.58535  0.09018  1.0000
  C   C4883     1.0  0.79272  0.53011  0.14097  1.0000
  C   C4884     1.0  0.89658  0.51306  0.42917  1.0000
  H   H8352     1.0  0.75635  0.60560  0.11549  1.0000
  H   H8353     1.0  0.98402  0.52582  0.27092  1.0000
  C   C4885     1.0  0.96454  0.63634  0.41573  1.0000
  S   S1403     1.0  0.89153  0.49237  0.36598  1.0000
  Fe  Fe704     1.0  0.75113  0.51415  0.98175  1.0000
  H   H8354     1.0  0.83555  0.57833  0.05108  1.0000
  H   H8355     1.0  0.97975  0.61329  0.29395  1.0000
  C   C4886     1.0  0.96326  0.62899  0.32456  1.0000
  C   C4887     1.0  0.89319  0.52609  0.32130  1.0000
  H   H8356     1.0  0.81406  0.50473  0.04486  1.0000
  Fe  Fe705     1.0  0.78720  0.53315  0.07482  1.0000
  H   H8357     1.0  0.97786  0.52987  0.28850  1.0000
  H   H8358     1.0  0.96537  0.59618  0.31531  1.0000
  C   C4888     1.0  0.92520  0.54400  0.18091  1.0000
  H   H8359     1.0  0.96539  0.60696  0.34908  1.0000
  S   S1404     1.0  0.85468  0.50232  0.16587  1.0000
  H   H8360     1.0  0.76252  0.63625  0.06442  1.0000
  C   C4889     1.0  0.82491  0.50830  0.04051  1.0000
  H   H8361     1.0  0.79265  0.52556  0.13164  1.0000
  C   C4890     1.0  0.97804  0.52287  0.37720  1.0000
  H   H8362     1.0  0.96538  0.59220  0.34146  1.0000
  H   H8363     1.0  0.81097  0.50617  0.15397  1.0000
  H   H8364     1.0  0.80990  0.55905  0.02317  1.0000
  H   H8365     1.0  0.92412  0.50054  0.18753  1.0000
  C   C4891     1.0  0.95522  0.72308  0.43523  1.0000
  H   H8366     1.0  0.92336  0.53193  0.27967  1.0000
  Fe  Fe706     1.0  0.78405  0.56364  0.07931  1.0000
  C   C4892     1.0  0.98417  0.55303  0.37147  1.0000
  H   H8367     1.0  0.91007  0.51043  0.29172  1.0000
  H   H8368     1.0  0.90272  0.49688  0.07833  1.0000
  H   H8369     1.0  0.77350  0.54925  0.05028  1.0000
  C   C4893     1.0  0.94315  0.62888  0.41352  1.0000
  H   H8370     1.0  0.80703  0.54879  0.01192  1.0000
  H   H8371     1.0  0.83635  0.52916  0.12608  1.0000
  C   C4894     1.0  0.96293  0.72671  0.40871  1.0000
  H   H8372     1.0  0.87190  0.52330  0.19018  1.0000
  H   H8373     1.0  0.87222  0.49570  0.42158  1.0000
  H   H8374     1.0  0.99168  0.54937  0.39639  1.0000
  C   C4895     1.0  0.87053  0.54433  0.05791  1.0000
  C   C4896     1.0  0.75468  0.62930  0.11501  1.0000
  H   H8375     1.0  0.85353  0.54137  0.04779  1.0000
  H   H8376     1.0  0.98768  0.59478  0.32308  1.0000
  H   H8377     1.0  0.88890  0.48664  0.44691  1.0000
  H   H8378     1.0  0.91310  0.54591  0.18128  1.0000
  H   H8379     1.0  0.96267  0.49083  0.32042  1.0000
  C   C4897     1.0  0.88729  0.48917  0.35060  1.0000
  H   H8380     1.0  0.89694  0.52251  0.39919  1.0000
  H   H8381     1.0  0.89929  0.52900  0.23375  1.0000
  C   C4898     1.0  0.98899  0.55158  0.22797  1.0000
  H   H8382     1.0  0.98944  0.57313  0.35637  1.0000
  H   H8383     1.0  0.89412  0.51027  0.38987  1.0000
  S   S1405     1.0  0.78588  0.51830  0.06133  1.0000
  C   C4899     1.0  0.81054  0.53839  0.97814  1.0000
  H   H8384     1.0  0.93407  0.61425  0.46317  1.0000
  H   H8385     1.0  0.96642  0.52638  0.37558  1.0000
  C   C4900     1.0  0.96994  0.48918  0.24268  1.0000
  H   H8386     1.0  0.95744  0.64454  0.38906  1.0000
  H   H8387     1.0  0.81435  0.54195  0.16033  1.0000
  H   H8388     1.0  0.89209  0.52050  0.22404  1.0000
  H   H8389     1.0  0.92963  0.49399  0.30480  1.0000
  H   H8390     1.0  0.77107  0.48777  0.14856  1.0000
  H   H8391     1.0  0.97261  0.69349  0.43489  1.0000
  S   S1406     1.0  0.79217  0.48721  0.17771  1.0000
  C   C4901     1.0  0.90434  0.48888  0.08883  1.0000
  H   H8392     1.0  0.78289  0.53955  0.14155  1.0000
  H   H8393     1.0  0.83044  0.50084  0.06213  1.0000
  H   H8394     1.0  0.99046  0.61172  0.31152  1.0000
  H   H8395     1.0  0.96095  0.51488  0.27617  1.0000
  C   C4902     1.0  0.97358  0.54340  0.41415  1.0000
  H   H8396     1.0  0.92855  0.65784  0.41915  1.0000
  C   C4903     1.0  0.86227  0.53487  0.05389  1.0000
  H   H8397     1.0  0.87442  0.54263  0.02550  1.0000
  H   H8398     1.0  0.89429  0.54922  0.06600  1.0000
  H   H8399     1.0  0.79874  0.54329  0.97951  1.0000
  H   H8400     1.0  0.89432  0.54678  0.03670  1.0000
  C   C4904     1.0  0.88017  0.55191  0.02140  1.0000
  H   H8401     1.0  0.98024  0.51064  0.38123  1.0000
  H   H8402     1.0  0.95035  0.50227  0.22067  1.0000
  S   S1407     1.0  0.76762  0.54925  0.08449  1.0000
  H   H8403     1.0  0.96599  0.64956  0.30847  1.0000
  N   N350      1.0  0.92508  0.53412  0.20887  1.0000
  C   C4905     1.0  0.92789  0.54617  0.19514  1.0000
  C   C4906     1.0  0.92430  0.54015  0.22194  1.0000
  C   C4907     1.0  0.91025  0.53069  0.21005  1.0000
  Fe  Fe707     1.0  0.75138  0.53784  0.99686  1.0000
  H   H8404     1.0  0.84455  0.53528  0.02952  1.0000
  C   C4908     1.0  0.98702  0.51482  0.12264  1.0000
  H   H8405     1.0  0.90505  0.51946  0.42212  1.0000
  S   S1408     1.0  0.95716  0.49271  0.35917  1.0000
  H   H8406     1.0  0.92075  0.55712  0.19693  1.0000
  H   H8407     1.0  0.93965  0.54751  0.19241  1.0000
  H   H8408     1.0  0.81822  0.51157  0.12516  1.0000
  S   S1409     1.0  0.91030  0.50880  0.97769  1.0000
  H   H8409     1.0  0.90936  0.51136  0.22913  1.0000
  H   H8410     1.0  0.95922  0.49717  0.30224  1.0000
  C   C4909     1.0  0.98842  0.70709  0.36217  1.0000
  C   C4910     1.0  0.81589  0.52992  0.16112  1.0000
  H   H8411     1.0  0.94623  0.49286  0.07120  1.0000
  H   H8412     1.0  0.82575  0.55034  0.01119  1.0000
  H   H8413     1.0  0.92975  0.55226  0.17132  1.0000
  H   H8414     1.0  0.83333  0.49832  0.03766  1.0000
  H   H8415     1.0  0.94880  0.52394  0.20373  1.0000
  H   H8416     1.0  0.99233  0.52626  0.38924  1.0000
  H   H8417     1.0  0.91324  0.49713  0.20635  1.0000
  Fe  Fe708     1.0  0.93833  0.49772  0.37844  1.0000
  H   H8418     1.0  0.80157  0.52797  0.18304  1.0000
  H   H8419     1.0  0.93092  0.53295  0.17862  1.0000
  S   S1410     1.0  0.87453  0.51218  0.99216  1.0000
  H   H8420     1.0  0.86743  0.50689  0.18945  1.0000
  C   C4911     1.0  0.93846  0.50748  0.22036  1.0000
  H   H8421     1.0  0.93770  0.51640  0.19769  1.0000
  C   C4912     1.0  0.98818  0.49530  0.28003  1.0000
  Fe  Fe709     1.0  0.91721  0.49094  0.26838  1.0000
  H   H8422     1.0  0.90191  0.54116  0.20727  1.0000
  C   C4913     1.0  0.95544  0.49133  0.25162  1.0000
  H   H8423     1.0  0.94260  0.70772  0.36741  1.0000
  H   H8424     1.0  0.76249  0.60854  0.12980  1.0000
  H   H8425     1.0  0.76597  0.49033  0.12502  1.0000
  S   S1411     1.0  0.98523  0.57181  0.20254  1.0000
  H   H8426     1.0  0.90628  0.50979  0.44840  1.0000
  H   H8427     1.0  0.97714  0.69381  0.45133  1.0000
  C   C4914     1.0  0.98610  0.60227  0.39657  1.0000
  H   H8428     1.0  0.95515  0.71845  0.38044  1.0000
  C   C4915     1.0  0.97772  0.73204  0.42247  1.0000
  S   S1412     1.0  0.93266  0.48745  0.34478  1.0000
  C   C4916     1.0  0.75066  0.52129  0.12829  1.0000
  C   C4917     1.0  0.76097  0.54944  0.03475  1.0000
  C   C4918     1.0  0.96811  0.49207  0.30849  1.0000
  H   H8429     1.0  0.76884  0.63631  0.08762  1.0000
  H   H8430     1.0  0.85707  0.49397  0.33620  1.0000
  H   H8431     1.0  0.75257  0.52655  0.10476  1.0000
  N   N351      1.0  0.96804  0.61254  0.32524  1.0000
  H   H8432     1.0  0.94809  0.53533  0.22196  1.0000
  H   H8433     1.0  0.95744  0.53401  0.27617  1.0000
  H   H8434     1.0  0.94990  0.61154  0.31642  1.0000
  H   H8435     1.0  0.96281  0.63119  0.33539  1.0000
  C   C4919     1.0  0.98474  0.60687  0.32269  1.0000
  C   C4920     1.0  0.96229  0.60843  0.31424  1.0000
  H   H8436     1.0  0.96464  0.61410  0.43008  1.0000
  H   H8437     1.0  0.95690  0.62892  0.43995  1.0000
  C   C4921     1.0  0.91182  0.53735  0.30138  1.0000
  C   C4922     1.0  0.90970  0.51146  0.30300  1.0000
  H   H8438     1.0  0.89560  0.53311  0.28409  1.0000
  H   H8439     1.0  0.88976  0.56574  0.02807  1.0000
  H   H8440     1.0  0.95713  0.67058  0.38165  1.0000
  H   H8441     1.0  0.90570  0.54784  0.30501  1.0000
  S   S1413     1.0  0.97853  0.66670  0.34146  1.0000
  H   H8442     1.0  0.85475  0.56353  0.03585  1.0000
  H   H8443     1.0  0.80457  0.53461  0.03780  1.0000
  N   N352      1.0  0.90158  0.52675  0.30544  1.0000
  C   C4923     1.0  0.89016  0.53296  0.29593  1.0000
  H   H8444     1.0  0.90344  0.50312  0.31037  1.0000
  N   N353      1.0  0.89903  0.49074  0.18561  1.0000
  C   C4924     1.0  0.83497  0.54670  0.13603  1.0000
  C   C4925     1.0  0.96745  0.61563  0.29785  1.0000
  C   C4926     1.0  0.97322  0.63896  0.31292  1.0000
  H   H8445     1.0  0.98050  0.64211  0.31815  1.0000
  H   H8446     1.0  0.84212  0.56120  0.06279  1.0000
  C   C4927     1.0  0.81497  0.51775  0.01815  1.0000
  C   C4928     1.0  0.91480  0.50576  0.16277  1.0000
  H   H8447     1.0  0.96310  0.61096  0.29103  1.0000
  H   H8448     1.0  0.88471  0.54469  0.29651  1.0000
  H   H8449     1.0  0.87130  0.52855  0.29063  1.0000
  H   H8450     1.0  0.81169  0.53719  0.12557  1.0000
  H   H8451     1.0  0.96982  0.64530  0.41537  1.0000
  H   H8452     1.0  0.86853  0.50632  0.43560  1.0000
  H   H8453     1.0  0.96275  0.62772  0.29551  1.0000
  C   C4929     1.0  0.87760  0.52444  0.29958  1.0000
  N   N354      1.0  0.87293  0.55865  0.04720  1.0000
  H   H8454     1.0  0.86942  0.52630  0.30995  1.0000
  H   H8455     1.0  0.91062  0.52870  0.33096  1.0000
  H   H8456     1.0  0.97215  0.63072  0.40688  1.0000
  C   C4930     1.0  0.87243  0.49323  0.34915  1.0000
  H   H8457     1.0  0.93387  0.64308  0.43367  1.0000
  C   C4931     1.0  0.82043  0.50274  0.01350  1.0000
  H   H8458     1.0  0.80312  0.51841  0.02440  1.0000
  C   C4932     1.0  0.93844  0.54485  0.22189  1.0000
  C   C4933     1.0  0.90266  0.52155  0.33299  1.0000
  H   H8459     1.0  0.88582  0.51803  0.32483  1.0000
  H   H8460     1.0  0.88203  0.51239  0.30033  1.0000
  C   C4934     1.0  0.83376  0.53071  0.13751  1.0000
  C   C4935     1.0  0.98815  0.56635  0.22062  1.0000
  H   H8461     1.0  0.82562  0.52426  0.16637  1.0000
  H   H8462     1.0  0.97784  0.67693  0.42043  1.0000
  H   H8463     1.0  0.81267  0.50197  0.00719  1.0000
  H   H8464     1.0  0.89509  0.52251  0.34391  1.0000
  H   H8465     1.0  0.80368  0.54739  0.13962  1.0000
  H   H8466     1.0  0.82594  0.55503  0.13128  1.0000
  H   H8467     1.0  0.77369  0.50670  0.04434  1.0000
  N   N355      1.0  0.94907  0.64216  0.41265  1.0000
  C   C4936     1.0  0.87838  0.56721  0.05479  1.0000
  H   H8468     1.0  0.87058  0.56874  0.06549  1.0000
  H   H8469     1.0  0.81886  0.51888  0.05940  1.0000
  H   H8470     1.0  0.88568  0.53704  0.32254  1.0000
  H   H8471     1.0  0.84309  0.52320  0.14248  1.0000
  C   C4937     1.0  0.97931  0.55125  0.39810  1.0000
  C   C4938     1.0  0.82562  0.50509  0.13284  1.0000
  C   C4939     1.0  0.96201  0.52269  0.28210  1.0000
  C   C4940     1.0  0.80710  0.53594  0.13771  1.0000
  H   H8472     1.0  0.88585  0.51956  0.42622  1.0000
  H   H8473     1.0  0.79350  0.49780  0.14189  1.0000
  H   H8474     1.0  0.90849  0.50980  0.33417  1.0000
  H   H8475     1.0  0.95444  0.66492  0.42176  1.0000
  C   C4941     1.0  0.88485  0.55583  0.03361  1.0000
  C   C4942     1.0  0.89392  0.56026  0.05847  1.0000
  N   N356      1.0  0.81903  0.52671  0.14600  1.0000
  H   H8476     1.0  0.75133  0.65207  0.07141  1.0000
  S   S1414     1.0  0.80309  0.54834  0.06755  1.0000
  H   H8477     1.0  0.97667  0.62367  0.43296  1.0000
  H   H8478     1.0  0.75584  0.65970  0.10752  1.0000
  C   C4943     1.0  0.98030  0.52990  0.38873  1.0000
  H   H8479     1.0  0.91401  0.51098  0.15111  1.0000
  S   S1415     1.0  0.77664  0.58775  0.06940  1.0000
  C   C4944     1.0  0.82107  0.51032  0.14748  1.0000
  C   C4945     1.0  0.96555  0.62518  0.43059  1.0000
  H   H8480     1.0  0.93584  0.67070  0.43143  1.0000
  H   H8481     1.0  0.98107  0.67647  0.44641  1.0000
  C   C4946     1.0  0.81475  0.54900  0.01852  1.0000
  C   C4947     1.0  0.82034  0.54626  0.97930  1.0000
  H   H8482     1.0  0.85770  0.53238  0.01332  1.0000
  H   H8483     1.0  0.93904  0.65509  0.39414  1.0000
  C   C4948     1.0  0.89837  0.49445  0.13214  1.0000
  C   C4949     1.0  0.74907  0.60628  0.06942  1.0000
  H   H8484     1.0  0.76307  0.49600  0.17145  1.0000
  H   H8485     1.0  0.97210  0.69268  0.40693  1.0000
  C   C4950     1.0  0.98010  0.50126  0.30482  1.0000
  H   H8486     1.0  0.88690  0.50092  0.20399  1.0000
  H   H8487     1.0  0.96161  0.72159  0.35439  1.0000
  H   H8488     1.0  0.98468  0.67706  0.40099  1.0000
  H   H8489     1.0  0.97404  0.52445  0.39952  1.0000
  H   H8490     1.0  0.78660  0.49997  0.12595  1.0000
  C   C4951     1.0  0.98101  0.68835  0.44179  1.0000
  H   H8491     1.0  0.98603  0.52511  0.36644  1.0000
  C   C4952     1.0  0.79193  0.49161  0.13454  1.0000
  H   H8492     1.0  0.99010  0.58773  0.22168  1.0000
  H   H8493     1.0  0.92730  0.50234  0.07503  1.0000
  H   H8494     1.0  0.97234  0.51983  0.10710  1.0000
  H   H8495     1.0  0.93679  0.70359  0.38701  1.0000
  H   H8496     1.0  0.84524  0.48717  0.21522  1.0000
  H   H8497     1.0  0.89520  0.49853  0.16329  1.0000
  H   H8498     1.0  0.96137  0.72602  0.39835  1.0000
  H   H8499     1.0  0.94513  0.72843  0.34750  1.0000
  C   C4953     1.0  0.98185  0.68370  0.40950  1.0000
  H   H8500     1.0  0.86584  0.48789  0.44055  1.0000
  S   S1416     1.0  0.84770  0.54938  0.98016  1.0000
  C   C4954     1.0  0.93465  0.49209  0.07191  1.0000
  H   H8501     1.0  0.98701  0.54392  0.22285  1.0000
  H   H8502     1.0  0.99047  0.60128  0.34446  1.0000
  H   H8503     1.0  0.99045  0.50913  0.25732  1.0000
  H   H8504     1.0  0.99158  0.62040  0.37862  1.0000
  H   H8505     1.0  0.74701  0.63198  0.12541  1.0000
  H   H8506     1.0  0.97410  0.50181  0.11826  1.0000
  C   C4955     1.0  0.99067  0.57627  0.22738  1.0000
  Fe  Fe710     1.0  0.99060  0.55131  0.19359  1.0000
  C   C4956     1.0  0.87312  0.49528  0.43287  1.0000
  H   H8507     1.0  0.92454  0.71721  0.37658  1.0000
  H   H8508     1.0  0.93738  0.72791  0.38895  1.0000
  Fe  Fe711     1.0  0.87105  0.53532  0.97870  1.0000
  C   C4957     1.0  0.95299  0.73183  0.35185  1.0000
  C   C4958     1.0  0.76397  0.48517  0.17878  1.0000
  H   H8509     1.0  0.99389  0.54619  0.08554  1.0000
  H   H8510     1.0  0.99386  0.53911  0.12534  1.0000
  H   H8511     1.0  0.99491  0.70347  0.43009  1.0000
  S   S1417     1.0  0.99453  0.49874  0.22405  1.0000
  H   H8512     1.0  0.99388  0.53496  0.24695  1.0000
  S   S1418     1.0  0.76768  0.54801  0.97775  1.0000
  H   H8513     1.0  0.93031  0.48460  0.20087  1.0000
  C   C4959     1.0  0.99445  0.57122  0.24132  1.0000
  H   H8514     1.0  0.99466  0.70664  0.33907  1.0000
  H   H8515     1.0  0.91109  0.48451  0.16491  1.0000
  C   C4960     1.0  0.99496  0.71207  0.34734  1.0000
  C   C4961     1.0  0.87945  0.48438  0.15213  1.0000
  C   C4962     1.0  0.83566  0.53992  0.97767  1.0000
  H   H8516     1.0  0.99427  0.48426  0.28523  1.0000
  C   C4963     1.0  0.91082  0.59436  0.49003  1.0000
  S   S1419     1.0  0.85988  0.50306  0.90876  1.0000
  H   H8517     1.0  0.93778  0.51196  0.92203  1.0000
  S   S1420     1.0  0.91004  0.48357  0.77287  1.0000
  Fe  Fe712     1.0  0.89022  0.50609  0.97171  1.0000
  H   H8518     1.0  0.78563  0.49137  0.93878  1.0000
  H   H8519     1.0  0.98958  0.52134  0.80288  1.0000
  S   S1421     1.0  0.83352  0.49881  0.88832  1.0000
  H   H8520     1.0  0.80551  0.51422  0.92352  1.0000
  H   H8521     1.0  0.94206  0.64931  0.51278  1.0000
  H   H8522     1.0  0.98332  0.55123  0.60231  1.0000
  H   H8523     1.0  0.87660  0.71268  0.63093  1.0000
  H   H8524     1.0  0.98134  0.49593  0.77869  1.0000
  H   H8525     1.0  0.89198  0.60590  0.52995  1.0000
  H   H8526     1.0  0.90674  0.49718  0.91243  1.0000
  H   H8527     1.0  0.90702  0.51026  0.84062  1.0000
  Fe  Fe713     1.0  0.91696  0.73163  0.58374  1.0000
  N   N357      1.0  0.97470  0.55772  0.63181  1.0000
  C   C4964     1.0  0.94854  0.69941  0.66101  1.0000
  S   S1422     1.0  0.97461  0.51576  0.87406  1.0000
  S   S1423     1.0  0.94549  0.71561  0.48482  1.0000
  C   C4965     1.0  0.93102  0.61945  0.50988  1.0000
  Fe  Fe714     1.0  0.90432  0.53224  0.96486  1.0000
  S   S1424     1.0  0.91951  0.54473  0.94619  1.0000
  Fe  Fe715     1.0  0.75346  0.54530  0.96426  1.0000
  H   H8528     1.0  0.95635  0.55441  0.62485  1.0000
  S   S1425     1.0  0.88523  0.52894  0.95786  1.0000
  Fe  Fe716     1.0  0.94331  0.57470  0.58415  1.0000
  S   S1426     1.0  0.96647  0.56942  0.57032  1.0000
  S   S1427     1.0  0.93136  0.55863  0.60219  1.0000
  Fe  Fe717     1.0  0.93979  0.60775  0.57163  1.0000
  S   S1428     1.0  0.96264  0.60537  0.55700  1.0000
  S   S1429     1.0  0.92350  0.62948  0.57259  1.0000
  Fe  Fe718     1.0  0.95728  0.58637  0.55177  1.0000
  S   S1430     1.0  0.96527  0.58659  0.52726  1.0000
  Fe  Fe719     1.0  0.96981  0.58880  0.57652  1.0000
  H   H8529     1.0  0.92700  0.48390  0.64640  1.0000
  S   S1431     1.0  0.93367  0.59003  0.56509  1.0000
  S   S1432     1.0  0.94737  0.59288  0.59170  1.0000
  H   H8530     1.0  0.92622  0.51901  0.74673  1.0000
  S   S1433     1.0  0.97131  0.58579  0.72832  1.0000
  H   H8531     1.0  0.95071  0.70299  0.58668  1.0000
  C   C4966     1.0  0.82439  0.53338  0.90628  1.0000
  H   H8532     1.0  0.95168  0.58700  0.62406  1.0000
  H   H8533     1.0  0.98006  0.54767  0.65324  1.0000
  C   C4967     1.0  0.95473  0.66109  0.53078  1.0000
  C   C4968     1.0  0.93007  0.50696  0.91923  1.0000
  Fe  Fe720     1.0  0.92950  0.70586  0.56821  1.0000
  H   H8534     1.0  0.94426  0.71555  0.67408  1.0000
  S   S1434     1.0  0.94820  0.68585  0.56550  1.0000
  Fe  Fe721     1.0  0.89677  0.71296  0.58245  1.0000
  H   H8535     1.0  0.96526  0.50554  0.94427  1.0000
  H   H8536     1.0  0.94366  0.49593  0.60559  1.0000
  C   C4969     1.0  0.91598  0.49136  0.75407  1.0000
  H   H8537     1.0  0.92254  0.51044  0.89847  1.0000
  H   H8538     1.0  0.95599  0.68487  0.48634  1.0000
  H   H8539     1.0  0.75450  0.54559  0.92131  1.0000
  S   S1435     1.0  0.90884  0.70990  0.55975  1.0000
  S   S1436     1.0  0.91731  0.70743  0.59126  1.0000
  H   H8540     1.0  0.95661  0.63746  0.53169  1.0000
  H   H8541     1.0  0.94337  0.61775  0.50620  1.0000
  C   C4970     1.0  0.92863  0.54727  0.73211  1.0000
  H   H8542     1.0  0.93480  0.49739  0.62415  1.0000
  C   C4971     1.0  0.92396  0.50276  0.72346  1.0000
  C   C4972     1.0  0.97138  0.49662  0.84148  1.0000
  H   H8543     1.0  0.96730  0.58656  0.63865  1.0000
  C   C4973     1.0  0.90698  0.59468  0.50655  1.0000
  N   N358      1.0  0.82338  0.53561  0.92143  1.0000
  C   C4974     1.0  0.91238  0.59424  0.53667  1.0000
  C   C4975     1.0  0.98397  0.56922  0.62799  1.0000
  C   C4976     1.0  0.84630  0.73295  0.51748  1.0000
  C   C4977     1.0  0.93943  0.72662  0.50943  1.0000
  C   C4978     1.0  0.86135  0.70975  0.59646  1.0000
  H   H8544     1.0  0.90046  0.51207  0.72504  1.0000
  C   C4979     1.0  0.84222  0.53514  0.93667  1.0000
  H   H8545     1.0  0.95677  0.53885  0.66601  1.0000
  C   C4980     1.0  0.90904  0.50561  0.73101  1.0000
  S   S1437     1.0  0.87973  0.70006  0.59642  1.0000
  H   H8546     1.0  0.91479  0.65560  0.53004  1.0000
  C   C4981     1.0  0.95789  0.57822  0.51764  1.0000
  C   C4982     1.0  0.94790  0.56894  0.52497  1.0000
  C   C4983     1.0  0.94203  0.56280  0.51679  1.0000
  C   C4984     1.0  0.94591  0.56604  0.50126  1.0000
  C   C4985     1.0  0.95588  0.57535  0.49398  1.0000
  C   C4986     1.0  0.96193  0.58129  0.50214  1.0000
  H   H8547     1.0  0.94474  0.56645  0.53691  1.0000
  H   H8548     1.0  0.93441  0.55553  0.52251  1.0000
  C   C4987     1.0  0.83137  0.51793  0.97351  1.0000
  H   H8549     1.0  0.96966  0.58844  0.49638  1.0000
  Fe  Fe722     1.0  0.94682  0.49541  0.69120  1.0000
  Fe  Fe723     1.0  0.81471  0.48941  0.90425  1.0000
  H   H8550     1.0  0.75218  0.48869  0.94119  1.0000
  H   H8551     1.0  0.88285  0.72481  0.63814  1.0000
  S   S1438     1.0  0.74959  0.56244  0.94377  1.0000
  H   H8552     1.0  0.94126  0.48765  0.90028  1.0000
  Fe  Fe724     1.0  0.97420  0.66008  0.64166  1.0000
  C   C4988     1.0  0.96158  0.56348  0.62447  1.0000
  H   H8553     1.0  0.92835  0.61854  0.52197  1.0000
  H   H8554     1.0  0.97416  0.64345  0.52461  1.0000
  C   C4989     1.0  0.93064  0.64451  0.57222  1.0000
  C   C4990     1.0  0.92073  0.65813  0.57312  1.0000
  C   C4991     1.0  0.92607  0.67061  0.57189  1.0000
  C   C4992     1.0  0.94139  0.66970  0.56933  1.0000
  C   C4993     1.0  0.95131  0.65591  0.56917  1.0000
  C   C4994     1.0  0.94591  0.64326  0.57075  1.0000
  H   H8555     1.0  0.90885  0.65908  0.57463  1.0000
  H   H8556     1.0  0.91825  0.68096  0.57277  1.0000
  H   H8557     1.0  0.96317  0.65509  0.56745  1.0000
  H   H8558     1.0  0.95359  0.63267  0.57045  1.0000
  C   C4995     1.0  0.94224  0.54264  0.61140  1.0000
  C   C4996     1.0  0.95683  0.53677  0.60455  1.0000
  C   C4997     1.0  0.96532  0.52404  0.61209  1.0000
  C   C4998     1.0  0.95947  0.51734  0.62667  1.0000
  C   C4999     1.0  0.94493  0.52325  0.63362  1.0000
  C   C5000     1.0  0.93627  0.53578  0.62592  1.0000
  H   H8559     1.0  0.96147  0.54189  0.59334  1.0000
  H   H8560     1.0  0.98156  0.57576  0.64875  1.0000
  H   H8561     1.0  0.94033  0.51812  0.64486  1.0000
  H   H8562     1.0  0.92499  0.54030  0.63127  1.0000
  C   C5001     1.0  0.96448  0.52022  0.92296  1.0000
  C   C5002     1.0  0.95884  0.51513  0.93807  1.0000
  C   C5003     1.0  0.94485  0.52232  0.94520  1.0000
  C   C5004     1.0  0.93665  0.53495  0.93735  1.0000
  C   C5005     1.0  0.94242  0.54019  0.92228  1.0000
  C   C5006     1.0  0.95620  0.53271  0.91503  1.0000
  H   H8563     1.0  0.95491  0.49187  0.61867  1.0000
  H   H8564     1.0  0.94060  0.51837  0.95686  1.0000
  H   H8565     1.0  0.93616  0.55004  0.91620  1.0000
  H   H8566     1.0  0.96052  0.53677  0.90340  1.0000
  H   H8567     1.0  0.84759  0.53167  0.91487  1.0000
  C   C5007     1.0  0.94188  0.68375  0.51593  1.0000
  H   H8568     1.0  0.75733  0.61040  0.97332  1.0000
  C   C5008     1.0  0.89007  0.70864  0.53007  1.0000
  C   C5009     1.0  0.83171  0.72538  0.59759  1.0000
  H   H8569     1.0  0.96120  0.51131  0.82391  1.0000
  C   C5010     1.0  0.96294  0.71818  0.65568  1.0000
  H   H8570     1.0  0.92621  0.49580  0.87947  1.0000
  H   H8571     1.0  0.97234  0.69489  0.56998  1.0000
  C   C5011     1.0  0.97124  0.59099  0.70937  1.0000
  C   C5012     1.0  0.97318  0.59972  0.67869  1.0000
  C   C5013     1.0  0.96985  0.61036  0.68708  1.0000
  C   C5014     1.0  0.96870  0.60601  0.70241  1.0000
  H   H8572     1.0  0.96796  0.62196  0.68184  1.0000
  H   H8573     1.0  0.96625  0.61430  0.70883  1.0000
  H   H8574     1.0  0.89486  0.71816  0.52914  1.0000
  H   H8575     1.0  0.75969  0.50433  0.93087  1.0000
  H   H8576     1.0  0.93366  0.68504  0.53948  1.0000
  C   C5015     1.0  0.75506  0.53366  0.92259  1.0000
  C   C5016     1.0  0.92953  0.51462  0.90299  1.0000
  C   C5017     1.0  0.81078  0.54875  0.92412  1.0000
  H   H8577     1.0  0.94087  0.51379  0.89571  1.0000
  H   H8578     1.0  0.98836  0.67928  0.59570  1.0000
  H   H8579     1.0  0.92417  0.66092  0.54047  1.0000
  H   H8580     1.0  0.80062  0.54829  0.92090  1.0000
  H   H8581     1.0  0.91285  0.55161  0.71819  1.0000
  H   H8582     1.0  0.84783  0.70071  0.55789  1.0000
  C   C5018     1.0  0.95081  0.55752  0.73943  1.0000
  C   C5019     1.0  0.97917  0.58080  0.63759  1.0000
  C   C5020     1.0  0.86747  0.49818  0.92448  1.0000
  C   C5021     1.0  0.87541  0.50757  0.92613  1.0000
  C   C5022     1.0  0.88182  0.50402  0.93839  1.0000
  H   H8583     1.0  0.92294  0.59334  0.48518  1.0000
  H   H8584     1.0  0.94707  0.67012  0.48773  1.0000
  H   H8585     1.0  0.76525  0.52967  0.91452  1.0000
  H   H8586     1.0  0.87675  0.51758  0.91782  1.0000
  H   H8587     1.0  0.95495  0.54601  0.71108  1.0000
  H   H8588     1.0  0.97250  0.55827  0.81198  1.0000
  Fe  Fe725     1.0  0.99172  0.49655  0.86675  1.0000
  H   H8589     1.0  0.93676  0.68858  0.50614  1.0000
  C   C5023     1.0  0.98447  0.54442  0.62591  1.0000
  H   H8590     1.0  0.89341  0.50181  0.75185  1.0000
  C   C5024     1.0  0.92013  0.54187  0.72395  1.0000
  H   H8591     1.0  0.97808  0.53582  0.62780  1.0000
  H   H8592     1.0  0.99047  0.69422  0.57144  1.0000
  C   C5025     1.0  0.98982  0.48564  0.78130  1.0000
  H   H8593     1.0  0.76183  0.50123  0.90147  1.0000
  H   H8594     1.0  0.98806  0.67428  0.65759  1.0000
  H   H8595     1.0  0.91796  0.62761  0.65546  1.0000
  H   H8596     1.0  0.97649  0.70848  0.60717  1.0000
  S   S1439     1.0  0.92557  0.65935  0.48019  1.0000
  C   C5026     1.0  0.95646  0.70685  0.59294  1.0000
  H   H8597     1.0  0.94610  0.66194  0.54103  1.0000
  H   H8598     1.0  0.96254  0.66774  0.53087  1.0000
  H   H8599     1.0  0.90437  0.60401  0.48335  1.0000
  H   H8600     1.0  0.98426  0.68765  0.66825  1.0000
  H   H8601     1.0  0.97039  0.66981  0.50454  1.0000
  H   H8602     1.0  0.94682  0.57509  0.64204  1.0000
  C   C5027     1.0  0.99283  0.55341  0.53769  1.0000
  Fe  Fe726     1.0  0.98901  0.51396  0.88955  1.0000
  C   C5028     1.0  0.97619  0.68428  0.59836  1.0000
  S   S1440     1.0  0.96634  0.73288  0.66078  1.0000
  H   H8603     1.0  0.96499  0.52868  0.70735  1.0000
  C   C5029     1.0  0.89030  0.48844  0.86659  1.0000
  S   S1441     1.0  0.88881  0.48634  0.96435  1.0000
  S   S1442     1.0  0.87587  0.72584  0.48043  1.0000
  H   H8604     1.0  0.99088  0.54202  0.54228  1.0000
  H   H8605     1.0  0.96591  0.64079  0.54374  1.0000
  S   S1443     1.0  0.98565  0.51184  0.74641  1.0000
  S   S1444     1.0  0.97275  0.64276  0.63121  1.0000
  H   H8606     1.0  0.82113  0.55652  0.89337  1.0000
  C   C5030     1.0  0.85923  0.70086  0.55839  1.0000
  H   H8607     1.0  0.90356  0.61761  0.52929  1.0000
  H   H8608     1.0  0.92999  0.60903  0.49345  1.0000
  H   H8609     1.0  0.83574  0.50702  0.97114  1.0000
  Fe  Fe727     1.0  0.98295  0.62635  0.64904  1.0000
  C   C5031     1.0  0.96326  0.64475  0.53264  1.0000
  H   H8610     1.0  0.75710  0.52774  0.93361  1.0000
  C   C5032     1.0  0.75003  0.50093  0.93931  1.0000
  H   H8611     1.0  0.96554  0.65350  0.50389  1.0000
  C   C5033     1.0  0.98457  0.48675  0.71968  1.0000
  H   H8612     1.0  0.93239  0.50647  0.77065  1.0000
  S   S1445     1.0  0.97069  0.50150  0.63567  1.0000
  C   C5034     1.0  0.97872  0.70058  0.57380  1.0000
  H   H8613     1.0  0.92939  0.66659  0.50920  1.0000
  H   H8614     1.0  0.87978  0.63468  0.49727  1.0000
  H   H8615     1.0  0.94614  0.51985  0.72554  1.0000
  S   S1446     1.0  0.93814  0.55827  0.49138  1.0000
  N   N359      1.0  0.90951  0.60792  0.51011  1.0000
  H   H8616     1.0  0.76107  0.58118  0.96371  1.0000
  C   C5035     1.0  0.86598  0.48513  0.93515  1.0000
  C   C5036     1.0  0.90378  0.60712  0.52647  1.0000
  C   C5037     1.0  0.90134  0.62219  0.50185  1.0000
  Fe  Fe728     1.0  0.77971  0.52465  0.97699  1.0000
  H   H8617     1.0  0.83334  0.54052  0.94482  1.0000
  H   H8618     1.0  0.97654  0.51944  0.60665  1.0000
  H   H8619     1.0  0.94892  0.50506  0.75649  1.0000
  C   C5038     1.0  0.78291  0.48477  0.95021  1.0000
  C   C5039     1.0  0.99175  0.54739  0.60923  1.0000
  H   H8620     1.0  0.92627  0.63081  0.50428  1.0000
  H   H8621     1.0  0.84459  0.71479  0.53607  1.0000
  H   H8622     1.0  0.94666  0.49249  0.72557  1.0000
  C   C5040     1.0  0.92599  0.60763  0.50560  1.0000
  C   C5041     1.0  0.84340  0.73158  0.58788  1.0000
  H   H8623     1.0  0.95093  0.72156  0.51007  1.0000
  H   H8624     1.0  0.89521  0.59349  0.51117  1.0000
  Fe  Fe729     1.0  0.99004  0.52933  0.85724  1.0000
  H   H8625     1.0  0.74959  0.50348  0.94989  1.0000
  S   S1447     1.0  0.94298  0.48627  0.67391  1.0000
  C   C5042     1.0  0.81606  0.52421  0.97524  1.0000
  H   H8626     1.0  0.93998  0.54395  0.75841  1.0000
  H   H8627     1.0  0.96628  0.72289  0.56484  1.0000
  H   H8628     1.0  0.98203  0.61708  0.57032  1.0000
  H   H8629     1.0  0.90703  0.59483  0.54835  1.0000
  C   C5043     1.0  0.90506  0.49982  0.74619  1.0000
  S   S1448     1.0  0.79044  0.50067  0.90636  1.0000
  C   C5044     1.0  0.99007  0.62920  0.58104  1.0000
  C   C5045     1.0  0.96119  0.48767  0.90631  1.0000
  H   H8630     1.0  0.90797  0.58435  0.48902  1.0000
  H   H8631     1.0  0.95916  0.51817  0.73561  1.0000
  C   C5046     1.0  0.98571  0.51943  0.79394  1.0000
  H   H8632     1.0  0.91942  0.68477  0.53035  1.0000
  C   C5047     1.0  0.95786  0.69366  0.64900  1.0000
  C   C5048     1.0  0.95118  0.52662  0.72957  1.0000
  H   H8633     1.0  0.90646  0.62401  0.48985  1.0000
  C   C5049     1.0  0.94717  0.54228  0.74746  1.0000
  C   C5050     1.0  0.94011  0.51302  0.76229  1.0000
  H   H8634     1.0  0.87281  0.71622  0.55596  1.0000
  H   H8635     1.0  0.91892  0.51091  0.92614  1.0000
  C   C5051     1.0  0.92973  0.68854  0.52902  1.0000
  S   S1449     1.0  0.80422  0.51418  0.97334  1.0000
  H   H8636     1.0  0.92469  0.52663  0.90235  1.0000
  C   C5052     1.0  0.97197  0.71273  0.64333  1.0000
  C   C5053     1.0  0.95129  0.71141  0.66454  1.0000
  H   H8637     1.0  0.92658  0.70082  0.52667  1.0000
  C   C5054     1.0  0.96492  0.49989  0.82923  1.0000
  C   C5055     1.0  0.98058  0.70896  0.59517  1.0000
  H   H8638     1.0  0.95778  0.53467  0.74988  1.0000
  S   S1450     1.0  0.97549  0.60487  0.65937  1.0000
  S   S1451     1.0  0.95419  0.67865  0.64475  1.0000
  H   H8639     1.0  0.98323  0.56089  0.54324  1.0000
  H   H8640     1.0  0.83244  0.52289  0.90439  1.0000
  H   H8641     1.0  0.99373  0.70403  0.67185  1.0000
  C   C5056     1.0  0.91362  0.50226  0.83371  1.0000
  H   H8642     1.0  0.93845  0.57552  0.62786  1.0000
  H   H8643     1.0  0.87842  0.72877  0.60666  1.0000
  C   C5057     1.0  0.76267  0.59252  0.96205  1.0000
  H   H8644     1.0  0.98923  0.48869  0.80245  1.0000
  H   H8645     1.0  0.97743  0.51238  0.79847  1.0000
  H   H8646     1.0  0.85297  0.52086  0.97322  1.0000
  H   H8647     1.0  0.92915  0.50329  0.85225  1.0000
  H   H8648     1.0  0.94517  0.51771  0.76847  1.0000
  H   H8649     1.0  0.87828  0.62266  0.51518  1.0000
  C   C5058     1.0  0.97403  0.58036  0.70105  1.0000
  C   C5059     1.0  0.99258  0.55246  0.79568  1.0000
  H   H8650     1.0  0.91202  0.58328  0.53545  1.0000
  C   C5060     1.0  0.96339  0.48847  0.82382  1.0000
  C   C5061     1.0  0.98434  0.55333  0.81009  1.0000
  N   N360      1.0  0.93341  0.63750  0.62484  1.0000
  C   C5062     1.0  0.93127  0.64268  0.63883  1.0000
  C   C5063     1.0  0.93709  0.64996  0.61190  1.0000
  C   C5064     1.0  0.94622  0.62393  0.62465  1.0000
  C   C5065     1.0  0.91904  0.63370  0.62513  1.0000
  C   C5066     1.0  0.92867  0.63100  0.65343  1.0000
  C   C5067     1.0  0.92560  0.66488  0.61136  1.0000
  C   C5068     1.0  0.95708  0.62216  0.60970  1.0000
  C   C5069     1.0  0.91768  0.63122  0.61055  1.0000
  H   H8651     1.0  0.94104  0.64698  0.63853  1.0000
  H   H8652     1.0  0.92147  0.65212  0.63996  1.0000
  H   H8653     1.0  0.93858  0.64689  0.60125  1.0000
  H   H8654     1.0  0.94792  0.65224  0.61173  1.0000
  H   H8655     1.0  0.95376  0.62362  0.63174  1.0000
  H   H8656     1.0  0.94204  0.61355  0.62954  1.0000
  H   H8657     1.0  0.91722  0.62357  0.63376  1.0000
  H   H8658     1.0  0.90938  0.64276  0.62815  1.0000
  H   H8659     1.0  0.93795  0.62106  0.65398  1.0000
  H   H8660     1.0  0.92793  0.63598  0.66274  1.0000
  H   H8661     1.0  0.90664  0.50279  0.82604  1.0000
  H   H8662     1.0  0.92530  0.67029  0.62019  1.0000
  H   H8663     1.0  0.92909  0.67257  0.60075  1.0000
  H   H8664     1.0  0.91425  0.66382  0.61172  1.0000
  H   H8665     1.0  0.95159  0.62220  0.60105  1.0000
  H   H8666     1.0  0.96519  0.61136  0.61137  1.0000
  H   H8667     1.0  0.96378  0.63079  0.60552  1.0000
  H   H8668     1.0  0.90937  0.62430  0.61303  1.0000
  H   H8669     1.0  0.92810  0.62532  0.60440  1.0000
  H   H8670     1.0  0.91301  0.64183  0.60351  1.0000
  C   C5070     1.0  0.86230  0.71658  0.55285  1.0000
  C   C5071     1.0  0.93504  0.49450  0.73131  1.0000
  C   C5072     1.0  0.95996  0.54124  0.65374  1.0000
  H   H8671     1.0  0.85207  0.69244  0.61283  1.0000
  H   H8672     1.0  0.93245  0.59665  0.51020  1.0000
  H   H8673     1.0  0.99286  0.55605  0.52576  1.0000
  C   C5073     1.0  0.96096  0.66542  0.50402  1.0000
  H   H8674     1.0  0.96536  0.56784  0.61242  1.0000
  H   H8675     1.0  0.88840  0.51106  0.93919  1.0000
  C   C5074     1.0  0.93396  0.72565  0.49784  1.0000
  C   C5075     1.0  0.99006  0.50319  0.73150  1.0000
  H   H8676     1.0  0.95679  0.56067  0.74599  1.0000
  C   C5076     1.0  0.95724  0.67273  0.48876  1.0000
  H   H8677     1.0  0.92417  0.59489  0.53498  1.0000
  C   C5077     1.0  0.82916  0.54575  0.89307  1.0000
  H   H8678     1.0  0.92398  0.50607  0.82713  1.0000
  H   H8679     1.0  0.93397  0.55583  0.72372  1.0000
  S   S1452     1.0  0.93137  0.72971  0.56130  1.0000
  C   C5078     1.0  0.88450  0.62358  0.50354  1.0000
  H   H8680     1.0  0.87540  0.71921  0.51517  1.0000
  N   N361      1.0  0.91905  0.48433  0.85810  1.0000
  H   H8681     1.0  0.81376  0.55911  0.91672  1.0000
  N   N362      1.0  0.93974  0.53549  0.73990  1.0000
  H   H8682     1.0  0.92014  0.55337  0.74015  1.0000
  H   H8683     1.0  0.92151  0.53134  0.75874  1.0000
  H   H8684     1.0  0.88235  0.61535  0.49880  1.0000
  S   S1453     1.0  0.98218  0.64355  0.66078  1.0000
  C   C5079     1.0  0.94802  0.70424  0.60928  1.0000
  C   C5080     1.0  0.98162  0.49333  0.73172  1.0000
  C   C5081     1.0  0.84966  0.70337  0.60586  1.0000
  C   C5082     1.0  0.96099  0.53506  0.71619  1.0000
  H   H8685     1.0  0.90358  0.50400  0.86457  1.0000
  C   C5083     1.0  0.96971  0.70021  0.64026  1.0000
  H   H8686     1.0  0.92985  0.64261  0.53674  1.0000
  H   H8687     1.0  0.95913  0.57777  0.48206  1.0000
  H   H8688     1.0  0.89527  0.71525  0.62446  1.0000
  C   C5084     1.0  0.93653  0.65957  0.51706  1.0000
  H   H8689     1.0  0.97976  0.53039  0.78857  1.0000
  C   C5085     1.0  0.83813  0.53846  0.92155  1.0000
  C   C5086     1.0  0.78005  0.48695  0.91108  1.0000
  H   H8690     1.0  0.85238  0.53929  0.93524  1.0000
  H   H8691     1.0  0.97701  0.69568  0.63108  1.0000
  Fe  Fe730     1.0  0.96458  0.49234  0.66030  1.0000
  C   C5087     1.0  0.90491  0.49178  0.86734  1.0000
  H   H8692     1.0  0.83875  0.55016  0.91620  1.0000
  H   H8693     1.0  0.82942  0.54274  0.88270  1.0000
  H   H8694     1.0  0.82991  0.51194  0.92948  1.0000
  H   H8695     1.0  0.84059  0.54694  0.89228  1.0000
  C   C5088     1.0  0.94415  0.49079  0.61731  1.0000
  H   H8696     1.0  0.97725  0.57645  0.67935  1.0000
  H   H8697     1.0  0.90234  0.63185  0.50535  1.0000
  C   C5089     1.0  0.93114  0.52505  0.75171  1.0000
  S   S1454     1.0  0.92821  0.50985  0.70429  1.0000
  N   N363      1.0  0.97300  0.70014  0.59008  1.0000
  C   C5090     1.0  0.92599  0.65456  0.53202  1.0000
  H   H8698     1.0  0.97361  0.68328  0.61053  1.0000
  C   C5091     1.0  0.88032  0.49106  0.94916  1.0000
  H   H8699     1.0  0.97270  0.49086  0.74115  1.0000
  C   C5092     1.0  0.97787  0.71615  0.56360  1.0000
  H   H8700     1.0  0.95283  0.70812  0.61630  1.0000
  N   N364      1.0  0.86298  0.72341  0.53666  1.0000
  H   H8701     1.0  0.97765  0.72088  0.58994  1.0000
  H   H8702     1.0  0.86763  0.69275  0.55247  1.0000
  H   H8703     1.0  0.95441  0.71901  0.58871  1.0000
  H   H8704     1.0  0.98088  0.71793  0.63632  1.0000
  C   C5093     1.0  0.97001  0.55261  0.64835  1.0000
  H   H8705     1.0  0.92782  0.53613  0.71533  1.0000
  H   H8706     1.0  0.97090  0.53624  0.71927  1.0000
  H   H8707     1.0  0.85984  0.69696  0.57023  1.0000
  H   H8708     1.0  0.82580  0.70631  0.61383  1.0000
  H   H8709     1.0  0.81267  0.55877  0.94119  1.0000
  H   H8710     1.0  0.93630  0.71066  0.61007  1.0000
  C   C5094     1.0  0.85824  0.72381  0.58737  1.0000
  C   C5095     1.0  0.83484  0.71118  0.60641  1.0000
  H   H8711     1.0  0.95099  0.68963  0.51410  1.0000
  C   C5096     1.0  0.82069  0.52145  0.93230  1.0000
  H   H8712     1.0  0.81349  0.53221  0.90524  1.0000
  H   H8713     1.0  0.89041  0.70109  0.54104  1.0000
  H   H8714     1.0  0.95815  0.55752  0.72835  1.0000
  C   C5097     1.0  0.80576  0.51745  0.93358  1.0000
  H   H8715     1.0  0.91267  0.53470  0.73160  1.0000
  C   C5098     1.0  0.80595  0.55174  0.93982  1.0000
  N   N365      1.0  0.93466  0.49024  0.92298  1.0000
  C   C5099     1.0  0.88351  0.72103  0.62813  1.0000
  H   H8716     1.0  0.82104  0.52155  0.94360  1.0000
  H   H8717     1.0  0.89751  0.70251  0.52162  1.0000
  S   S1455     1.0  0.96698  0.50352  0.67665  1.0000
  H   H8718     1.0  0.95688  0.67874  0.59415  1.0000
  H   H8719     1.0  0.94198  0.48660  0.84984  1.0000
  C   C5100     1.0  0.96862  0.67382  0.59494  1.0000
  S   S1456     1.0  0.95578  0.49290  0.80812  1.0000
  H   H8720     1.0  0.94055  0.56637  0.73869  1.0000
  N   N366      1.0  0.94819  0.66734  0.51723  1.0000
  H   H8721     1.0  0.80444  0.50777  0.94288  1.0000
  H   H8722     1.0  0.79599  0.52647  0.93617  1.0000
  C   C5101     1.0  0.97489  0.58473  0.68575  1.0000
  H   H8723     1.0  0.94943  0.54549  0.64973  1.0000
  H   H8724     1.0  0.84510  0.52303  0.94123  1.0000
  H   H8725     1.0  0.96819  0.66401  0.60418  1.0000
  S   S1457     1.0  0.76714  0.52290  0.96151  1.0000
  H   H8726     1.0  0.80638  0.54161  0.94864  1.0000
  H   H8727     1.0  0.79399  0.55756  0.94182  1.0000
  H   H8728     1.0  0.91387  0.58426  0.51188  1.0000
  H   H8729     1.0  0.98585  0.58943  0.63244  1.0000
  H   H8730     1.0  0.98948  0.58251  0.54209  1.0000
  C   C5102     1.0  0.91906  0.73215  0.49707  1.0000
  H   H8731     1.0  0.97493  0.67010  0.58459  1.0000
  H   H8732     1.0  0.93935  0.69441  0.66778  1.0000
  H   H8733     1.0  0.87025  0.70347  0.52796  1.0000
  H   H8734     1.0  0.96385  0.56191  0.65382  1.0000
  H   H8735     1.0  0.77714  0.49275  0.95734  1.0000
  H   H8736     1.0  0.94752  0.69246  0.61396  1.0000
  C   C5103     1.0  0.93106  0.48888  0.74668  1.0000
  H   H8737     1.0  0.85381  0.72787  0.63501  1.0000
  S   S1458     1.0  0.98194  0.51069  0.91447  1.0000
  H   H8738     1.0  0.98441  0.57547  0.61636  1.0000
  C   C5104     1.0  0.93207  0.48956  0.95050  1.0000
  C   C5105     1.0  0.76613  0.49023  0.90738  1.0000
  H   H8739     1.0  0.86723  0.72863  0.57986  1.0000
  C   C5106     1.0  0.94912  0.57605  0.63001  1.0000
  C   C5107     1.0  0.87419  0.71357  0.52708  1.0000
  S   S1459     1.0  0.98092  0.54842  0.84018  1.0000
  H   H8740     1.0  0.99429  0.51371  0.77281  1.0000
  Fe  Fe731     1.0  0.84594  0.48881  0.90660  1.0000
  C   C5108     1.0  0.98752  0.61634  0.57895  1.0000
  H   H8741     1.0  0.99369  0.53902  0.63192  1.0000
  H   H8742     1.0  0.85333  0.72354  0.55971  1.0000
  C   C5109     1.0  0.84780  0.72560  0.53359  1.0000
  H   H8743     1.0  0.97267  0.50551  0.84548  1.0000
  H   H8744     1.0  0.98654  0.63982  0.57401  1.0000
  H   H8745     1.0  0.92592  0.50127  0.94877  1.0000
  H   H8746     1.0  0.96048  0.49943  0.90589  1.0000
  H   H8747     1.0  0.77490  0.59174  0.95977  1.0000
  H   H8748     1.0  0.75877  0.59959  0.95203  1.0000
  C   C5110     1.0  0.91252  0.48549  0.91567  1.0000
  C   C5111     1.0  0.84115  0.52577  0.97471  1.0000
  H   H8749     1.0  0.88080  0.49395  0.87432  1.0000
  H   H8750     1.0  0.96583  0.53051  0.65066  1.0000
  C   C5112     1.0  0.93165  0.49123  0.85731  1.0000
  C   C5113     1.0  0.91752  0.48617  0.84257  1.0000
  H   H8751     1.0  0.94533  0.49472  0.87000  1.0000
  H   H8752     1.0  0.90541  0.48848  0.87923  1.0000
  C   C5114     1.0  0.93555  0.48971  0.87215  1.0000
  H   H8753     1.0  0.83887  0.73189  0.54118  1.0000
  H   H8754     1.0  0.98168  0.71501  0.55193  1.0000
  H   H8755     1.0  0.88782  0.49281  0.85542  1.0000
  H   H8756     1.0  0.98711  0.55679  0.78647  1.0000
  H   H8757     1.0  0.95182  0.49066  0.93349  1.0000
  S   S1460     1.0  0.91187  0.69883  0.48752  1.0000
  H   H8758     1.0  0.98529  0.72220  0.56538  1.0000
  S   S1461     1.0  0.98461  0.54798  0.75617  1.0000
  S   S1462     1.0  0.99031  0.58614  0.58484  1.0000
  H   H8759     1.0  0.96718  0.48541  0.89524  1.0000
  C   C5115     1.0  0.99332  0.67923  0.66335  1.0000
  H   H8760     1.0  0.85280  0.73003  0.61645  1.0000
  H   H8761     1.0  0.91474  0.73133  0.48820  1.0000
  C   C5116     1.0  0.75499  0.59918  0.97579  1.0000
  H   H8762     1.0  0.97546  0.56880  0.70635  1.0000
  C   C5117     1.0  0.94563  0.48394  0.91048  1.0000
  H   H8763     1.0  0.79979  0.48519  0.97603  1.0000
  C   C5118     1.0  0.99134  0.54763  0.82211  1.0000
  C   C5119     1.0  0.94206  0.48553  0.93598  1.0000
  H   H8764     1.0  0.93918  0.48799  0.95840  1.0000
  H   H8765     1.0  0.84653  0.72452  0.51155  1.0000
  C   C5120     1.0  0.99253  0.60254  0.58774  1.0000
  H   H8766     1.0  0.91280  0.48799  0.93671  1.0000
  Fe  Fe732     1.0  0.98804  0.56487  0.73477  1.0000
  H   H8767     1.0  0.96661  0.66860  0.48006  1.0000
  H   H8768     1.0  0.74529  0.52552  0.90974  1.0000
  H   H8769     1.0  0.93710  0.78955  0.40863  1.0000
  C   C5121     1.0  0.91013  0.93573  0.39540  1.0000
  H   H8770     1.0  0.79812  0.88596  0.42655  1.0000
  H   H8771     1.0  0.93416  0.82981  0.40319  1.0000
  C   C5122     1.0  0.92520  0.78923  0.43997  1.0000
  H   H8772     1.0  0.83582  0.76852  0.46886  1.0000
  H   H8773     1.0  0.87042  0.93141  0.41554  1.0000
  H   H8774     1.0  0.88867  0.95059  0.36775  1.0000
  H   H8775     1.0  0.75254  0.90130  0.42524  1.0000
  H   H8776     1.0  0.79582  0.88136  0.47078  1.0000
  H   H8777     1.0  0.74900  0.91958  0.30474  1.0000
  H   H8778     1.0  0.96454  0.84909  0.39057  1.0000
  H   H8779     1.0  0.92245  0.74835  0.37545  1.0000
  C   C5123     1.0  0.94627  0.76816  0.42261  1.0000
  C   C5124     1.0  0.96138  0.74204  0.33881  1.0000
  S   S1463     1.0  0.82898  0.79843  0.47526  1.0000
  H   H8780     1.0  0.96352  0.84596  0.35227  1.0000
  H   H8781     1.0  0.83123  0.93271  0.37428  1.0000
  H   H8782     1.0  0.95351  0.77837  0.39913  1.0000
  Fe  Fe733     1.0  0.77847  0.86073  0.33806  1.0000
  S   S1464     1.0  0.75946  0.86797  0.35602  1.0000
  S   S1465     1.0  0.77312  0.85990  0.31719  1.0000
  Fe  Fe734     1.0  0.80193  0.85753  0.35523  1.0000
  S   S1466     1.0  0.78477  0.86429  0.37468  1.0000
  S   S1467     1.0  0.82653  0.85077  0.35517  1.0000
  Fe  Fe735     1.0  0.77207  0.84984  0.37108  1.0000
  S   S1468     1.0  0.76283  0.83349  0.39056  1.0000
  Fe  Fe736     1.0  0.77390  0.88177  0.35770  1.0000
  S   S1469     1.0  0.76325  0.90553  0.35830  1.0000
  S   S1470     1.0  0.79010  0.84143  0.35300  1.0000
  S   S1471     1.0  0.79205  0.87613  0.33837  1.0000
  H   H8783     1.0  0.82214  0.92777  0.35507  1.0000
  S   S1472     1.0  0.80531  0.78878  0.46245  1.0000
  Fe  Fe737     1.0  0.81606  0.82160  0.46981  1.0000
  S   S1473     1.0  0.81592  0.82062  0.44698  1.0000
  H   H8784     1.0  0.94438  0.85382  0.39516  1.0000
  Fe  Fe738     1.0  0.79446  0.81298  0.45785  1.0000
  S   S1474     1.0  0.77438  0.82400  0.44790  1.0000
  Fe  Fe739     1.0  0.82679  0.79659  0.45352  1.0000
  S   S1475     1.0  0.84698  0.78466  0.43958  1.0000
  H   H8785     1.0  0.76881  0.89448  0.30525  1.0000
  H   H8786     1.0  0.80994  0.81041  0.37307  1.0000
  H   H8787     1.0  0.86378  0.90566  0.39315  1.0000
  S   S1476     1.0  0.90303  0.94562  0.42121  1.0000
  C   C5125     1.0  0.79412  0.80321  0.40247  1.0000
  H   H8788     1.0  0.84177  0.88664  0.45236  1.0000
  H   H8789     1.0  0.78226  0.79111  0.42336  1.0000
  C   C5126     1.0  0.96424  0.84963  0.36192  1.0000
  H   H8790     1.0  0.81663  0.83086  0.41240  1.0000
  N   N367      1.0  0.95250  0.77495  0.43121  1.0000
  Fe  Fe740     1.0  0.87389  0.86850  0.39712  1.0000
  S   S1477     1.0  0.88040  0.87924  0.41143  1.0000
  S   S1478     1.0  0.85090  0.87933  0.39263  1.0000
  Fe  Fe741     1.0  0.90399  0.84637  0.39366  1.0000
  S   S1479     1.0  0.91274  0.85575  0.40746  1.0000
  Fe  Fe742     1.0  0.88998  0.85606  0.42232  1.0000
  S   S1480     1.0  0.88702  0.84922  0.44696  1.0000
  Fe  Fe743     1.0  0.90232  0.87792  0.39518  1.0000
  S   S1481     1.0  0.91356  0.89718  0.38432  1.0000
  S   S1482     1.0  0.88170  0.84529  0.40939  1.0000
  S   S1483     1.0  0.89525  0.86865  0.38002  1.0000
  H   H8791     1.0  0.75317  0.86169  0.40103  1.0000
  H   H8792     1.0  0.91191  0.94667  0.38967  1.0000
  H   H8793     1.0  0.96492  0.78726  0.41144  1.0000
  C   C5127     1.0  0.79913  0.82601  0.40470  1.0000
  C   C5128     1.0  0.93268  0.85796  0.35466  1.0000
  C   C5129     1.0  0.76929  0.96196  0.33345  1.0000
  H   H8794     1.0  0.94517  0.87920  0.37831  1.0000
  N   N368      1.0  0.94694  0.96230  0.42130  1.0000
  H   H8795     1.0  0.74965  0.89943  0.27620  1.0000
  C   C5130     1.0  0.95457  0.85834  0.39109  1.0000
  Fe  Fe744     1.0  0.79123  0.95451  0.38282  1.0000
  H   H8796     1.0  0.96987  0.96320  0.40928  1.0000
  H   H8797     1.0  0.95416  0.75991  0.38348  1.0000
  C   C5131     1.0  0.96131  0.80543  0.37673  1.0000
  C   C5132     1.0  0.75444  0.86853  0.40796  1.0000
  H   H8798     1.0  0.93578  0.76469  0.42899  1.0000
  H   H8799     1.0  0.96890  0.79874  0.36925  1.0000
  H   H8800     1.0  0.92325  0.73947  0.36171  1.0000
  H   H8801     1.0  0.92007  0.79536  0.44898  1.0000
  C   C5133     1.0  0.87597  0.74724  0.45451  1.0000
  H   H8802     1.0  0.75821  0.90795  0.28480  1.0000
  H   H8803     1.0  0.88103  0.91060  0.39050  1.0000
  H   H8804     1.0  0.80009  0.86559  0.46306  1.0000
  C   C5134     1.0  0.94216  0.78894  0.43526  1.0000
  C   C5135     1.0  0.91038  0.91059  0.39468  1.0000
  C   C5136     1.0  0.90554  0.90731  0.41006  1.0000
  H   H8805     1.0  0.90377  0.89636  0.41579  1.0000
  C   C5137     1.0  0.85499  0.76808  0.45066  1.0000
  C   C5138     1.0  0.86945  0.76027  0.44548  1.0000
  C   C5139     1.0  0.76400  0.90025  0.31450  1.0000
  H   H8806     1.0  0.93658  0.85076  0.37654  1.0000
  S   S1484     1.0  0.79877  0.95690  0.35831  1.0000
  C   C5140     1.0  0.84706  0.76274  0.46483  1.0000
  H   H8807     1.0  0.98153  0.77552  0.43673  1.0000
  H   H8808     1.0  0.75555  0.80033  0.37904  1.0000
  H   H8809     1.0  0.79305  0.83148  0.39563  1.0000
  H   H8810     1.0  0.96737  0.95895  0.42855  1.0000
  C   C5141     1.0  0.84051  0.84059  0.46904  1.0000
  C   C5142     1.0  0.84922  0.83365  0.45754  1.0000
  C   C5143     1.0  0.86367  0.83608  0.45079  1.0000
  C   C5144     1.0  0.86951  0.84509  0.45582  1.0000
  C   C5145     1.0  0.86106  0.85133  0.46782  1.0000
  C   C5146     1.0  0.94905  0.94590  0.42273  1.0000
  H   H8811     1.0  0.84466  0.82687  0.45350  1.0000
  H   H8812     1.0  0.87026  0.83106  0.44164  1.0000
  H   H8813     1.0  0.94206  0.74737  0.39211  1.0000
  H   H8814     1.0  0.92386  0.94903  0.44599  1.0000
  C   C5147     1.0  0.76165  0.81298  0.45028  1.0000
  C   C5148     1.0  0.76576  0.79751  0.45376  1.0000
  C   C5149     1.0  0.75560  0.78906  0.45459  1.0000
  C   C5150     1.0  0.75611  0.96019  0.31592  1.0000
  H   H8815     1.0  0.88824  0.78081  0.46493  1.0000
  C   C5151     1.0  0.96131  0.98220  0.41888  1.0000
  H   H8816     1.0  0.77686  0.79204  0.45543  1.0000
  H   H8817     1.0  0.77622  0.85500  0.41075  1.0000
  C   C5152     1.0  0.75048  0.97548  0.31351  1.0000
  H   H8818     1.0  0.81713  0.94142  0.31577  1.0000
  C   C5153     1.0  0.76972  0.91267  0.36951  1.0000
  C   C5154     1.0  0.77788  0.90327  0.37981  1.0000
  C   C5155     1.0  0.78319  0.90916  0.38853  1.0000
  C   C5156     1.0  0.78058  0.92450  0.38676  1.0000
  C   C5157     1.0  0.77239  0.93390  0.37648  1.0000
  C   C5158     1.0  0.76686  0.92799  0.36794  1.0000
  H   H8819     1.0  0.78013  0.89148  0.38109  1.0000
  H   H8820     1.0  0.78968  0.90184  0.39631  1.0000
  H   H8821     1.0  0.77047  0.94575  0.37499  1.0000
  H   H8822     1.0  0.76071  0.93530  0.35985  1.0000
  C   C5159     1.0  0.84417  0.87078  0.38274  1.0000
  C   C5160     1.0  0.85357  0.85964  0.37570  1.0000
  C   C5161     1.0  0.84801  0.85339  0.36742  1.0000
  C   C5162     1.0  0.83299  0.85808  0.36636  1.0000
  C   C5163     1.0  0.82351  0.86891  0.37377  1.0000
  C   C5164     1.0  0.82913  0.87539  0.38177  1.0000
  H   H8823     1.0  0.86519  0.85599  0.37643  1.0000
  H   H8824     1.0  0.85540  0.84498  0.36173  1.0000
  H   H8825     1.0  0.81194  0.87257  0.37303  1.0000
  H   H8826     1.0  0.82181  0.88404  0.38718  1.0000
  H   H8827     1.0  0.80753  0.93822  0.33467  1.0000
  H   H8828     1.0  0.86558  0.85821  0.47179  1.0000
  H   H8829     1.0  0.79930  0.79191  0.40041  1.0000
  C   C5165     1.0  0.95538  0.87534  0.34970  1.0000
  H   H8830     1.0  0.93653  0.76707  0.35162  1.0000
  H   H8831     1.0  0.87093  0.77471  0.47137  1.0000
  C   C5166     1.0  0.95880  0.93953  0.40935  1.0000
  H   H8832     1.0  0.77075  0.80208  0.41108  1.0000
  S   S1485     1.0  0.80829  0.96528  0.38492  1.0000
  S   S1486     1.0  0.98595  0.80544  0.38623  1.0000
  C   C5167     1.0  0.88223  0.94217  0.36897  1.0000
  H   H8833     1.0  0.83932  0.97330  0.37371  1.0000
  C   C5168     1.0  0.75145  0.84558  0.33563  1.0000
  C   C5169     1.0  0.75750  0.85213  0.32111  1.0000
  C   C5170     1.0  0.87591  0.78454  0.46718  1.0000
  H   H8834     1.0  0.75679  0.84466  0.34443  1.0000
  C   C5171     1.0  0.74646  0.97678  0.17835  1.0000
  C   C5172     1.0  0.76338  0.97723  0.33121  1.0000
  S   S1487     1.0  0.91004  0.97968  0.38806  1.0000
  H   H8835     1.0  0.98478  0.85730  0.34891  1.0000
  H   H8836     1.0  0.92805  0.75909  0.34207  1.0000
  H   H8837     1.0  0.91961  0.79565  0.43075  1.0000
  H   H8838     1.0  0.96039  0.76871  0.45156  1.0000
  C   C5173     1.0  0.96185  0.96592  0.41939  1.0000
  C   C5174     1.0  0.90337  0.91811  0.41811  1.0000
  C   C5175     1.0  0.86008  0.98059  0.36784  1.0000
  H   H8839     1.0  0.88122  0.93506  0.39188  1.0000
  S   S1488     1.0  0.99313  0.73806  0.42302  1.0000
  C   C5176     1.0  0.76563  0.95347  0.32582  1.0000
  H   H8840     1.0  0.96182  0.84044  0.37151  1.0000
  H   H8841     1.0  0.77680  0.81114  0.42120  1.0000
  C   C5177     1.0  0.92933  0.74620  0.36455  1.0000
  C   C5178     1.0  0.74829  0.89830  0.41713  1.0000
  H   H8842     1.0  0.82184  0.90064  0.42874  1.0000
  H   H8843     1.0  0.89991  0.91543  0.43003  1.0000
  C   C5179     1.0  0.96674  0.80970  0.38654  1.0000
  H   H8844     1.0  0.79624  0.90267  0.43269  1.0000
  H   H8845     1.0  0.96097  0.82152  0.40394  1.0000
  C   C5180     1.0  0.81013  0.80223  0.41920  1.0000
  H   H8846     1.0  0.75824  0.97624  0.43488  1.0000
  H   H8847     1.0  0.84687  0.92031  0.40810  1.0000
  H   H8848     1.0  0.82377  0.79602  0.39200  1.0000
  H   H8849     1.0  0.80815  0.77937  0.42088  1.0000
  C   C5181     1.0  0.93637  0.81973  0.38526  1.0000
  H   H8850     1.0  0.76681  0.86422  0.42553  1.0000
  C   C5182     1.0  0.95632  0.76371  0.44479  1.0000
  H   H8851     1.0  0.88665  0.90515  0.36816  1.0000
  H   H8852     1.0  0.96575  0.75458  0.44153  1.0000
  C   C5183     1.0  0.81930  0.80791  0.39230  1.0000
  C   C5184     1.0  0.90558  0.93237  0.41081  1.0000
  H   H8853     1.0  0.93582  0.77342  0.40388  1.0000
  H   H8854     1.0  0.98294  0.85350  0.36873  1.0000
  H   H8855     1.0  0.82591  0.94153  0.32971  1.0000
  H   H8856     1.0  0.75524  0.85810  0.29850  1.0000
  H   H8857     1.0  0.95411  0.75773  0.42019  1.0000
  H   H8858     1.0  0.80282  0.92586  0.36040  1.0000
  C   C5185     1.0  0.96698  0.77865  0.42147  1.0000
  C   C5186     1.0  0.97617  0.78447  0.42853  1.0000
  H   H8859     1.0  0.75888  0.77710  0.45706  1.0000
  H   H8860     1.0  0.87561  0.76433  0.43451  1.0000
  C   C5187     1.0  0.94167  0.82319  0.39568  1.0000
  N   N369      1.0  0.95292  0.86381  0.36380  1.0000
  H   H8861     1.0  0.87537  0.94670  0.36055  1.0000
  N   N370      1.0  0.82370  0.87728  0.43842  1.0000
  C   C5188     1.0  0.84042  0.87419  0.43679  1.0000
  C   C5189     1.0  0.82008  0.86367  0.43670  1.0000
  C   C5190     1.0  0.81628  0.87999  0.45373  1.0000
  C   C5191     1.0  0.81956  0.89078  0.42670  1.0000
  C   C5192     1.0  0.84644  0.88554  0.44075  1.0000
  C   C5193     1.0  0.82703  0.85936  0.42168  1.0000
  C   C5194     1.0  0.80023  0.87754  0.46024  1.0000
  C   C5195     1.0  0.80322  0.89538  0.42508  1.0000
  H   H8862     1.0  0.84436  0.86328  0.44375  1.0000
  H   H8863     1.0  0.84647  0.87342  0.42529  1.0000
  H   H8864     1.0  0.80790  0.86466  0.43853  1.0000
  H   H8865     1.0  0.82371  0.85394  0.44532  1.0000
  H   H8866     1.0  0.82287  0.87252  0.46190  1.0000
  H   H8867     1.0  0.81602  0.89147  0.45418  1.0000
  H   H8868     1.0  0.82685  0.88988  0.41562  1.0000
  H   H8869     1.0  0.77626  0.95664  0.34138  1.0000
  H   H8870     1.0  0.85870  0.88152  0.43975  1.0000
  H   H8871     1.0  0.84461  0.89650  0.43309  1.0000
  H   H8872     1.0  0.83940  0.85613  0.41955  1.0000
  H   H8873     1.0  0.82316  0.84954  0.42166  1.0000
  H   H8874     1.0  0.82336  0.86833  0.41257  1.0000
  C   C5196     1.0  0.85355  0.74975  0.47382  1.0000
  H   H8875     1.0  0.95429  0.75301  0.33533  1.0000
  C   C5197     1.0  0.76513  0.85848  0.41787  1.0000
  H   H8876     1.0  0.80292  0.90169  0.41360  1.0000
  H   H8877     1.0  0.95335  0.94372  0.39979  1.0000
  C   C5198     1.0  0.95684  0.81835  0.39620  1.0000
  H   H8878     1.0  0.86663  0.95043  0.38730  1.0000
  H   H8879     1.0  0.91712  0.76847  0.35666  1.0000
  C   C5199     1.0  0.94304  0.77808  0.40776  1.0000
  H   H8880     1.0  0.92879  0.86969  0.37189  1.0000
  C   C5200     1.0  0.94615  0.81052  0.37603  1.0000
  H   H8881     1.0  0.97447  0.76882  0.41734  1.0000
  H   H8882     1.0  0.75589  0.97841  0.18187  1.0000
  H   H8883     1.0  0.82779  0.81497  0.36865  1.0000
  H   H8884     1.0  0.82707  0.78238  0.41396  1.0000
  H   H8885     1.0  0.96663  0.87778  0.34741  1.0000
  S   S1489     1.0  0.77310  0.97515  0.38142  1.0000
  C   C5201     1.0  0.81681  0.81576  0.37662  1.0000
  H   H8886     1.0  0.84726  0.93905  0.40644  1.0000
  H   H8887     1.0  0.94355  0.96094  0.44481  1.0000
  S   S1490     1.0  0.98808  0.76459  0.38482  1.0000
  S   S1491     1.0  0.83835  0.96369  0.34794  1.0000
  C   C5202     1.0  0.98076  0.85010  0.35964  1.0000
  C   C5203     1.0  0.86371  0.97414  0.34042  1.0000
  H   H8888     1.0  0.94348  0.79851  0.42569  1.0000
  C   C5204     1.0  0.95384  0.74670  0.36880  1.0000
  C   C5205     1.0  0.87483  0.91132  0.37044  1.0000
  H   H8889     1.0  0.89059  0.93204  0.36665  1.0000
  H   H8890     1.0  0.81907  0.80675  0.42050  1.0000
  H   H8891     1.0  0.76049  0.87679  0.40000  1.0000
  H   H8892     1.0  0.94045  0.84860  0.35010  1.0000
  C   C5206     1.0  0.83826  0.92725  0.38254  1.0000
  H   H8893     1.0  0.93812  0.94287  0.42465  1.0000
  C   C5207     1.0  0.92231  0.96110  0.44117  1.0000
  C   C5208     1.0  0.85448  0.92813  0.40462  1.0000
  C   C5209     1.0  0.93737  0.96595  0.43574  1.0000
  H   H8894     1.0  0.75013  0.80552  0.39630  1.0000
  H   H8895     1.0  0.91652  0.92740  0.37550  1.0000
  H   H8896     1.0  0.93900  0.75052  0.45032  1.0000
  H   H8897     1.0  0.82859  0.81157  0.39410  1.0000
  H   H8898     1.0  0.87292  0.91239  0.41436  1.0000
  C   C5210     1.0  0.94602  0.75479  0.38154  1.0000
  H   H8899     1.0  0.94532  0.79166  0.44427  1.0000
  H   H8900     1.0  0.94210  0.80768  0.36803  1.0000
  H   H8901     1.0  0.93489  0.76454  0.46116  1.0000
  H   H8902     1.0  0.98291  0.73517  0.39893  1.0000
  H   H8903     1.0  0.83060  0.92745  0.39351  1.0000
  H   H8904     1.0  0.79242  0.88371  0.45295  1.0000
  H   H8905     1.0  0.81158  0.82768  0.37561  1.0000
  H   H8906     1.0  0.88709  0.74124  0.45044  1.0000
  C   C5211     1.0  0.86802  0.74198  0.46872  1.0000
  S   S1492     1.0  0.91786  0.82729  0.38300  1.0000
  C   C5212     1.0  0.91277  0.92479  0.38739  1.0000
  S   S1493     1.0  0.75093  0.94929  0.30709  1.0000
  H   H8907     1.0  0.95387  0.93954  0.43252  1.0000
  H   H8908     1.0  0.93275  0.88970  0.35533  1.0000
  H   H8909     1.0  0.84305  0.91567  0.38136  1.0000
  H   H8910     1.0  0.91512  0.96680  0.45005  1.0000
  C   C5213     1.0  0.94374  0.75647  0.45555  1.0000
  H   H8911     1.0  0.94797  0.89770  0.35430  1.0000
  H   H8912     1.0  0.92220  0.77833  0.44413  1.0000
  H   H8913     1.0  0.94356  0.89609  0.33784  1.0000
  H   H8914     1.0  0.86809  0.90409  0.36945  1.0000
  H   H8915     1.0  0.87393  0.92137  0.36152  1.0000
  H   H8916     1.0  0.92162  0.85492  0.35892  1.0000
  S   S1494     1.0  0.78863  0.93196  0.39639  1.0000
  H   H8917     1.0  0.80410  0.84674  0.40460  1.0000
  H   H8918     1.0  0.97028  0.94148  0.40620  1.0000
  C   C5214     1.0  0.94431  0.89052  0.34943  1.0000
  H   H8919     1.0  0.80183  0.92446  0.31570  1.0000
  H   H8920     1.0  0.91614  0.96398  0.43228  1.0000
  Fe  Fe745     1.0  0.89658  0.96950  0.40959  1.0000
  H   H8921     1.0  0.77151  0.90753  0.31364  1.0000
  H   H8922     1.0  0.80119  0.90524  0.31855  1.0000
  C   C5215     1.0  0.86464  0.92278  0.41587  1.0000
  H   H8923     1.0  0.84442  0.94720  0.38189  1.0000
  C   C5216     1.0  0.93752  0.86069  0.36745  1.0000
  H   H8924     1.0  0.93129  0.86805  0.34574  1.0000
  H   H8925     1.0  0.74793  0.96193  0.36796  1.0000
  H   H8926     1.0  0.94852  0.74793  0.46444  1.0000
  H   H8927     1.0  0.76419  0.89203  0.32512  1.0000
  H   H8928     1.0  0.81511  0.91683  0.37252  1.0000
  H   H8929     1.0  0.98770  0.83874  0.35947  1.0000
  C   C5217     1.0  0.87056  0.91391  0.38635  1.0000
  H   H8930     1.0  0.95578  0.87125  0.33988  1.0000
  H   H8931     1.0  0.76131  0.84816  0.42413  1.0000
  H   H8932     1.0  0.81839  0.78102  0.43291  1.0000
  H   H8933     1.0  0.76984  0.94163  0.32789  1.0000
  H   H8934     1.0  0.85505  0.93831  0.36763  1.0000
  C   C5218     1.0  0.92788  0.76093  0.35296  1.0000
  S   S1495     1.0  0.87465  0.97827  0.40267  1.0000
  C   C5219     1.0  0.87285  0.93942  0.38488  1.0000
  H   H8935     1.0  0.85763  0.92051  0.42721  1.0000
  H   H8936     1.0  0.80060  0.80437  0.42866  1.0000
  C   C5220     1.0  0.81619  0.78532  0.42162  1.0000
  H   H8937     1.0  0.79053  0.82735  0.41499  1.0000
  C   C5221     1.0  0.78040  0.80192  0.41544  1.0000
  H   H8938     1.0  0.86528  0.97154  0.32983  1.0000
  H   H8939     1.0  0.78979  0.80980  0.39248  1.0000
  Fe  Fe746     1.0  0.81458  0.96917  0.36028  1.0000
  H   H8940     1.0  0.87286  0.79017  0.45636  1.0000
  H   H8941     1.0  0.81828  0.83654  0.39263  1.0000
  H   H8942     1.0  0.96945  0.79390  0.43359  1.0000
  H   H8943     1.0  0.98539  0.78854  0.41976  1.0000
  C   C5222     1.0  0.85036  0.93609  0.37967  1.0000
  H   H8944     1.0  0.96481  0.87393  0.37305  1.0000
  H   H8945     1.0  0.95485  0.86406  0.39948  1.0000
  C   C5223     1.0  0.84915  0.97504  0.36517  1.0000
  C   C5224     1.0  0.81033  0.83538  0.40351  1.0000
  C   C5225     1.0  0.95448  0.86954  0.37616  1.0000
  H   H8946     1.0  0.93649  0.76387  0.37867  1.0000
  N   N371      1.0  0.86228  0.92921  0.38853  1.0000
  C   C5226     1.0  0.74725  0.81990  0.44806  1.0000
  H   H8947     1.0  0.95708  0.75546  0.35912  1.0000
  N   N372      1.0  0.80568  0.80983  0.40466  1.0000
  H   H8948     1.0  0.75835  0.89538  0.40862  1.0000
  H   H8949     1.0  0.95993  0.92734  0.41228  1.0000
  N   N373      1.0  0.81769  0.90807  0.33886  1.0000
  C   C5227     1.0  0.82420  0.89318  0.33476  1.0000
  C   C5228     1.0  0.80126  0.91179  0.33878  1.0000
  C   C5229     1.0  0.81931  0.90618  0.35439  1.0000
  C   C5230     1.0  0.82606  0.91924  0.32803  1.0000
  C   C5231     1.0  0.84109  0.88684  0.33408  1.0000
  C   C5232     1.0  0.79742  0.91504  0.32355  1.0000
  C   C5233     1.0  0.81450  0.92012  0.36070  1.0000
  C   C5234     1.0  0.81856  0.93587  0.32718  1.0000
  H   H8950     1.0  0.81826  0.88465  0.34261  1.0000
  H   H8951     1.0  0.82267  0.89355  0.32368  1.0000
  H   H8952     1.0  0.79493  0.92136  0.34375  1.0000
  H   H8953     1.0  0.79594  0.90260  0.34603  1.0000
  H   H8954     1.0  0.81272  0.89818  0.36213  1.0000
  H   H8955     1.0  0.83109  0.90163  0.35542  1.0000
  H   H8956     1.0  0.83724  0.91751  0.33043  1.0000
  H   H8957     1.0  0.82842  0.91740  0.31663  1.0000
  H   H8958     1.0  0.84807  0.89440  0.32629  1.0000
  H   H8959     1.0  0.84388  0.88365  0.34509  1.0000
  H   H8960     1.0  0.84439  0.87644  0.33002  1.0000
  H   H8961     1.0  0.78507  0.91813  0.32505  1.0000
  Fe  Fe747     1.0  0.78211  0.97846  0.35693  1.0000
  C   C5235     1.0  0.85105  0.97169  0.35146  1.0000
  C   C5236     1.0  0.87425  0.98022  0.34288  1.0000
  H   H8962     1.0  0.74975  0.96545  0.17625  1.0000
  C   C5237     1.0  0.84651  0.84927  0.47428  1.0000
  H   H8963     1.0  0.75106  0.88503  0.30161  1.0000
  C   C5238     1.0  0.74752  0.90528  0.28522  1.0000
  H   H8964     1.0  0.74983  0.88114  0.22408  1.0000
  C   C5239     1.0  0.87252  0.98340  0.35658  1.0000
  H   H8965     1.0  0.77625  0.97946  0.41067  1.0000
  C   C5240     1.0  0.75061  0.85305  0.30977  1.0000
  H   H8966     1.0  0.96543  0.73676  0.32915  1.0000
  C   C5241     1.0  0.74651  0.80062  0.38915  1.0000
  H   H8967     1.0  0.74553  0.78924  0.39531  1.0000
  C   C5242     1.0  0.74814  0.90980  0.31412  1.0000
  H   H8968     1.0  0.93025  0.96561  0.40878  1.0000
  H   H8969     1.0  0.94269  0.97332  0.38525  1.0000
  H   H8970     1.0  0.93460  0.97810  0.43500  1.0000
  C   C5243     1.0  0.93900  0.97106  0.40902  1.0000
  S   S1496     1.0  0.82179  0.83947  0.47631  1.0000
  H   H8971     1.0  0.87678  0.80437  0.47231  1.0000
  H   H8972     1.0  0.85863  0.80133  0.47641  1.0000
  C   C5244     1.0  0.94879  0.97402  0.39317  1.0000
  H   H8973     1.0  0.95971  0.96627  0.39120  1.0000
  N   N374      1.0  0.94495  0.73765  0.36566  1.0000
  H   H8974     1.0  0.85878  0.98303  0.37841  1.0000
  H   H8975     1.0  0.97148  0.74336  0.34140  1.0000
  H   H8976     1.0  0.96466  0.73962  0.37117  1.0000
  H   H8977     1.0  0.93289  0.98216  0.41118  1.0000
  H   H8978     1.0  0.88385  0.98238  0.33414  1.0000
  H   H8979     1.0  0.74545  0.88095  0.32706  1.0000
  H   H8980     1.0  0.74520  0.87904  0.43472  1.0000
  H   H8981     1.0  0.90399  0.79769  0.63954  1.0000
  N   N375      1.0  0.78192  0.78417  0.65721  1.0000
  C   C5245     1.0  0.83618  0.74544  0.62811  1.0000
  H   H8982     1.0  0.94730  0.97960  0.59871  1.0000
  H   H8983     1.0  0.88870  0.73922  0.61041  1.0000
  H   H8984     1.0  0.77574  0.79400  0.55686  1.0000
  H   H8985     1.0  0.78387  0.80003  0.66820  1.0000
  S   S1497     1.0  0.91745  0.97125  0.62128  1.0000
  H   H8986     1.0  0.89763  0.80464  0.60875  1.0000
  C   C5246     1.0  0.85664  0.78462  0.50245  1.0000
  H   H8987     1.0  0.86229  0.82416  0.50245  1.0000
  S   S1498     1.0  0.80294  0.77680  0.50565  1.0000
  H   H8988     1.0  0.78146  0.83520  0.50756  1.0000
  C   C5247     1.0  0.77951  0.80262  0.54714  1.0000
  Fe  Fe748     1.0  0.76171  0.84285  0.65000  1.0000
  S   S1499     1.0  0.78469  0.83025  0.65288  1.0000
  H   H8989     1.0  0.86211  0.95807  0.64758  1.0000
  H   H8990     1.0  0.98091  0.81146  0.65441  1.0000
  Fe  Fe749     1.0  0.78991  0.78918  0.59315  1.0000
  S   S1500     1.0  0.80810  0.80170  0.58667  1.0000
  S   S1501     1.0  0.76646  0.80248  0.59740  1.0000
  Fe  Fe750     1.0  0.81180  0.75971  0.59351  1.0000
  S   S1502     1.0  0.83189  0.76968  0.58715  1.0000
  S   S1503     1.0  0.75114  0.83186  0.63944  1.0000
  Fe  Fe751     1.0  0.81867  0.78367  0.60338  1.0000
  S   S1504     1.0  0.82702  0.78668  0.62166  1.0000
  Fe  Fe752     1.0  0.81944  0.78654  0.57112  1.0000
  S   S1505     1.0  0.83046  0.79550  0.54785  1.0000
  S   S1506     1.0  0.79954  0.77231  0.61112  1.0000
  S   S1507     1.0  0.80025  0.77549  0.57616  1.0000
  H   H8991     1.0  0.78608  0.91356  0.61292  1.0000
  S   S1508     1.0  0.97001  0.80446  0.62438  1.0000
  C   C5248     1.0  0.94928  0.93917  0.63429  1.0000
  S   S1509     1.0  0.78084  0.92794  0.66378  1.0000
  Fe  Fe753     1.0  0.88608  0.84107  0.64298  1.0000
  S   S1510     1.0  0.89136  0.85007  0.61846  1.0000
  S   S1511     1.0  0.90212  0.82395  0.65568  1.0000
  Fe  Fe754     1.0  0.85301  0.85611  0.64631  1.0000
  S   S1512     1.0  0.85585  0.86570  0.62208  1.0000
  S   S1513     1.0  0.82990  0.86343  0.65960  1.0000
  Fe  Fe755     1.0  0.87026  0.84357  0.61920  1.0000
  S   S1514     1.0  0.86898  0.83238  0.60208  1.0000
  Fe  Fe756     1.0  0.87637  0.87136  0.62398  1.0000
  S   S1515     1.0  0.87722  0.89532  0.61347  1.0000
  S   S1516     1.0  0.86580  0.83342  0.64340  1.0000
  S   S1517     1.0  0.87276  0.86288  0.64851  1.0000
  Fe  Fe757     1.0  0.76862  0.94328  0.64690  1.0000
  C   C5249     1.0  0.95091  0.80945  0.63254  1.0000
  C   C5250     1.0  0.94272  0.82370  0.62761  1.0000
  C   C5251     1.0  0.92757  0.82810  0.63430  1.0000
  C   C5252     1.0  0.92068  0.81838  0.64622  1.0000
  C   C5253     1.0  0.92885  0.80410  0.65108  1.0000
  C   C5254     1.0  0.94387  0.79956  0.64412  1.0000
  H   H8992     1.0  0.94811  0.83139  0.61863  1.0000
  H   H8993     1.0  0.92137  0.83916  0.63053  1.0000
  H   H8994     1.0  0.92358  0.79656  0.66034  1.0000
  H   H8995     1.0  0.95011  0.78856  0.64801  1.0000
  C   C5255     1.0  0.82327  0.79001  0.53601  1.0000
  C   C5256     1.0  0.82065  0.79976  0.52282  1.0000
  C   C5257     1.0  0.81436  0.79569  0.51353  1.0000
  C   C5258     1.0  0.81074  0.78181  0.51736  1.0000
  C   C5259     1.0  0.81336  0.77203  0.53057  1.0000
  C   C5260     1.0  0.81964  0.77613  0.53990  1.0000
  H   H8996     1.0  0.82316  0.81061  0.51993  1.0000
  C   C5261     1.0  0.95921  0.74412  0.60653  1.0000
  H   H8997     1.0  0.81055  0.76130  0.53358  1.0000
  H   H8998     1.0  0.82183  0.76848  0.55002  1.0000
  C   C5262     1.0  0.83887  0.79915  0.61612  1.0000
  C   C5263     1.0  0.84124  0.80506  0.62673  1.0000
  C   C5264     1.0  0.85042  0.81528  0.62252  1.0000
  C   C5265     1.0  0.85754  0.81943  0.60772  1.0000
  C   C5266     1.0  0.85538  0.81328  0.59714  1.0000
  C   C5267     1.0  0.84594  0.80327  0.60130  1.0000
  H   H8999     1.0  0.83576  0.80194  0.63821  1.0000
  H   H9000     1.0  0.85186  0.82000  0.63075  1.0000
  H   H9001     1.0  0.86085  0.81644  0.58567  1.0000
  H   H9002     1.0  0.84417  0.79872  0.59305  1.0000
  C   C5268     1.0  0.79677  0.83966  0.65530  1.0000
  C   C5269     1.0  0.81181  0.83253  0.65453  1.0000
  C   C5270     1.0  0.82202  0.83992  0.65559  1.0000
  C   C5271     1.0  0.81715  0.85430  0.65794  1.0000
  C   C5272     1.0  0.80203  0.86141  0.65893  1.0000
  C   C5273     1.0  0.79185  0.85417  0.65737  1.0000
  H   H9003     1.0  0.81568  0.82137  0.65278  1.0000
  H   H9004     1.0  0.83363  0.83436  0.65490  1.0000
  H   H9005     1.0  0.79824  0.87254  0.66074  1.0000
  H   H9006     1.0  0.78026  0.85974  0.65785  1.0000
  H   H9007     1.0  0.85524  0.73881  0.51093  1.0000
  H   H9008     1.0  0.76528  0.81929  0.51579  1.0000
  C   C5274     1.0  0.78127  0.87210  0.60063  1.0000
  C   C5275     1.0  0.78168  0.82895  0.51909  1.0000
  H   H9009     1.0  0.75865  0.95226  0.73156  1.0000
  H   H9010     1.0  0.91491  0.92578  0.68656  1.0000
  H   H9011     1.0  0.75179  0.81695  0.55786  1.0000
  H   H9012     1.0  0.81109  0.94250  0.62610  1.0000
  H   H9013     1.0  0.82701  0.92809  0.62509  1.0000
  C   C5276     1.0  0.88401  0.77663  0.49582  1.0000
  C   C5277     1.0  0.79240  0.83959  0.60922  1.0000
  H   H9014     1.0  0.79353  0.82476  0.52002  1.0000
  H   H9015     1.0  0.82822  0.83158  0.59076  1.0000
  H   H9016     1.0  0.88222  0.80623  0.49319  1.0000
  H   H9017     1.0  0.80600  0.89650  0.65494  1.0000
  S   S1518     1.0  0.88260  0.97060  0.62381  1.0000
  C   C5278     1.0  0.96086  0.75160  0.58017  1.0000
  H   H9018     1.0  0.79012  0.78160  0.67687  1.0000
  H   H9019     1.0  0.88551  0.80124  0.63727  1.0000
  C   C5279     1.0  0.82648  0.95334  0.65623  1.0000
  Fe  Fe758     1.0  0.97900  0.74799  0.64260  1.0000
  C   C5280     1.0  0.75679  0.78489  0.58563  1.0000
  H   H9020     1.0  0.95005  0.94803  0.62405  1.0000
  H   H9021     1.0  0.84655  0.75459  0.53284  1.0000
  H   H9022     1.0  0.87622  0.76765  0.63336  1.0000
  H   H9023     1.0  0.78698  0.75007  0.66771  1.0000
  H   H9024     1.0  0.76700  0.77677  0.58699  1.0000
  H   H9025     1.0  0.80903  0.84270  0.62626  1.0000
  H   H9026     1.0  0.76367  0.85772  0.68480  1.0000
  Fe  Fe759     1.0  0.98884  0.75616  0.60969  1.0000
  C   C5281     1.0  0.88656  0.90490  0.61981  1.0000
  C   C5282     1.0  0.88354  0.92042  0.61579  1.0000
  C   C5283     1.0  0.89061  0.92847  0.62076  1.0000
  C   C5284     1.0  0.90103  0.92103  0.62951  1.0000
  C   C5285     1.0  0.90415  0.90550  0.63346  1.0000
  C   C5286     1.0  0.89684  0.89744  0.62873  1.0000
  H   H9027     1.0  0.87562  0.92624  0.60887  1.0000
  H   H9028     1.0  0.88814  0.94041  0.61761  1.0000
  H   H9029     1.0  0.91223  0.89966  0.64019  1.0000
  H   H9030     1.0  0.89932  0.88548  0.63177  1.0000
  H   H9031     1.0  0.83337  0.90437  0.63103  1.0000
  H   H9032     1.0  0.79293  0.90138  0.63782  1.0000
  H   H9033     1.0  0.80533  0.88645  0.63026  1.0000
  C   C5287     1.0  0.80648  0.92298  0.62278  1.0000
  H   H9034     1.0  0.76119  0.77678  0.53599  1.0000
  C   C5288     1.0  0.82231  0.90460  0.60788  1.0000
  C   C5289     1.0  0.81706  0.93334  0.62032  1.0000
  H   H9035     1.0  0.93198  0.91176  0.68377  1.0000
  S   S1519     1.0  0.78136  0.96093  0.64208  1.0000
  H   H9036     1.0  0.78201  0.89575  0.62116  1.0000
  Fe  Fe760     1.0  0.79209  0.94645  0.66055  1.0000
  H   H9037     1.0  0.95328  0.92187  0.67827  1.0000
  C   C5290     1.0  0.85011  0.96056  0.65121  1.0000
  C   C5291     1.0  0.79451  0.86448  0.60831  1.0000
  C   C5292     1.0  0.81473  0.84374  0.61446  1.0000
  H   H9038     1.0  0.86175  0.74458  0.64247  1.0000
  H   H9039     1.0  0.84338  0.76827  0.50724  1.0000
  S   S1520     1.0  0.81708  0.93986  0.65689  1.0000
  H   H9040     1.0  0.78338  0.84208  0.61899  1.0000
  H   H9041     1.0  0.80150  0.85561  0.58219  1.0000
  H   H9042     1.0  0.77764  0.77884  0.53969  1.0000
  H   H9043     1.0  0.78940  0.79662  0.54019  1.0000
  H   H9044     1.0  0.78650  0.84145  0.60018  1.0000
  H   H9045     1.0  0.77660  0.84825  0.69616  1.0000
  C   C5293     1.0  0.84197  0.95071  0.65090  1.0000
  C   C5294     1.0  0.74647  0.78203  0.57950  1.0000
  H   H9046     1.0  0.94177  0.93269  0.63344  1.0000
  S   S1521     1.0  0.89509  0.73743  0.57693  1.0000
  H   H9047     1.0  0.91799  0.93736  0.66075  1.0000
  H   H9048     1.0  0.82736  0.88793  0.63454  1.0000
  H   H9049     1.0  0.75915  0.79338  0.48810  1.0000
  C   C5295     1.0  0.85568  0.75075  0.53890  1.0000
  S   S1522     1.0  0.76565  0.93375  0.62961  1.0000
  C   C5296     1.0  0.75404  0.88829  0.69482  1.0000
  H   H9050     1.0  0.74611  0.83539  0.52728  1.0000
  C   C5297     1.0  0.79883  0.82284  0.61343  1.0000
  C   C5298     1.0  0.86167  0.75632  0.60570  1.0000
  C   C5299     1.0  0.75399  0.92124  0.63835  1.0000
  C   C5300     1.0  0.95891  0.91116  0.66020  1.0000
  C   C5301     1.0  0.87269  0.76664  0.59842  1.0000
  H   H9051     1.0  0.88415  0.76760  0.49073  1.0000
  C   C5302     1.0  0.94626  0.74976  0.58235  1.0000
  H   H9052     1.0  0.83554  0.74124  0.51740  1.0000
  H   H9053     1.0  0.96075  0.93236  0.63419  1.0000
  H   H9054     1.0  0.84098  0.74219  0.58049  1.0000
  H   H9055     1.0  0.85066  0.76397  0.60815  1.0000
  H   H9056     1.0  0.98793  0.82098  0.62830  1.0000
  C   C5303     1.0  0.92263  0.91902  0.67876  1.0000
  N   N376      1.0  0.76728  0.81015  0.53869  1.0000
  H   H9057     1.0  0.77480  0.87719  0.68175  1.0000
  H   H9058     1.0  0.80182  0.87251  0.60493  1.0000
  H   H9059     1.0  0.88442  0.76065  0.59537  1.0000
  H   H9060     1.0  0.87175  0.77431  0.60547  1.0000
  H   H9061     1.0  0.86962  0.77371  0.58800  1.0000
  H   H9062     1.0  0.75513  0.91466  0.61846  1.0000
  C   C5304     1.0  0.75377  0.79822  0.59007  1.0000
  H   H9063     1.0  0.78508  0.87565  0.58850  1.0000
  H   H9064     1.0  0.85097  0.74779  0.55093  1.0000
  H   H9065     1.0  0.84291  0.90649  0.59131  1.0000
  H   H9066     1.0  0.76610  0.86411  0.71146  1.0000
  H   H9067     1.0  0.80658  0.79875  0.64745  1.0000
  H   H9068     1.0  0.83928  0.91788  0.60409  1.0000
  S   S1523     1.0  0.91005  0.93080  0.63600  1.0000
  C   C5305     1.0  0.83843  0.90704  0.60311  1.0000
  H   H9069     1.0  0.89575  0.78711  0.61949  1.0000
  H   H9070     1.0  0.82898  0.84245  0.57285  1.0000
  H   H9071     1.0  0.84599  0.89813  0.60937  1.0000
  H   H9072     1.0  0.79773  0.89762  0.60606  1.0000
  C   C5306     1.0  0.87908  0.75646  0.63094  1.0000
  C   C5307     1.0  0.78997  0.78903  0.66578  1.0000
  H   H9073     1.0  0.79779  0.92446  0.63300  1.0000
  H   H9074     1.0  0.80004  0.92784  0.61394  1.0000
  C   C5308     1.0  0.82313  0.89999  0.63417  1.0000
  H   H9075     1.0  0.78982  0.79732  0.63572  1.0000
  C   C5309     1.0  0.91498  0.74023  0.51971  1.0000
  H   H9076     1.0  0.77502  0.80735  0.64711  1.0000
  H   H9077     1.0  0.81218  0.91370  0.65065  1.0000
  C   C5310     1.0  0.80090  0.89866  0.62756  1.0000
  H   H9078     1.0  0.81631  0.91192  0.59920  1.0000
  H   H9079     1.0  0.82347  0.89303  0.60703  1.0000
  C   C5311     1.0  0.79572  0.75671  0.66354  1.0000
  C   C5312     1.0  0.75591  0.93958  0.71771  1.0000
  H   H9080     1.0  0.90567  0.79911  0.58687  1.0000
  C   C5313     1.0  0.75699  0.86180  0.70795  1.0000
  C   C5314     1.0  0.81563  0.90189  0.65006  1.0000
  N   N377      1.0  0.81344  0.90683  0.62302  1.0000
  C   C5315     1.0  0.77916  0.79645  0.64399  1.0000
  C   C5316     1.0  0.85235  0.73632  0.62469  1.0000
  N   N378      1.0  0.94026  0.93637  0.66273  1.0000
  C   C5317     1.0  0.93439  0.94608  0.67389  1.0000
  C   C5318     1.0  0.92798  0.92893  0.66364  1.0000
  C   C5319     1.0  0.94325  0.94647  0.64767  1.0000
  C   C5320     1.0  0.95436  0.92554  0.66607  1.0000
  C   C5321     1.0  0.94539  0.95442  0.67533  1.0000
  H   H9081     1.0  0.76762  0.80459  0.62597  1.0000
  C   C5322     1.0  0.75894  0.79872  0.53931  1.0000
  H   H9082     1.0  0.75282  0.79499  0.55077  1.0000
  H   H9083     1.0  0.92414  0.95447  0.67147  1.0000
  H   H9084     1.0  0.93095  0.93947  0.68520  1.0000
  H   H9085     1.0  0.93110  0.92202  0.65540  1.0000
  H   H9086     1.0  0.85642  0.78191  0.51450  1.0000
  H   H9087     1.0  0.93286  0.95482  0.64577  1.0000
  H   H9088     1.0  0.95156  0.95289  0.64685  1.0000
  H   H9089     1.0  0.96400  0.93108  0.66186  1.0000
  C   C5323     1.0  0.75630  0.79385  0.67321  1.0000
  H   H9090     1.0  0.93977  0.96074  0.68413  1.0000
  H   H9091     1.0  0.95556  0.94680  0.67865  1.0000
  H   H9092     1.0  0.94861  0.96272  0.66520  1.0000
  H   H9093     1.0  0.80636  0.74978  0.65861  1.0000
  Fe  Fe761     1.0  0.80661  0.79261  0.48382  1.0000
  H   H9094     1.0  0.82181  0.86379  0.61428  1.0000
  H   H9095     1.0  0.74915  0.81125  0.49107  1.0000
  H   H9096     1.0  0.77693  0.81597  0.56318  1.0000
  H   H9097     1.0  0.97518  0.83102  0.65024  1.0000
  H   H9098     1.0  0.90827  0.77018  0.48897  1.0000
  H   H9099     1.0  0.79044  0.81680  0.61356  1.0000
  H   H9100     1.0  0.75941  0.88407  0.67223  1.0000
  H   H9101     1.0  0.80703  0.96834  0.66552  1.0000
  C   C5324     1.0  0.89693  0.80280  0.63134  1.0000
  H   H9102     1.0  0.81062  0.79469  0.66523  1.0000
  H   H9103     1.0  0.75345  0.80359  0.66435  1.0000
  H   H9104     1.0  0.87441  0.79699  0.51126  1.0000
  H   H9105     1.0  0.88316  0.77147  0.50782  1.0000
  C   C5325     1.0  0.93804  0.74537  0.59667  1.0000
  H   H9106     1.0  0.74568  0.79041  0.67939  1.0000
  H   H9107     1.0  0.91617  0.91180  0.67727  1.0000
  H   H9108     1.0  0.78997  0.86343  0.62045  1.0000
  H   H9109     1.0  0.76106  0.89017  0.70127  1.0000
  H   H9110     1.0  0.83469  0.84685  0.61860  1.0000
  H   H9111     1.0  0.76051  0.79727  0.68105  1.0000
  C   C5326     1.0  0.84276  0.97342  0.65641  1.0000
  C   C5327     1.0  0.85338  0.77136  0.49902  1.0000
  C   C5328     1.0  0.75187  0.94562  0.73025  1.0000
  H   H9112     1.0  0.83474  0.75291  0.63552  1.0000
  H   H9113     1.0  0.77507  0.88225  0.60478  1.0000
  H   H9114     1.0  0.88733  0.75696  0.62032  1.0000
  H   H9115     1.0  0.86086  0.76030  0.53697  1.0000
  H   H9116     1.0  0.87181  0.74187  0.52118  1.0000
  H   H9117     1.0  0.80114  0.81966  0.62467  1.0000
  H   H9118     1.0  0.95585  0.90171  0.66919  1.0000
  N   N379      1.0  0.80325  0.84966  0.60503  1.0000
  H   H9119     1.0  0.84727  0.74567  0.48471  1.0000
  H   H9120     1.0  0.93535  0.98218  0.58665  1.0000
  H   H9121     1.0  0.85476  0.81876  0.49029  1.0000
  C   C5329     1.0  0.87238  0.80151  0.49985  1.0000
  S   S1524     1.0  0.98563  0.75120  0.58952  1.0000
  H   H9122     1.0  0.97128  0.90822  0.65665  1.0000
  C   C5330     1.0  0.78526  0.81247  0.55347  1.0000
  S   S1525     1.0  0.89543  0.96387  0.65406  1.0000
  N   N380      1.0  0.86282  0.90436  0.67143  1.0000
  C   C5331     1.0  0.84914  0.90843  0.66497  1.0000
  C   C5332     1.0  0.85743  0.90175  0.68799  1.0000
  C   C5333     1.0  0.87222  0.89013  0.66724  1.0000
  C   C5334     1.0  0.87114  0.91674  0.66512  1.0000
  C   C5335     1.0  0.85207  0.91002  0.64813  1.0000
  C   C5336     1.0  0.84646  0.91503  0.69387  1.0000
  C   C5337     1.0  0.88689  0.88365  0.67264  1.0000
  C   C5338     1.0  0.88173  0.91799  0.67404  1.0000
  H   H9123     1.0  0.84199  0.90017  0.67030  1.0000
  H   H9124     1.0  0.84200  0.91917  0.66722  1.0000
  H   H9125     1.0  0.86676  0.89833  0.69374  1.0000
  H   H9126     1.0  0.85172  0.89228  0.69213  1.0000
  H   H9127     1.0  0.86556  0.88139  0.67125  1.0000
  H   H9128     1.0  0.87564  0.89154  0.65504  1.0000
  H   H9129     1.0  0.87776  0.91608  0.65378  1.0000
  H   H9130     1.0  0.86307  0.92761  0.66388  1.0000
  H   H9131     1.0  0.86068  0.91643  0.64186  1.0000
  H   H9132     1.0  0.85518  0.89906  0.64517  1.0000
  H   H9133     1.0  0.84164  0.91618  0.64437  1.0000
  H   H9134     1.0  0.83514  0.91653  0.69197  1.0000
  H   H9135     1.0  0.84525  0.91288  0.70601  1.0000
  H   H9136     1.0  0.85034  0.92551  0.68890  1.0000
  H   H9137     1.0  0.89505  0.89079  0.66711  1.0000
  H   H9138     1.0  0.89209  0.87285  0.66939  1.0000
  H   H9139     1.0  0.88516  0.88138  0.68480  1.0000
  H   H9140     1.0  0.89173  0.92147  0.66616  1.0000
  H   H9141     1.0  0.88589  0.90772  0.68166  1.0000
  H   H9142     1.0  0.87640  0.92699  0.68015  1.0000
  N   N381      1.0  0.91866  0.79027  0.61283  1.0000
  C   C5339     1.0  0.92155  0.78328  0.59986  1.0000
  C   C5340     1.0  0.92506  0.77871  0.62495  1.0000
  C   C5341     1.0  0.92602  0.80321  0.60876  1.0000
  C   C5342     1.0  0.91773  0.79382  0.58549  1.0000
  C   C5343     1.0  0.91632  0.76644  0.63306  1.0000
  C   C5344     1.0  0.94304  0.79983  0.60248  1.0000
  H   H9143     1.0  0.93345  0.77737  0.59709  1.0000
  H   H9144     1.0  0.91503  0.77458  0.60268  1.0000
  H   H9145     1.0  0.92636  0.78377  0.63342  1.0000
  H   H9146     1.0  0.93663  0.77296  0.62047  1.0000
  H   H9147     1.0  0.92073  0.81255  0.60075  1.0000
  H   H9148     1.0  0.92426  0.80783  0.61861  1.0000
  C   C5345     1.0  0.82718  0.97632  0.66145  1.0000
  H   H9149     1.0  0.92447  0.80239  0.58105  1.0000
  H   H9150     1.0  0.92042  0.78724  0.57694  1.0000
  H   H9151     1.0  0.90531  0.77082  0.63979  1.0000
  H   H9152     1.0  0.91481  0.76063  0.62537  1.0000
  H   H9153     1.0  0.92278  0.75802  0.64080  1.0000
  H   H9154     1.0  0.94712  0.81020  0.59975  1.0000
  H   H9155     1.0  0.94612  0.79568  0.59221  1.0000
  H   H9156     1.0  0.94909  0.79188  0.61074  1.0000
  C   C5346     1.0  0.75066  0.91309  0.63025  1.0000
  H   H9157     1.0  0.82102  0.83235  0.61364  1.0000
  H   H9158     1.0  0.81481  0.83168  0.58072  1.0000
  S   S1526     1.0  0.77520  0.95646  0.67854  1.0000
  H   H9159     1.0  0.94129  0.75192  0.57297  1.0000
  S   S1527     1.0  0.81321  0.73534  0.59912  1.0000
  H   H9160     1.0  0.84771  0.94103  0.64647  1.0000
  C   C5347     1.0  0.76480  0.88609  0.68001  1.0000
  H   H9161     1.0  0.78834  0.82228  0.54526  1.0000
  C   C5348     1.0  0.77375  0.81608  0.52267  1.0000
  C   C5349     1.0  0.96729  0.74901  0.59229  1.0000
  H   H9162     1.0  0.77312  0.86506  0.60305  1.0000
  Fe  Fe762     1.0  0.87690  0.97979  0.64410  1.0000
  Fe  Fe763     1.0  0.90206  0.95566  0.63307  1.0000
  H   H9163     1.0  0.81202  0.80347  0.50356  1.0000
  S   S1528     1.0  0.98908  0.76466  0.64636  1.0000
  N   N382      1.0  0.86466  0.74485  0.61940  1.0000
  S   S1529     1.0  0.96786  0.76431  0.62530  1.0000
  H   H9164     1.0  0.78228  0.80717  0.51786  1.0000
  C   C5350     1.0  0.81028  0.85200  0.58875  1.0000
  C   C5351     1.0  0.98520  0.82178  0.65051  1.0000
  C   C5352     1.0  0.81902  0.96624  0.66140  1.0000
  H   H9165     1.0  0.79550  0.80595  0.55746  1.0000
  H   H9166     1.0  0.75993  0.84204  0.69940  1.0000
  H   H9167     1.0  0.87737  0.73652  0.53809  1.0000
  Fe  Fe764     1.0  0.76340  0.96953  0.66022  1.0000
  C   C5353     1.0  0.85891  0.81480  0.50062  1.0000
  H   H9168     1.0  0.76153  0.83052  0.54670  1.0000
  H   H9169     1.0  0.96715  0.75514  0.56910  1.0000
  C   C5354     1.0  0.76447  0.85218  0.69628  1.0000
  H   H9170     1.0  0.80918  0.81905  0.60563  1.0000
  N   N383      1.0  0.87089  0.78942  0.49358  1.0000
  H   H9171     1.0  0.77301  0.78720  0.52176  1.0000
  H   H9172     1.0  0.76167  0.77618  0.66157  1.0000
  H   H9173     1.0  0.82383  0.89647  0.65718  1.0000
  H   H9174     1.0  0.77606  0.83724  0.52591  1.0000
  H   H9175     1.0  0.83984  0.85454  0.48324  1.0000
  C   C5355     1.0  0.80612  0.79054  0.65812  1.0000
  S   S1530     1.0  0.74959  0.95316  0.66337  1.0000
  S   S1531     1.0  0.90278  0.74805  0.53409  1.0000
  C   C5356     1.0  0.79111  0.77054  0.65167  1.0000
  C   C5357     1.0  0.76845  0.78468  0.53384  1.0000
  H   H9176     1.0  0.95447  0.91172  0.65062  1.0000
  H   H9177     1.0  0.81613  0.86134  0.58497  1.0000
  H   H9178     1.0  0.76973  0.77184  0.67702  1.0000
  H   H9179     1.0  0.77171  0.78493  0.63134  1.0000
  Fe  Fe765     1.0  0.76291  0.93911  0.68005  1.0000
  H   H9180     1.0  0.84966  0.81201  0.51009  1.0000
  H   H9181     1.0  0.89676  0.81483  0.62798  1.0000
  H   H9182     1.0  0.81363  0.77980  0.65644  1.0000
  C   C5358     1.0  0.76749  0.78074  0.66719  1.0000
  C   C5359     1.0  0.74805  0.91929  0.65355  1.0000
  H   H9183     1.0  0.75026  0.80345  0.53263  1.0000
  C   C5360     1.0  0.86448  0.75207  0.63145  1.0000
  H   H9184     1.0  0.78486  0.76704  0.64560  1.0000
  H   H9185     1.0  0.76586  0.94147  0.70942  1.0000
  H   H9186     1.0  0.80131  0.77279  0.64315  1.0000
  C   C5361     1.0  0.79128  0.90169  0.61614  1.0000
  C   C5362     1.0  0.82664  0.85285  0.61140  1.0000
  C   C5363     1.0  0.76813  0.79514  0.63565  1.0000
  Fe  Fe766     1.0  0.90935  0.73385  0.55496  1.0000
  C   C5364     1.0  0.90205  0.79582  0.61768  1.0000
  H   H9187     1.0  0.83321  0.85403  0.59985  1.0000
  S   S1532     1.0  0.74671  0.85558  0.60208  1.0000
  H   H9188     1.0  0.82058  0.93825  0.60839  1.0000
  C   C5365     1.0  0.74899  0.79932  0.49482  1.0000
  Fe  Fe767     1.0  0.98014  0.78003  0.62707  1.0000
  C   C5366     1.0  0.82103  0.83854  0.58314  1.0000
  H   H9189     1.0  0.79799  0.75931  0.67302  1.0000
  H   H9190     1.0  0.89806  0.74440  0.50740  1.0000
  H   H9191     1.0  0.90203  0.78571  0.49743  1.0000
  H   H9192     1.0  0.85534  0.76223  0.63163  1.0000
  C   C5367     1.0  0.75623  0.82192  0.54611  1.0000
  H   H9193     1.0  0.76891  0.89642  0.67447  1.0000
  C   C5368     1.0  0.92986  0.73372  0.52049  1.0000
  S   S1533     1.0  0.75559  0.86513  0.63544  1.0000
  H   H9194     1.0  0.74883  0.77176  0.57596  1.0000
  S   S1534     1.0  0.79368  0.81605  0.48021  1.0000
  C   C5369     1.0  0.89954  0.78050  0.48976  1.0000
  H   H9195     1.0  0.75659  0.79594  0.64242  1.0000
  Fe  Fe768     1.0  0.90932  0.98067  0.64156  1.0000
  H   H9196     1.0  0.75134  0.85454  0.71785  1.0000
  H   H9197     1.0  0.99095  0.82289  0.65849  1.0000
  H   H9198     1.0  0.75059  0.97809  0.63689  1.0000
  C   C5370     1.0  0.94453  0.74258  0.60874  1.0000
  H   H9199     1.0  0.84674  0.79377  0.50081  1.0000
  H   H9200     1.0  0.86115  0.75090  0.59712  1.0000
  H   H9201     1.0  0.88463  0.74889  0.63980  1.0000
  S   S1535     1.0  0.91972  0.74318  0.59972  1.0000
  H   H9202     1.0  0.74996  0.79536  0.50651  1.0000
  C   C5371     1.0  0.86767  0.73793  0.53323  1.0000
  H   H9203     1.0  0.75082  0.92521  0.65997  1.0000
  H   H9204     1.0  0.93405  0.73421  0.52958  1.0000
  H   H9205     1.0  0.96438  0.74110  0.61587  1.0000
  H   H9206     1.0  0.93840  0.73879  0.61981  1.0000
  H   H9207     1.0  0.83238  0.75186  0.61787  1.0000
  S   S1536     1.0  0.75104  0.92466  0.69978  1.0000
  H   H9208     1.0  0.85038  0.77434  0.48817  1.0000
  C   C5372     1.0  0.90962  0.73962  0.50789  1.0000
  H   H9209     1.0  0.82854  0.73774  0.63373  1.0000
  H   H9210     1.0  0.75341  0.87594  0.73019  1.0000
  H   H9211     1.0  0.86260  0.76145  0.49970  1.0000
  C   C5373     1.0  0.87907  0.73390  0.61540  1.0000
  H   H9212     1.0  0.74703  0.89547  0.72243  1.0000
  H   H9213     1.0  0.90051  0.78797  0.47865  1.0000
  N   N384      1.0  0.74604  0.87603  0.70353  1.0000
  C   C5374     1.0  0.87024  0.79558  0.47749  1.0000
  C   C5375     1.0  0.74710  0.93106  0.71599  1.0000
  H   H9214     1.0  0.74579  0.89893  0.69256  1.0000
  H   H9215     1.0  0.74580  0.97897  0.73626  1.0000
  C   C5376     1.0  0.99497  0.82269  0.63478  1.0000
  H   H9216     1.0  0.74509  0.97413  0.71273  1.0000
