data_image0
_chemical_formula_structural       FeS2FeS2FeSFeS3FeS2CSFeH3SCFeS2FeC2FeSFeHS2HCFeS2FeSFeHFeHS2H2NC3H4C4SH3CSHCHC3H3C8H4C6H4C3H2C6H4SC2HCSH2SCSH3CH2CH2FeCHC2HCHCHNHCHC2HCHCH3CH2CH5NCFeHCNHC2H13CH4FeSNC5H14CH2SHS2CH6CHCH7CSH2NC8H21C2HCHCHSH2CH2CH2CHC3H3C2H2C2H3CHFeHC2SHC2HFeH6CHCHCH2C2HCH4CH3SCHCH3SH2SH2CHC2HCH3CH3FeHSC2NHCSCHC2HC2H5CHC4HFeH2NSH2CHC2HC3HCH3CH5CH4CH5SH2FeCS2FeSFeS2FeS2FeSFeS3FeS2HCH2CHCH3SCHC2H4C6H4C6H5SC7H5CFeCHCH7CHCHCNH3NC8H21S2H3CH3NC5HC2H6CH4NCSH5C2H3CH3CHCH10NCNHCHSH4CH2NH5CH2FeCHCFeH2C2H4CH2CH2C2H3CH2C2SCH2CHCH4CHFeHSCHC3H5C2H2SH2FeCH2CH2SHC4H4C2FeS2FeS2FeSFeS3FeS2HS2HC2H3FeSHCSH2CHC4H4C6H4C6H6C6H4C2FeCHC4HCH3CHC2HSHCH3C2H4NC6H13NC5HCH20CH5SH2CH3C3HC2H2CHCHCH2C2NC8H3CH8C2HCSH3NC8H17FeH3CH4CHCH2SHCNHC2HNSFeH2C2H5SHCSFeCSHCHCNCH2CH7FeH2CSC2NH6CH6C2H3CH6C2H2FeH3C2H4CH2CH2NSFeS3HCHNCH3C6HSHCH3FeH3SHC3H3CSC4H4C2H3CH5CHCH3SH4C3H2CH2CHNHCH6FeHC3H3CHCH4CH3SCHCH5FeHSFeSFeNHS2FeS2FeS2FeSFeS3FeS2FeS2FeSFeS3FeHSNFeS2FeSHFeSFeSHSCHS2H4CH4C6H4FeH2SCHCH2C3H4C6H4C6H4C2H3C6H3NC4H2C2H8CHCHCH2CH9NC7H18NC4H12CHCH3CH2C3H2CHC2HCHC3H3CFeHCH4CH4CHCH2CHCHSC2SCHC2HCH3NC3H2CH2NHCH4CH10CH2SCHCH3CH3SH6CH2CHCH2C2H2C4SHCNHCH5CHCHCHNSH5SCH4SC3HCH2CHSH7CH2FeS2FeSCFeSFeSFeS2FeCSFeCFeHS2CHFeHC2H3SFeS2FeS2FeHSFeS2FeS2FeSFe2S2FeHS2C7H2CHCSHC2HCNHCHC4SH6CH4C2H3C2HC2HCHC9H3SC6H4C4H2C6H4SNC4SCH10CH5CHC2FeHNC5NHCH3CH5SH13CHC2NC8H17SHC4H11CSCH2FeS2CHCH3FeHCNCH6C2H4CHCH3CH6C2H2NCSC2H5FeH3NCH11CHC2H2SFeH2CH3CH2C2HCH3CH4SHCHCSH4CH2CHC2HCHCHCHC2H3SHC2HC2H2CH2SHCFeH2FeSHSFeH3SHSH3SFeSHSH2SHC4SH3SCHC4H10CHCH4C7H3NCH4CH3SH2SCHCHCH3CH2CH2FeH4CHCH2CHCHCSH2CNHCHCH2C4H3S2HCHSHCHFeHSH4CHSCHNCHC2HC3H2C2FeH2C3H6SHC2FeS2FeHNSC2H4CHC2HCH3C2NH5C2HCH2CHCH3C4H2CHSH2CH2CHC2H2C2SHCN2H2C3HCNHSC2H4CHCH5CH2SH4CHC3FeHSH2C3H2SHFeH9C2HSH2SFe2S2CS2FeSCFeSHFeCSFeSCHCFeS2FeS2FeSFeS3FeSFeHSFeS3FeS2FeS2FeSFeS3C6H5C5H3C6H5C3H2C5FeCH2C2HCSHCFeC2H3FeHC6HNHC6H4C4H3C2NH2CSH2CHNC7H21CHSCHC4HC2HSCH2C2HCH3CNC8H20C2H3C2FeSH2CSH3C2H2SCNH7SC2H4C2H2FeCHCH2CH5NC8H19NC8H22C2HCNCHC3H2C4HC2H5NHCHCH6SCH2C2H8CH6SH2CHCH3FeH4CH3CH2CHFeH2SHFeHCH3SCHNH2CHSH2S2H2CHC2H2C2H3CHCHC4HCHCHFeHCH6CHNH2CHC2HCH5C2H5C2FeH4CHNHFeCH5NC4H2C2H22CHCH2C2H2C3S3HSHCH5C2H2SH3C2H6
_chemical_formula_sum              "Fe128 S256 C896 H1536 N64"
_cell_length_a       51.1919
_cell_length_b       51.7507
_cell_length_c       51.1535
_cell_angle_alpha    89.7415
_cell_angle_beta     87.635
_cell_angle_gamma    88.9653

_space_group_name_H-M_alt    "P 1"
_space_group_IT_number       1

loop_
  _space_group_symop_operation_xyz
  'x, y, z'

loop_
  _atom_site_type_symbol
  _atom_site_label
  _atom_site_symmetry_multiplicity
  _atom_site_fract_x
  _atom_site_fract_y
  _atom_site_fract_z
  _atom_site_occupancy
  Fe  Fe1       1.0  0.19276  0.17108  0.17224  1.0000
  S   S1        1.0  0.18235  0.21085  0.18837  1.0000
  S   S2        1.0  0.16895  0.15657  0.13806  1.0000
  Fe  Fe2       1.0  0.24030  0.16632  0.20682  1.0000
  S   S3        1.0  0.23296  0.20495  0.22515  1.0000
  S   S4        1.0  0.27552  0.14496  0.22189  1.0000
  Fe  Fe3       1.0  0.19116  0.19356  0.22756  1.0000
  S   S5        1.0  0.16755  0.20363  0.26454  1.0000
  Fe  Fe4       1.0  0.22532  0.21894  0.18484  1.0000
  S   S6        1.0  0.24623  0.25542  0.17212  1.0000
  S   S7        1.0  0.19856  0.15334  0.21208  1.0000
  S   S8        1.0  0.23553  0.18076  0.16580  1.0000
  Fe  Fe5       1.0  0.06772  0.05006  0.07760  1.0000
  S   S9        1.0  0.02737  0.06299  0.06590  1.0000
  S   S10       1.0  0.09151  0.06464  0.11185  1.0000
  C   C1        1.0  0.40562  0.10242  0.15485  1.0000
  S   S11       1.0  0.24335  0.32569  0.41918  1.0000
  Fe  Fe6       1.0  0.04040  0.05117  0.02491  1.0000
  H   H1        1.0  0.43511  0.32124  0.21777  1.0000
  H   H2        1.0  0.28422  0.30152  0.27534  1.0000
  H   H3        1.0  0.40753  0.28224  0.23446  1.0000
  S   S12       1.0  0.08173  0.04179  0.03585  1.0000
  C   C2        1.0  0.11273  0.24916  0.49141  1.0000
  Fe  Fe7       1.0  0.23399  0.23279  0.39742  1.0000
  S   S13       1.0  0.22873  0.21034  0.43492  1.0000
  S   S14       1.0  0.24328  0.21237  0.35890  1.0000
  Fe  Fe8       1.0  0.23958  0.28299  0.42684  1.0000
  C   C3        1.0  0.16578  0.00785  0.12692  1.0000
  C   C4        1.0  0.30242  0.27533  0.24748  1.0000
  Fe  Fe9       1.0  0.26311  0.23275  0.44867  1.0000
  S   S15       1.0  0.49577  0.14857  0.41838  1.0000
  Fe  Fe10      1.0  0.20211  0.24345  0.44877  1.0000
  H   H4        1.0  0.43174  0.27620  0.20929  1.0000
  S   S16       1.0  0.26889  0.25404  0.41065  1.0000
  S   S17       1.0  0.20498  0.26402  0.40993  1.0000
  H   H5        1.0  0.45915  0.30414  0.27744  1.0000
  C   C5        1.0  0.40621  0.15624  0.17099  1.0000
  Fe  Fe11      1.0  0.40702  0.20939  0.25524  1.0000
  S   S18       1.0  0.44599  0.20347  0.23395  1.0000
  S   S19       1.0  0.37095  0.21941  0.23316  1.0000
  Fe  Fe12      1.0  0.43157  0.21286  0.30727  1.0000
  S   S20       1.0  0.42170  0.21740  0.35009  1.0000
  Fe  Fe13      1.0  0.45917  0.23630  0.25884  1.0000
  H   H6        1.0  0.33898  0.17157  0.47327  1.0000
  Fe  Fe14      1.0  0.45558  0.17619  0.26709  1.0000
  H   H7        1.0  0.42221  0.14546  0.21752  1.0000
  S   S21       1.0  0.41984  0.24316  0.27846  1.0000
  S   S22       1.0  0.41515  0.17944  0.28609  1.0000
  H   H8        1.0  0.47462  0.01627  0.47170  1.0000
  H   H9        1.0  0.31180  0.25583  0.24646  1.0000
  N   N1        1.0  0.15448  0.01272  0.07779  1.0000
  C   C6        1.0  0.20863  0.30987  0.21711  1.0000
  C   C7        1.0  0.45441  0.06588  0.27330  1.0000
  C   C8        1.0  0.45523  0.09312  0.27115  1.0000
  H   H10       1.0  0.43575  0.05637  0.27355  1.0000
  H   H11       1.0  0.43735  0.10434  0.26985  1.0000
  H   H12       1.0  0.02166  0.23334  0.39538  1.0000
  H   H13       1.0  0.02341  0.22693  0.47480  1.0000
  C   C9        1.0  0.45920  0.17971  0.35683  1.0000
  C   C10       1.0  0.44074  0.19654  0.36886  1.0000
  C   C11       1.0  0.43834  0.19766  0.39615  1.0000
  C   C12       1.0  0.45481  0.18244  0.41141  1.0000
  S   S23       1.0  0.02670  0.01052  0.02870  1.0000
  H   H14       1.0  0.46084  0.17836  0.33578  1.0000
  H   H15       1.0  0.42415  0.21071  0.40558  1.0000
  H   H16       1.0  0.45300  0.18376  0.43246  1.0000
  C   C13       1.0  0.12542  0.15605  0.23414  1.0000
  S   S24       1.0  0.47240  0.20866  0.29004  1.0000
  H   H17       1.0  0.36572  0.30363  0.22005  1.0000
  C   C14       1.0  0.41295  0.28666  0.21387  1.0000
  H   H18       1.0  0.30399  0.27746  0.28948  1.0000
  C   C15       1.0  0.46834  0.31533  0.26185  1.0000
  C   C16       1.0  0.09571  0.26713  0.44352  1.0000
  C   C17       1.0  0.12216  0.25937  0.44596  1.0000
  H   H19       1.0  0.08930  0.27413  0.42485  1.0000
  H   H20       1.0  0.13577  0.26035  0.42924  1.0000
  H   H21       1.0  0.28869  0.27759  0.23139  1.0000
  C   C18       1.0  0.47601  0.16484  0.37209  1.0000
  C   C19       1.0  0.49349  0.02289  0.46248  1.0000
  C   C20       1.0  0.30121  0.16630  0.22685  1.0000
  C   C21       1.0  0.32104  0.15972  0.24400  1.0000
  C   C22       1.0  0.34216  0.17636  0.24708  1.0000
  C   C23       1.0  0.34370  0.19929  0.23252  1.0000
  C   C24       1.0  0.32360  0.20606  0.21590  1.0000
  C   C25       1.0  0.30239  0.18969  0.21315  1.0000
  H   H22       1.0  0.32001  0.14173  0.25482  1.0000
  H   H23       1.0  0.35742  0.17124  0.26025  1.0000
  H   H24       1.0  0.32465  0.22377  0.20461  1.0000
  H   H25       1.0  0.28730  0.19488  0.19977  1.0000
  C   C26       1.0  0.18705  0.20407  0.29223  1.0000
  C   C27       1.0  0.21087  0.19044  0.29202  1.0000
  C   C28       1.0  0.22729  0.19235  0.31320  1.0000
  C   C29       1.0  0.22020  0.20805  0.33469  1.0000
  C   C30       1.0  0.19606  0.22122  0.33531  1.0000
  C   C31       1.0  0.17943  0.21910  0.31414  1.0000
  H   H26       1.0  0.21678  0.17848  0.27545  1.0000
  H   H27       1.0  0.24584  0.18195  0.31263  1.0000
  H   H28       1.0  0.19044  0.23341  0.35180  1.0000
  H   H29       1.0  0.16102  0.22970  0.31443  1.0000
  C   C32       1.0  0.23868  0.28378  0.18997  1.0000
  C   C33       1.0  0.25713  0.30352  0.19081  1.0000
  C   C34       1.0  0.21445  0.28700  0.20323  1.0000
  H   H30       1.0  0.27587  0.30109  0.18047  1.0000
  H   H31       1.0  0.20010  0.27193  0.20259  1.0000
  C   C35       1.0  0.11330  0.09023  0.11836  1.0000
  C   C36       1.0  0.12615  0.09007  0.14222  1.0000
  C   C37       1.0  0.14349  0.10988  0.14846  1.0000
  C   C38       1.0  0.14807  0.13036  0.13100  1.0000
  C   C39       1.0  0.13538  0.13040  0.10706  1.0000
  C   C40       1.0  0.11817  0.11049  0.10072  1.0000
  H   H32       1.0  0.12269  0.07445  0.15599  1.0000
  H   H33       1.0  0.15338  0.10926  0.16671  1.0000
  H   H34       1.0  0.13878  0.14606  0.09332  1.0000
  H   H35       1.0  0.10853  0.11099  0.08230  1.0000
  S   S25       1.0  0.47532  0.01640  0.27641  1.0000
  C   C41       1.0  0.48770  0.25627  0.34408  1.0000
  C   C42       1.0  0.41675  0.31576  0.20850  1.0000
  H   H36       1.0  0.47822  0.04156  0.37899  1.0000
  C   C43       1.0  0.45891  0.02988  0.34461  1.0000
  S   S26       1.0  0.48190  0.13973  0.26491  1.0000
  H   H37       1.0  0.02295  0.19756  0.49277  1.0000
  H   H38       1.0  0.38635  0.17651  0.48102  1.0000
  S   S27       1.0  0.41791  0.22266  0.48883  1.0000
  C   C44       1.0  0.24283  0.27565  0.26535  1.0000
  S   S28       1.0  0.48275  0.26827  0.23824  1.0000
  H   H39       1.0  0.37753  0.18889  0.17324  1.0000
  H   H40       1.0  0.47313  0.24104  0.34066  1.0000
  H   H41       1.0  0.37012  0.12395  0.24096  1.0000
  C   C45       1.0  0.34712  0.19068  0.47397  1.0000
  H   H42       1.0  0.43630  0.07276  0.41336  1.0000
  H   H43       1.0  0.47896  0.07472  0.32308  1.0000
  C   C46       1.0  0.09992  0.20827  0.24989  1.0000
  H   H44       1.0  0.33162  0.14818  0.16282  1.0000
  H   H45       1.0  0.38765  0.09619  0.19309  1.0000
  Fe  Fe15      1.0  0.01590  0.02148  0.06999  1.0000
  C   C47       1.0  0.36313  0.14025  0.18899  1.0000
  H   H46       1.0  0.07837  0.20675  0.25203  1.0000
  C   C48       1.0  0.40153  0.11021  0.18384  1.0000
  C   C49       1.0  0.39089  0.31981  0.26569  1.0000
  H   H47       1.0  0.44052  0.03272  0.33420  1.0000
  C   C50       1.0  0.47928  0.10564  0.26985  1.0000
  H   H48       1.0  0.36195  0.14536  0.14573  1.0000
  C   C51       1.0  0.39167  0.12520  0.23876  1.0000
  H   H49       1.0  0.24691  0.27211  0.24416  1.0000
  N   N2        1.0  0.26488  0.26488  0.28103  1.0000
  H   H50       1.0  0.40278  0.15183  0.15026  1.0000
  C   C52       1.0  0.28897  0.28044  0.27459  1.0000
  H   H51       1.0  0.37595  0.30595  0.26020  1.0000
  C   C53       1.0  0.26918  0.23687  0.27397  1.0000
  C   C54       1.0  0.48079  0.30266  0.24053  1.0000
  H   H52       1.0  0.15690  0.07005  0.07591  1.0000
  C   C55       1.0  0.29125  0.22249  0.28806  1.0000
  H   H53       1.0  0.39849  0.13232  0.25769  1.0000
  C   C56       1.0  0.25846  0.26661  0.31000  1.0000
  H   H54       1.0  0.32947  0.25393  0.46787  1.0000
  H   H55       1.0  0.28389  0.21469  0.30720  1.0000
  H   H56       1.0  0.27221  0.23408  0.25247  1.0000
  C   C57       1.0  0.21549  0.26457  0.27180  1.0000
  H   H57       1.0  0.13083  0.20611  0.22011  1.0000
  H   H58       1.0  0.42783  0.15430  0.17264  1.0000
  C   C58       1.0  0.35049  0.13712  0.16241  1.0000
  H   H59       1.0  0.38843  0.10668  0.14312  1.0000
  H   H60       1.0  0.10447  0.22901  0.25245  1.0000
  H   H61       1.0  0.18063  0.03486  0.05204  1.0000
  H   H62       1.0  0.30833  0.23469  0.29125  1.0000
  H   H63       1.0  0.29876  0.20624  0.27560  1.0000
  N   N3        1.0  0.46158  0.07653  0.36226  1.0000
  C   C59       1.0  0.46075  0.04797  0.36830  1.0000
  Fe  Fe16      1.0  0.06654  0.00171  0.04296  1.0000
  H   H64       1.0  0.42076  0.10609  0.19269  1.0000
  C   C60       1.0  0.43599  0.08471  0.35094  1.0000
  N   N4        1.0  0.39251  0.13767  0.18955  1.0000
  H   H65       1.0  0.35599  0.15891  0.19742  1.0000
  C   C61       1.0  0.36838  0.23970  0.47630  1.0000
  C   C62       1.0  0.43273  0.11379  0.34461  1.0000
  H   H66       1.0  0.42313  0.11176  0.14574  1.0000
  H   H67       1.0  0.44373  0.04351  0.38166  1.0000
  H   H68       1.0  0.40554  0.19270  0.19337  1.0000
  H   H69       1.0  0.36794  0.31887  0.18930  1.0000
  H   H70       1.0  0.12594  0.05896  0.06505  1.0000
  H   H71       1.0  0.25401  0.31612  0.47370  1.0000
  H   H72       1.0  0.43339  0.07475  0.33201  1.0000
  H   H73       1.0  0.41890  0.07834  0.36336  1.0000
  H   H74       1.0  0.27526  0.25960  0.32140  1.0000
  H   H75       1.0  0.10957  0.19781  0.26589  1.0000
  H   H76       1.0  0.38292  0.32877  0.28411  1.0000
  H   H77       1.0  0.17886  0.03721  0.10047  1.0000
  H   H78       1.0  0.44127  0.12635  0.35926  1.0000
  C   C63       1.0  0.39881  0.18508  0.17465  1.0000
  H   H79       1.0  0.09888  0.21181  0.20872  1.0000
  H   H80       1.0  0.25129  0.22577  0.27872  1.0000
  H   H81       1.0  0.48444  0.10391  0.33921  1.0000
  H   H82       1.0  0.39834  0.27839  0.20096  1.0000
  Fe  Fe17      1.0  0.01067  0.28471  0.49113  1.0000
  S   S29       1.0  0.23603  0.26377  0.46627  1.0000
  N   N5        1.0  0.10838  0.17142  0.21612  1.0000
  C   C64       1.0  0.11972  0.16760  0.18862  1.0000
  C   C65       1.0  0.08032  0.16281  0.21708  1.0000
  C   C66       1.0  0.10738  0.18418  0.16702  1.0000
  C   C67       1.0  0.12806  0.12688  0.22829  1.0000
  C   C68       1.0  0.06838  0.15467  0.24413  1.0000
  H   H83       1.0  0.14110  0.17134  0.18770  1.0000
  H   H84       1.0  0.11786  0.14719  0.18232  1.0000
  H   H85       1.0  0.06738  0.17820  0.20907  1.0000
  H   H86       1.0  0.07830  0.14572  0.20414  1.0000
  H   H87       1.0  0.08575  0.18362  0.16787  1.0000
  H   H88       1.0  0.11406  0.20445  0.16762  1.0000
  H   H89       1.0  0.11412  0.17653  0.14757  1.0000
  H   H90       1.0  0.13690  0.11691  0.24515  1.0000
  H   H91       1.0  0.10901  0.11790  0.22503  1.0000
  H   H92       1.0  0.14153  0.12331  0.21107  1.0000
  H   H93       1.0  0.04734  0.16038  0.24522  1.0000
  H   H94       1.0  0.07721  0.16347  0.26121  1.0000
  H   H95       1.0  0.06880  0.13329  0.24623  1.0000
  H   H96       1.0  0.21454  0.24392  0.26653  1.0000
  C   C69       1.0  0.47750  0.05078  0.27493  1.0000
  H   H97       1.0  0.44164  0.11848  0.32500  1.0000
  H   H98       1.0  0.40044  0.10560  0.23594  1.0000
  S   S30       1.0  0.04475  0.27745  0.46101  1.0000
  H   H99       1.0  0.24687  0.29259  0.34182  1.0000
  S   S31       1.0  0.16422  0.24084  0.47464  1.0000
  S   S32       1.0  0.45141  0.15294  0.48098  1.0000
  C   C70       1.0  0.47393  0.16629  0.39941  1.0000
  H   H100      1.0  0.20889  0.26732  0.29250  1.0000
  H   H101      1.0  0.40881  0.19650  0.15889  1.0000
  H   H102      1.0  0.24110  0.29706  0.26723  1.0000
  H   H103      1.0  0.16113  0.30013  0.45663  1.0000
  H   H104      1.0  0.45915  0.00949  0.35158  1.0000
  H   H105      1.0  0.48103  0.27229  0.30553  1.0000
  C   C71       1.0  0.14717  0.05942  0.06033  1.0000
  H   H106      1.0  0.23324  0.30183  0.31158  1.0000
  C   C72       1.0  0.25154  0.32617  0.20528  1.0000
  H   H107      1.0  0.40939  0.08122  0.15377  1.0000
  H   H108      1.0  0.39269  0.16355  0.22293  1.0000
  H   H109      1.0  0.14496  0.03941  0.10952  1.0000
  H   H110      1.0  0.14828  0.32636  0.43713  1.0000
  H   H111      1.0  0.49080  0.15244  0.36269  1.0000
  H   H112      1.0  0.26739  0.30752  0.31722  1.0000
  H   H113      1.0  0.35358  0.12569  0.20208  1.0000
  C   C73       1.0  0.16453  0.32000  0.44949  1.0000
  S   S33       1.0  0.05475  0.00899  0.08496  1.0000
  H   H114      1.0  0.18267  0.31826  0.43686  1.0000
  H   H115      1.0  0.19632  0.30033  0.49365  1.0000
  N   N6        1.0  0.33456  0.18813  0.38365  1.0000
  C   C74       1.0  0.31705  0.17161  0.40115  1.0000
  C   C75       1.0  0.36192  0.17690  0.38473  1.0000
  C   C76       1.0  0.32522  0.18592  0.35615  1.0000
  C   C77       1.0  0.33239  0.21572  0.39315  1.0000
  C   C78       1.0  0.28742  0.17734  0.40034  1.0000
  C   C79       1.0  0.37319  0.17525  0.41219  1.0000
  C   C80       1.0  0.34139  0.19965  0.33432  1.0000
  C   C81       1.0  0.35540  0.23371  0.38583  1.0000
  H   H116      1.0  0.32009  0.15071  0.39654  1.0000
  H   H117      1.0  0.32185  0.17378  0.42204  1.0000
  H   H118      1.0  0.37623  0.18780  0.37246  1.0000
  H   H119      1.0  0.36272  0.15700  0.37644  1.0000
  H   H120      1.0  0.32412  0.16518  0.35052  1.0000
  H   H121      1.0  0.30500  0.19404  0.35482  1.0000
  H   H122      1.0  0.31420  0.22513  0.38624  1.0000
  H   H123      1.0  0.33046  0.21606  0.41490  1.0000
  H   H124      1.0  0.27718  0.16699  0.41675  1.0000
  H   H125      1.0  0.28267  0.19814  0.40293  1.0000
  H   H126      1.0  0.27916  0.17029  0.38202  1.0000
  H   H127      1.0  0.39407  0.16912  0.41033  1.0000
  H   H128      1.0  0.37227  0.19419  0.42219  1.0000
  H   H129      1.0  0.36328  0.16049  0.42464  1.0000
  H   H130      1.0  0.33362  0.19439  0.31514  1.0000
  H   H131      1.0  0.36230  0.19370  0.33340  1.0000
  H   H132      1.0  0.33925  0.22095  0.33596  1.0000
  H   H133      1.0  0.34752  0.25357  0.38268  1.0000
  H   H134      1.0  0.36696  0.22850  0.36790  1.0000
  H   H135      1.0  0.36861  0.23538  0.40242  1.0000
  H   H136      1.0  0.11544  0.31276  0.46549  1.0000
  C   C82       1.0  0.44330  0.09215  0.40750  1.0000
  C   C83       1.0  0.38472  0.21797  0.48041  1.0000
  H   H137      1.0  0.14987  0.07095  0.04207  1.0000
  C   C84       1.0  0.13091  0.25033  0.46998  1.0000
  H   H138      1.0  0.04009  0.20565  0.40415  1.0000
  C   C85       1.0  0.48321  0.08265  0.34249  1.0000
  H   H139      1.0  0.18971  0.31234  0.22711  1.0000
  S   S34       1.0  0.29692  0.20758  0.46425  1.0000
  H   H140      1.0  0.14555  0.16384  0.23345  1.0000
  H   H141      1.0  0.34633  0.11652  0.15861  1.0000
  C   C86       1.0  0.46645  0.09069  0.38727  1.0000
  H   H142      1.0  0.11894  0.15795  0.25495  1.0000
  H   H143      1.0  0.47821  0.27622  0.40100  1.0000
  C   C87       1.0  0.25113  0.29385  0.32036  1.0000
  H   H144      1.0  0.42686  0.10409  0.40031  1.0000
  H   H145      1.0  0.44988  0.10178  0.42542  1.0000
  C   C88       1.0  0.08636  0.25717  0.48905  1.0000
  H   H146      1.0  0.32643  0.32879  0.21354  1.0000
  C   C89       1.0  0.37398  0.19339  0.47863  1.0000
  C   C90       1.0  0.40049  0.14421  0.21685  1.0000
  C   C91       1.0  0.07766  0.26638  0.46508  1.0000
  H   H147      1.0  0.46803  0.24888  0.41991  1.0000
  H   H148      1.0  0.41161  0.11912  0.34503  1.0000
  H   H149      1.0  0.24231  0.25347  0.31587  1.0000
  C   C92       1.0  0.33074  0.21242  0.46999  1.0000
  C   C93       1.0  0.34170  0.23698  0.47080  1.0000
  H   H150      1.0  0.42106  0.31721  0.18699  1.0000
  H   H151      1.0  0.31823  0.28948  0.24399  1.0000
  C   C94       1.0  0.16085  0.02551  0.10321  1.0000
  C   C95       1.0  0.11016  0.19976  0.22249  1.0000
  H   H152      1.0  0.20091  0.27482  0.25988  1.0000
  H   H153      1.0  0.47285  0.11076  0.38325  1.0000
  H   H154      1.0  0.03254  0.22935  0.42828  1.0000
  C   C96       1.0  0.01956  0.20606  0.47318  1.0000
  H   H155      1.0  0.11340  0.02213  0.08372  1.0000
  Fe  Fe18      1.0  0.45295  0.19460  0.49266  1.0000
  H   H156      1.0  0.49505  0.04355  0.46792  1.0000
  C   C97       1.0  0.12611  0.00540  0.07785  1.0000
  C   C98       1.0  0.22717  0.32939  0.21838  1.0000
  S   S35       1.0  0.49098  0.20319  0.47047  1.0000
  H   H157      1.0  0.15159  0.02510  0.03724  1.0000
  C   C99       1.0  0.36864  0.32276  0.21068  1.0000
  C   C100      1.0  0.10726  0.32217  0.48339  1.0000
  H   H158      1.0  0.43537  0.04947  0.48814  1.0000
  Fe  Fe19      1.0  0.48993  0.16106  0.46025  1.0000
  H   H159      1.0  0.16817  0.02023  0.14434  1.0000
  H   H160      1.0  0.03411  0.19680  0.45937  1.0000
  H   H161      1.0  0.47495  0.03761  0.42798  1.0000
  H   H162      1.0  0.47595  0.27245  0.35283  1.0000
  H   H163      1.0  0.48312  0.08163  0.39748  1.0000
  H   H164      1.0  0.45535  0.25351  0.38835  1.0000
  C   C101      1.0  0.02447  0.21926  0.41152  1.0000
  H   H165      1.0  0.40928  0.30919  0.26998  1.0000
  C   C102      1.0  0.15927  0.03212  0.05595  1.0000
  H   H166      1.0  0.48764  0.21891  0.38728  1.0000
  C   C103      1.0  0.49013  0.02290  0.43263  1.0000
  H   H167      1.0  0.47584  0.03180  0.33064  1.0000
  H   H168      1.0  0.37637  0.25885  0.47760  1.0000
  C   C104      1.0  0.99911  0.20398  0.41752  1.0000
  C   C105      1.0  0.47322  0.25562  0.39971  1.0000
  H   H169      1.0  0.00017  0.24967  0.44775  1.0000
  C   C106      1.0  0.49259  0.31772  0.22045  1.0000
  H   H170      1.0  0.00482  0.18322  0.41955  1.0000
  H   H171      1.0  0.48279  0.00418  0.42572  1.0000
  H   H172      1.0  0.11997  0.00115  0.05772  1.0000
  H   H173      1.0  0.14710  0.29511  0.49624  1.0000
  C   C107      1.0  0.49590  0.23853  0.38833  1.0000
  H   H174      1.0  0.18423  0.99642  0.12417  1.0000
  H   H175      1.0  0.00343  0.10802  0.85126  1.0000
  H   H176      1.0  0.43662  0.15568  0.56470  1.0000
  S   S36       1.0  0.47461  0.18562  0.52931  1.0000
  C   C108      1.0  0.05899  0.13751  0.83567  1.0000
  H   H177      1.0  0.00189  0.24928  0.63940  1.0000
  C   C109      1.0  0.37044  0.14281  0.57201  1.0000
  H   H178      1.0  0.10542  0.04592  0.86628  1.0000
  H   H179      1.0  0.41622  0.20372  0.55765  1.0000
  H   H180      1.0  0.04910  0.09166  0.77576  1.0000
  S   S37       1.0  0.04009  0.01137  0.88245  1.0000
  H   H181      1.0  0.18391  0.27998  0.51919  1.0000
  H   H182      1.0  0.47326  0.06535  0.57405  1.0000
  S   S38       1.0  0.03300  0.01101  0.80825  1.0000
  H   H183      1.0  0.19420  0.31161  0.52723  1.0000
  H   H184      1.0  0.02837  0.10251  0.81569  1.0000
  C   C110      1.0  0.01482  0.10522  0.86898  1.0000
  H   H185      1.0  0.03085  0.06880  0.81698  1.0000
  C   C111      1.0  0.07512  0.06491  0.84419  1.0000
  C   C112      1.0  0.04276  0.08656  0.81784  1.0000
  H   H186      1.0  0.40644  0.10904  0.55084  1.0000
  C   C113      1.0  0.18439  0.30035  0.51222  1.0000
  H   H187      1.0  0.38875  0.21531  0.54057  1.0000
  H   H188      1.0  0.46012  0.02100  0.56230  1.0000
  H   H189      1.0  0.06596  0.00748  0.93054  1.0000
  C   C114      1.0  0.39245  0.17338  0.54098  1.0000
  H   H190      1.0  0.06759  0.14202  0.81592  1.0000
  H   H191      1.0  0.34803  0.17715  0.58561  1.0000
  H   H192      1.0  0.03744  0.13801  0.83510  1.0000
  Fe  Fe20      1.0  0.01336  0.00961  0.84842  1.0000
  H   H193      1.0  0.14521  0.30881  0.52757  1.0000
  S   S39       1.0  0.00097  0.27099  0.58795  1.0000
  C   C115      1.0  0.07129  0.11231  0.84661  1.0000
  C   C116      1.0  0.03631  0.08421  0.86565  1.0000
  N   N7        1.0  0.05628  0.08773  0.84347  1.0000
  H   H194      1.0  0.07501  0.11559  0.86764  1.0000
  C   C117      1.0  0.15610  0.30996  0.50830  1.0000
  S   S40       1.0  0.01267  0.31200  0.52496  1.0000
  C   C118      1.0  0.40355  0.12733  0.53977  1.0000
  H   H195      1.0  0.37598  0.16984  0.60507  1.0000
  C   C119      1.0  0.44692  0.03231  0.52445  1.0000
  C   C120      1.0  0.45771  0.03680  0.54862  1.0000
  H   H196      1.0  0.38351  0.20212  0.57249  1.0000
  C   C121      1.0  0.46236  0.08239  0.53745  1.0000
  C   C122      1.0  0.45179  0.07786  0.51316  1.0000
  H   H197      1.0  0.07282  0.25632  0.50583  1.0000
  H   H198      1.0  0.10082  0.07921  0.87472  1.0000
  H   H199      1.0  0.09091  0.11034  0.83646  1.0000
  H   H200      1.0  0.41537  0.17058  0.58806  1.0000
  H   H201      1.0  0.06429  0.15394  0.84821  1.0000
  C   C123      1.0  0.02795  0.05416  0.96047  1.0000
  H   H202      1.0  0.02298  0.12377  0.87534  1.0000
  C   C124      1.0  0.46512  0.06188  0.55522  1.0000
  C   C125      1.0  0.03359  0.02697  0.91276  1.0000
  C   C126      1.0  0.05037  0.02174  0.93321  1.0000
  C   C127      1.0  0.04732  0.03496  0.95709  1.0000
  H   H203      1.0  0.37986  0.13777  0.50580  1.0000
  Fe  Fe21      1.0  0.47613  0.14451  0.51543  1.0000
  H   H204      1.0  0.06049  0.03078  0.97264  1.0000
  H   H205      1.0  0.02641  0.06536  0.86361  1.0000
  N   N8        1.0  0.39580  0.14949  0.55778  1.0000
  S   S41       1.0  0.47170  0.11352  0.54644  1.0000
  H   H206      1.0  0.37116  0.12284  0.58026  1.0000
  H   H207      1.0  0.11916  0.24215  0.51008  1.0000
  C   C128      1.0  0.38419  0.12096  0.51846  1.0000
  H   H208      1.0  0.42268  0.13117  0.52948  1.0000
  C   C129      1.0  0.42218  0.13064  0.59581  1.0000
  C   C130      1.0  0.41786  0.15286  0.57610  1.0000
  H   H209      1.0  0.40713  0.17335  0.52423  1.0000
  C   C131      1.0  0.01344  0.04541  0.91646  1.0000
  C   C132      1.0  0.06088  0.08690  0.79297  1.0000
  C   C133      1.0  0.39537  0.19990  0.55412  1.0000
  H   H210      1.0  0.07637  0.10149  0.79387  1.0000
  C   C134      1.0  0.01097  0.05934  0.94010  1.0000
  H   H211      1.0  0.35436  0.14202  0.55805  1.0000
  H   H212      1.0  0.40480  0.12772  0.60908  1.0000
  H   H213      1.0  0.37298  0.17369  0.53203  1.0000
  C   C135      1.0  0.44382  0.05291  0.50682  1.0000
  H   H214      1.0  0.42802  0.11219  0.58617  1.0000
  H   H215      1.0  0.06473  0.04650  0.84103  1.0000
  H   H216      1.0  0.34825  0.15046  0.60841  1.0000
  H   H217      1.0  0.43861  0.13571  0.60825  1.0000
  H   H218      1.0  0.04574  0.08343  0.88482  1.0000
  C   C136      1.0  0.36033  0.16140  0.59377  1.0000
  H   H219      1.0  0.49458  0.00215  0.50938  1.0000
  H   H220      1.0  0.06989  0.06752  0.78922  1.0000
  H   H221      1.0  0.07773  0.05504  0.88621  1.0000
  H   H222      1.0  0.09029  0.06614  0.82805  1.0000
  C   C137      1.0  0.09042  0.06151  0.86944  1.0000
  H   H223      1.0  0.44954  0.09359  0.49941  1.0000
  H   H224      1.0  0.10351  0.30741  0.49883  1.0000
  H   H225      1.0  0.00073  0.09915  0.88485  1.0000
  H   H226      1.0  0.36574  0.11300  0.52698  1.0000
  H   H227      1.0  0.39317  0.10570  0.50557  1.0000
  S   S42       1.0  0.02542  0.07236  0.98963  1.0000
  H   H228      1.0  0.00013  0.04931  0.90101  1.0000
  H   H229      1.0  0.02618  0.31320  0.66728  1.0000
  Fe  Fe22      1.0  0.99729  0.03412  0.79670  1.0000
  C   C138      1.0  0.00481  0.31738  0.66851  1.0000
  S   S43       1.0  0.43744  0.00125  0.51533  1.0000
  S   S44       1.0  0.04661  0.52251  0.44171  1.0000
  Fe  Fe23      1.0  0.45367  0.46768  0.19705  1.0000
  S   S45       1.0  0.41134  0.47670  0.19081  1.0000
  Fe  Fe24      1.0  0.24614  0.39056  0.24202  1.0000
  S   S46       1.0  0.22789  0.43016  0.24671  1.0000
  S   S47       1.0  0.21863  0.35764  0.23601  1.0000
  Fe  Fe25      1.0  0.29930  0.41027  0.25457  1.0000
  S   S48       1.0  0.28488  0.45100  0.26140  1.0000
  S   S49       1.0  0.34160  0.39914  0.25774  1.0000
  Fe  Fe26      1.0  0.25058  0.43303  0.28360  1.0000
  S   S50       1.0  0.22842  0.43901  0.32346  1.0000
  Fe  Fe27      1.0  0.26379  0.44413  0.22402  1.0000
  S   S51       1.0  0.26368  0.47415  0.19096  1.0000
  S   S52       1.0  0.26724  0.39258  0.27936  1.0000
  S   S53       1.0  0.27996  0.40417  0.21656  1.0000
  Fe  Fe28      1.0  0.21302  0.48083  0.47606  1.0000
  S   S54       1.0  0.18538  0.44777  0.48180  1.0000
  S   S55       1.0  0.22869  0.49453  0.43557  1.0000
  H   H230      1.0  0.23832  0.37478  0.12531  1.0000
  C   C139      1.0  0.41995  0.54556  0.22120  1.0000
  H   H231      1.0  0.42952  0.37785  0.22087  1.0000
  H   H232      1.0  0.33740  0.49994  0.09856  1.0000
  C   C140      1.0  0.26796  0.42092  0.42135  1.0000
  H   H233      1.0  0.30205  0.43743  0.34626  1.0000
  C   C141      1.0  0.37288  0.42863  0.07394  1.0000
  H   H234      1.0  0.38301  0.35807  0.25038  1.0000
  H   H235      1.0  0.37833  0.40777  0.15605  1.0000
  H   H236      1.0  0.01899  0.41504  0.48694  1.0000
  S   S56       1.0  0.34814  0.50374  0.03687  1.0000
  C   C142      1.0  0.48034  0.35765  0.24333  1.0000
  H   H237      1.0  0.16263  0.36963  0.12275  1.0000
  C   C143      1.0  0.22833  0.36978  0.44522  1.0000
  C   C144      1.0  0.22505  0.38555  0.46736  1.0000
  H   H238      1.0  0.40672  0.46796  0.29387  1.0000
  H   H239      1.0  0.41197  0.56763  0.27122  1.0000
  H   H240      1.0  0.22221  0.37685  0.42652  1.0000
  H   H241      1.0  0.21720  0.40490  0.46543  1.0000
  C   C145      1.0  0.22955  0.45460  0.35452  1.0000
  C   C146      1.0  0.21345  0.44547  0.37547  1.0000
  C   C147      1.0  0.21361  0.45683  0.40052  1.0000
  C   C148      1.0  0.22939  0.47804  0.40489  1.0000
  C   C149      1.0  0.24539  0.48731  0.38393  1.0000
  C   C150      1.0  0.24575  0.47550  0.35901  1.0000
  H   H242      1.0  0.20086  0.42929  0.37232  1.0000
  H   H243      1.0  0.20127  0.44933  0.41635  1.0000
  H   H244      1.0  0.25762  0.50377  0.38699  1.0000
  H   H245      1.0  0.25819  0.48286  0.34318  1.0000
  C   C151      1.0  0.27463  0.46986  0.15765  1.0000
  C   C152      1.0  0.28243  0.44565  0.14771  1.0000
  C   C153      1.0  0.28856  0.44260  0.12073  1.0000
  C   C154      1.0  0.28809  0.46385  0.10341  1.0000
  C   C155      1.0  0.28130  0.48825  0.11352  1.0000
  C   C156      1.0  0.27436  0.49115  0.14041  1.0000
  H   H246      1.0  0.28309  0.42918  0.16073  1.0000
  H   H247      1.0  0.29370  0.42360  0.11317  1.0000
  H   H248      1.0  0.28066  0.50478  0.10052  1.0000
  H   H249      1.0  0.26839  0.50999  0.14782  1.0000
  H   H250      1.0  0.42413  0.38927  0.18872  1.0000
  S   S57       1.0  0.29139  0.51661  0.01122  1.0000
  C   C157      1.0  0.42095  0.52218  0.23996  1.0000
  C   C158      1.0  0.39194  0.45445  0.20844  1.0000
  C   C159      1.0  0.40361  0.43499  0.22329  1.0000
  C   C160      1.0  0.38810  0.41828  0.23869  1.0000
  C   C161      1.0  0.36083  0.42034  0.23855  1.0000
  C   C162      1.0  0.34913  0.43926  0.22301  1.0000
  C   C163      1.0  0.36466  0.45648  0.20819  1.0000
  H   H251      1.0  0.42463  0.43296  0.22335  1.0000
  H   H252      1.0  0.39731  0.40387  0.25080  1.0000
  H   H253      1.0  0.32808  0.44089  0.22256  1.0000
  H   H254      1.0  0.35545  0.47146  0.19676  1.0000
  H   H255      1.0  0.46596  0.53445  0.09696  1.0000
  C   C164      1.0  0.08630  0.49101  0.45782  1.0000
  Fe  Fe29      1.0  0.35941  0.48298  0.99970  1.0000
  C   C165      1.0  0.02213  0.43609  0.48465  1.0000
  H   H256      1.0  0.45522  0.55710  0.30645  1.0000
  C   C166      1.0  0.41372  0.49042  0.11811  1.0000
  H   H257      1.0  0.08846  0.48518  0.43755  1.0000
  H   H258      1.0  0.36367  0.51654  0.11381  1.0000
  H   H259      1.0  0.37289  0.53124  0.29743  1.0000
  H   H260      1.0  0.24735  0.41632  0.41800  1.0000
  H   H261      1.0  0.19561  0.36149  0.11447  1.0000
  H   H262      1.0  0.46515  0.54864  0.00620  1.0000
  H   H263      1.0  0.32634  0.40189  0.36771  1.0000
  C   C167      1.0  0.25746  0.36600  0.35276  1.0000
  H   H264      1.0  0.35247  0.43125  0.15630  1.0000
  C   C168      1.0  0.37919  0.54264  0.27990  1.0000
  H   H265      1.0  0.38589  0.49167  0.27962  1.0000
  C   C169      1.0  0.10345  0.48092  0.47618  1.0000
  N   N9        1.0  0.28674  0.39438  0.38166  1.0000
  H   H266      1.0  0.48921  0.60247  0.21891  1.0000
  H   H267      1.0  0.38078  0.41189  0.08485  1.0000
  H   H268      1.0  0.41415  0.53869  0.20174  1.0000
  N   N10       1.0  0.15386  0.52429  0.41391  1.0000
  C   C170      1.0  0.16149  0.53886  0.43792  1.0000
  C   C171      1.0  0.17474  0.52905  0.39283  1.0000
  C   C172      1.0  0.15399  0.49596  0.42088  1.0000
  C   C173      1.0  0.12695  0.53351  0.40655  1.0000
  C   C174      1.0  0.14354  0.53560  0.46271  1.0000
  C   C175      1.0  0.17834  0.55752  0.38461  1.0000
  C   C176      1.0  0.14752  0.47687  0.39918  1.0000
  C   C177      1.0  0.11925  0.52907  0.37797  1.0000
  H   H269      1.0  0.18176  0.53329  0.44331  1.0000
  H   H270      1.0  0.16178  0.56001  0.43406  1.0000
  H   H271      1.0  0.17154  0.51811  0.37476  1.0000
  H   H272      1.0  0.19406  0.52171  0.39923  1.0000
  H   H273      1.0  0.17327  0.48997  0.42842  1.0000
  H   H274      1.0  0.13951  0.49205  0.43694  1.0000
  H   H275      1.0  0.11164  0.52453  0.41958  1.0000
  H   H276      1.0  0.12470  0.55470  0.41001  1.0000
  H   H277      1.0  0.14955  0.54935  0.47787  1.0000
  H   H278      1.0  0.12268  0.53991  0.45917  1.0000
  H   H279      1.0  0.14559  0.51606  0.47139  1.0000
  H   H280      1.0  0.18889  0.56830  0.39950  1.0000
  H   H281      1.0  0.19067  0.55824  0.36623  1.0000
  H   H282      1.0  0.15955  0.56753  0.38086  1.0000
  H   H283      1.0  0.12686  0.47902  0.39370  1.0000
  H   H284      1.0  0.14974  0.45689  0.40692  1.0000
  H   H285      1.0  0.16102  0.47811  0.38175  1.0000
  H   H286      1.0  0.09859  0.52277  0.37809  1.0000
  H   H287      1.0  0.13090  0.51428  0.36699  1.0000
  H   H288      1.0  0.11967  0.54753  0.36681  1.0000
  H   H289      1.0  0.26105  0.38989  0.14638  1.0000
  S   S58       1.0  0.29528  0.45845  0.06941  1.0000
  S   S59       1.0  0.46877  0.46242  0.23717  1.0000
  H   H290      1.0  0.25102  0.40595  0.36299  1.0000
  H   H291      1.0  0.43566  0.50819  0.23142  1.0000
  H   H292      1.0  0.33277  0.51283  0.13071  1.0000
  C   C178      1.0  0.46643  0.54274  0.29429  1.0000
  H   H293      1.0  0.40329  0.49762  0.13606  1.0000
  H   H294      1.0  0.15410  0.37488  0.17745  1.0000
  H   H295      1.0  0.40202  0.51234  0.23843  1.0000
  N   N11       1.0  0.20508  0.39863  0.16368  1.0000
  C   C179      1.0  0.21995  0.42361  0.16261  1.0000
  C   C180      1.0  0.22495  0.37711  0.16707  1.0000
  C   C181      1.0  0.18671  0.39964  0.18750  1.0000
  C   C182      1.0  0.19024  0.39627  0.13890  1.0000
  C   C183      1.0  0.20336  0.44882  0.16216  1.0000
  H   H296      1.0  0.41216  0.60527  0.00380  1.0000
  C   C184      1.0  0.16907  0.37618  0.19242  1.0000
  C   C185      1.0  0.48307  0.52842  0.08420  1.0000
  H   H297      1.0  0.23292  0.42502  0.17954  1.0000
  H   H298      1.0  0.23308  0.42437  0.14476  1.0000
  H   H299      1.0  0.21584  0.35797  0.16934  1.0000
  H   H300      1.0  0.23516  0.37974  0.18566  1.0000
  H   H301      1.0  0.19792  0.40248  0.20546  1.0000
  H   H302      1.0  0.17292  0.41641  0.18653  1.0000
  C   C186      1.0  0.42705  0.50357  0.28419  1.0000
  H   H303      1.0  0.33313  0.63105  0.01295  1.0000
  H   H304      1.0  0.19459  0.45338  0.18185  1.0000
  H   H305      1.0  0.21634  0.46518  0.15682  1.0000
  H   H306      1.0  0.24221  0.37113  0.33866  1.0000
  N   N12       1.0  0.49062  0.50888  0.03773  1.0000
  C   C187      1.0  0.18247  0.36872  0.13076  1.0000
  S   S60       1.0  0.48583  0.49408  0.18409  1.0000
  H   H307      1.0  0.18017  0.35771  0.19387  1.0000
  H   H308      1.0  0.19021  0.33981  0.47467  1.0000
  H   H309      1.0  0.15833  0.37875  0.21159  1.0000
  H   H310      1.0  0.49013  0.56993  0.14331  1.0000
  H   H311      1.0  0.26591  0.34118  0.20608  1.0000
  C   C188      1.0  0.47735  0.50775  0.01191  1.0000
  C   C189      1.0  0.39611  0.34128  0.24524  1.0000
  H   H312      1.0  0.02468  0.63662  0.06836  1.0000
  H   H313      1.0  0.41296  0.55106  0.30091  1.0000
  H   H314      1.0  0.29235  0.33865  0.37729  1.0000
  C   C190      1.0  0.16895  0.33970  0.47133  1.0000
  H   H315      1.0  0.34353  0.35808  0.20831  1.0000
  H   H316      1.0  0.48641  0.55052  0.29095  1.0000
  H   H317      1.0  0.44066  0.35901  0.19272  1.0000
  C   C191      1.0  0.40869  0.54816  0.28000  1.0000
  H   H318      1.0  0.27517  0.36156  0.34052  1.0000
  C   C192      1.0  0.23878  0.34471  0.44738  1.0000
  H   H319      1.0  0.42096  0.65259  0.01850  1.0000
  H   H320      1.0  0.46816  0.52575  0.25600  1.0000
  H   H321      1.0  0.27567  0.40807  0.43676  1.0000
  H   H322      1.0  0.18804  0.44843  0.14752  1.0000
  H   H323      1.0  0.34093  0.43895  0.10076  1.0000
  H   H324      1.0  0.37852  0.61409  0.00481  1.0000
  H   H325      1.0  0.36507  0.48215  0.14861  1.0000
  H   H326      1.0  0.37311  0.53281  0.26208  1.0000
  H   H327      1.0  0.31097  0.37861  0.34919  1.0000
  H   H328      1.0  0.45511  0.55786  0.25750  1.0000
  N   N13       1.0  0.42707  0.52806  0.26791  1.0000
  C   C193      1.0  0.40598  0.48351  0.27885  1.0000
  N   N14       1.0  0.39464  0.33411  0.21680  1.0000
  H   H329      1.0  0.36807  0.56129  0.28015  1.0000
  C   C194      1.0  0.45437  0.53871  0.26744  1.0000
  H   H330      1.0  0.12282  0.36028  0.47968  1.0000
  S   S61       1.0  0.33872  0.57584  0.01712  1.0000
  H   H331      1.0  0.38854  0.43757  0.06150  1.0000
  H   H332      1.0  0.35067  0.46366  0.07888  1.0000
  H   H333      1.0  0.35728  0.40913  0.12903  1.0000
  H   H334      1.0  0.35863  0.42091  0.06027  1.0000
  C   C195      1.0  0.35626  0.47743  0.12971  1.0000
  H   H335      1.0  0.43931  0.55455  0.21805  1.0000
  H   H336      1.0  0.39366  0.35487  0.17986  1.0000
  N   N15       1.0  0.37434  0.46047  0.11285  1.0000
  H   H337      1.0  0.40512  0.56023  0.22785  1.0000
  H   H338      1.0  0.03430  0.43868  0.46637  1.0000
  H   H339      1.0  0.31571  0.41575  0.32215  1.0000
  H   H340      1.0  0.38313  0.37364  0.20745  1.0000
  H   H341      1.0  0.38579  0.65623  0.02251  1.0000
  C   C196      1.0  0.40244  0.64214  0.02136  1.0000
  H   H342      1.0  0.45400  0.46606  0.03806  1.0000
  H   H343      1.0  0.39717  0.44923  0.14578  1.0000
  Fe  Fe30      1.0  0.00363  0.52826  0.45284  1.0000
  C   C197      1.0  0.30712  0.39702  0.35969  1.0000
  H   H344      1.0  0.32538  0.35055  0.37946  1.0000
  C   C198      1.0  0.36723  0.42113  0.14336  1.0000
  Fe  Fe31      1.0  0.30935  0.48447  0.03513  1.0000
  H   H345      1.0  0.25115  0.34823  0.36335  1.0000
  H   H346      1.0  0.40286  0.63243  0.04075  1.0000
  C   C199      1.0  0.28502  0.42005  0.39574  1.0000
  C   C200      1.0  0.49234  0.48156  0.04818  1.0000
  H   H347      1.0  0.30485  0.42656  0.40073  1.0000
  H   H348      1.0  0.17204  0.40840  0.14021  1.0000
  H   H349      1.0  0.40171  0.42860  0.11870  1.0000
  H   H350      1.0  0.24624  0.38437  0.38877  1.0000
  C   C201      1.0  0.04184  0.64589  0.05846  1.0000
  H   H351      1.0  0.42533  0.50818  0.30545  1.0000
  H   H352      1.0  0.20205  0.40414  0.12197  1.0000
  C   C202      1.0  0.25999  0.38862  0.37205  1.0000
  H   H353      1.0  0.28156  0.41463  0.33042  1.0000
  H   H354      1.0  0.45481  0.47935  0.07086  1.0000
  C   C203      1.0  0.30096  0.41746  0.33865  1.0000
  C   C204      1.0  0.24636  0.37451  0.14507  1.0000
  H   H355      1.0  0.27693  0.43544  0.38300  1.0000
  H   H356      1.0  0.47464  0.54658  0.04810  1.0000
  H   H357      1.0  0.47017  0.44896  0.06309  1.0000
  C   C205      1.0  0.39595  0.47576  0.09970  1.0000
  H   H358      1.0  0.40940  0.46278  0.08801  1.0000
  H   H359      1.0  0.26788  0.44088  0.42930  1.0000
  C   C206      1.0  0.06622  0.50847  0.46558  1.0000
  C   C207      1.0  0.47449  0.52641  0.05574  1.0000
  S   S62       1.0  0.48031  0.39197  0.24687  1.0000
  C   C208      1.0  0.35849  0.44851  0.09201  1.0000
  H   H360      1.0  0.04030  0.64439  0.03708  1.0000
  H   H361      1.0  0.38837  0.48946  0.08481  1.0000
  C   C209      1.0  0.29536  0.37416  0.40102  1.0000
  H   H362      1.0  0.27896  0.36933  0.41502  1.0000
  C   C210      1.0  0.42462  0.37154  0.20103  1.0000
  H   H363      1.0  0.33808  0.46701  0.13556  1.0000
  H   H364      1.0  0.18171  0.35414  0.14658  1.0000
  H   H365      1.0  0.45337  0.52152  0.05607  1.0000
  H   H366      1.0  0.31103  0.38181  0.41321  1.0000
  C   C211      1.0  0.38647  0.44009  0.12987  1.0000
  H   H367      1.0  0.41001  0.47400  0.25969  1.0000
  Fe  Fe32      1.0  0.33146  0.53380  0.01027  1.0000
  H   H368      1.0  0.42139  0.50788  0.10795  1.0000
  S   S63       1.0  0.47233  0.43174  0.18009  1.0000
  C   C212      1.0  0.39763  0.35858  0.20076  1.0000
  H   H369      1.0  0.45931  0.35212  0.28025  1.0000
  C   C213      1.0  0.34727  0.50306  0.11714  1.0000
  C   C214      1.0  0.46607  0.46865  0.05531  1.0000
  C   C215      1.0  0.30614  0.34827  0.38992  1.0000
  H   H370      1.0  0.11863  0.46711  0.47023  1.0000
  H   H371      1.0  0.44604  0.49283  0.28139  1.0000
  H   H372      1.0  0.46879  0.52437  0.30525  1.0000
  H   H373      1.0  0.16522  0.35901  0.46249  1.0000
  H   H374      1.0  0.48968  0.50981  0.09258  1.0000
  C   C216      1.0  0.24557  0.33529  0.47189  1.0000
  C   C217      1.0  0.06304  0.51545  0.49192  1.0000
  H   H375      1.0  0.43037  0.47792  0.12404  1.0000
  H   H376      1.0  0.25700  0.35577  0.14742  1.0000
  S   S64       1.0  0.32135  0.46224  0.99856  1.0000
  H   H377      1.0  0.48985  0.55436  0.21957  1.0000
  H   H378      1.0  0.30936  0.33482  0.40654  1.0000
  Fe  Fe33      1.0  0.48903  0.42685  0.22000  1.0000
  C   C218      1.0  0.46843  0.34259  0.26336  1.0000
  H   H379      1.0  0.00329  0.44609  0.48121  1.0000
  H   H380      1.0  0.05903  0.63375  0.06359  1.0000
  C   C219      1.0  0.12479  0.34357  0.49331  1.0000
  H   H381      1.0  0.16994  0.39022  0.49158  1.0000
  H   H382      1.0  0.44523  0.43135  0.99981  1.0000
  S   S65       1.0  0.39647  0.45863  0.00134  1.0000
  H   H383      1.0  0.34272  0.34256  0.24018  1.0000
  C   C220      1.0  0.49211  0.34502  0.22165  1.0000
  C   C221      1.0  0.34423  0.33927  0.21875  1.0000
  C   C222      1.0  0.24183  0.35091  0.49415  1.0000
  C   C223      1.0  0.23163  0.37610  0.49191  1.0000
  H   H384      1.0  0.45666  0.50174  0.01466  1.0000
  H   H385      1.0  0.41583  0.34854  0.24925  1.0000
  H   H386      1.0  0.48704  0.49288  0.99894  1.0000
  H   H387      1.0  0.08789  0.33059  0.47863  1.0000
  C   C224      1.0  0.39838  0.62166  0.00015  1.0000
  C   C225      1.0  0.32346  0.62246  0.99679  1.0000
  Fe  Fe34      1.0  0.20877  0.54836  0.76328  1.0000
  S   S66       1.0  0.23157  0.51072  0.76221  1.0000
  S   S67       1.0  0.16555  0.55359  0.77204  1.0000
  Fe  Fe35      1.0  0.25671  0.58047  0.75164  1.0000
  S   S68       1.0  0.28246  0.54513  0.74802  1.0000
  S   S69       1.0  0.27614  0.61885  0.75615  1.0000
  Fe  Fe36      1.0  0.25007  0.52803  0.72530  1.0000
  S   S70       1.0  0.25685  0.50311  0.68851  1.0000
  Fe  Fe37      1.0  0.26164  0.53158  0.78526  1.0000
  S   S71       1.0  0.28977  0.52294  0.81842  1.0000
  S   S72       1.0  0.22613  0.56491  0.72589  1.0000
  S   S73       1.0  0.23682  0.56753  0.78900  1.0000
  Fe  Fe38      1.0  0.05843  0.48867  0.70477  1.0000
  S   S74       1.0  0.02585  0.49460  0.73486  1.0000
  S   S75       1.0  0.09883  0.47369  0.71157  1.0000
  H   H388      1.0  0.38322  0.44570  0.86227  1.0000
  S   S76       1.0  0.03525  0.46501  0.67794  1.0000
  S   S77       1.0  0.05155  0.52626  0.68430  1.0000
  H   H389      1.0  0.25401  0.63714  0.80891  1.0000
  C   C226      1.0  0.44652  0.44651  0.98518  1.0000
  C   C227      1.0  0.44818  0.64748  0.97368  1.0000
  H   H390      1.0  0.01651  0.37619  0.65816  1.0000
  H   H391      1.0  0.07897  0.45097  0.57284  1.0000
  H   H392      1.0  0.30123  0.61963  0.88122  1.0000
  Fe  Fe39      1.0  0.30703  0.49611  0.97472  1.0000
  S   S78       1.0  0.28054  0.49128  0.93990  1.0000
  H   H393      1.0  0.43721  0.60921  0.96511  1.0000
  C   C228      1.0  0.31937  0.53495  0.67948  1.0000
  S   S79       1.0  0.34640  0.51491  0.97294  1.0000
  H   H394      1.0  0.07825  0.51143  0.53050  1.0000
  H   H395      1.0  0.03504  0.40466  0.53250  1.0000
  C   C229      1.0  0.29865  0.65152  0.85454  1.0000
  H   H396      1.0  0.17495  0.62479  0.77421  1.0000
  C   C230      1.0  0.29880  0.62752  0.95744  1.0000
  C   C231      1.0  0.29817  0.60057  0.95510  1.0000
  C   C232      1.0  0.31014  0.58460  0.97355  1.0000
  C   C233      1.0  0.13431  0.61627  0.76771  1.0000
  H   H397      1.0  0.31408  0.63423  0.68814  1.0000
  H   H398      1.0  0.28826  0.59195  0.93917  1.0000
  H   H399      1.0  0.30946  0.56383  0.97163  1.0000
  H   H400      1.0  0.37801  0.57198  0.94676  1.0000
  C   C234      1.0  0.28600  0.51542  0.85249  1.0000
  C   C235      1.0  0.26302  0.50518  0.86371  1.0000
  C   C236      1.0  0.26160  0.49827  0.89051  1.0000
  C   C237      1.0  0.28281  0.50213  0.90667  1.0000
  C   C238      1.0  0.30539  0.51338  0.89568  1.0000
  C   C239      1.0  0.30713  0.51949  0.86872  1.0000
  H   H401      1.0  0.24658  0.50188  0.85159  1.0000
  H   H402      1.0  0.24397  0.48969  0.89874  1.0000
  H   H403      1.0  0.32160  0.51705  0.90789  1.0000
  H   H404      1.0  0.32499  0.52750  0.86037  1.0000
  C   C240      1.0  0.14705  0.53098  0.75569  1.0000
  C   C241      1.0  0.15935  0.51104  0.74121  1.0000
  C   C242      1.0  0.14437  0.49316  0.72814  1.0000
  C   C243      1.0  0.11711  0.49570  0.72879  1.0000
  C   C244      1.0  0.10472  0.51571  0.74310  1.0000
  C   C245      1.0  0.11970  0.53308  0.75690  1.0000
  H   H405      1.0  0.18042  0.50934  0.74006  1.0000
  H   H406      1.0  0.15400  0.47766  0.71711  1.0000
  H   H407      1.0  0.08363  0.51765  0.74378  1.0000
  H   H408      1.0  0.11012  0.54826  0.76837  1.0000
  H   H409      1.0  0.04011  0.59747  0.69469  1.0000
  H   H410      1.0  0.34601  0.61942  0.68218  1.0000
  C   C246      1.0  0.23267  0.51373  0.60273  1.0000
  C   C247      1.0  0.22736  0.53343  0.62125  1.0000
  C   C248      1.0  0.23396  0.53031  0.64767  1.0000
  C   C249      1.0  0.24651  0.50759  0.65584  1.0000
  C   C250      1.0  0.25187  0.48794  0.63732  1.0000
  C   C251      1.0  0.24487  0.49088  0.61101  1.0000
  H   H411      1.0  0.21800  0.55122  0.61510  1.0000
  H   H412      1.0  0.22967  0.54560  0.66161  1.0000
  H   H413      1.0  0.26161  0.47029  0.64333  1.0000
  H   H414      1.0  0.24923  0.47558  0.59707  1.0000
  C   C252      1.0  0.01839  0.60175  0.73131  1.0000
  C   C253      1.0  0.27589  0.64364  0.73258  1.0000
  Fe  Fe40      1.0  0.02522  0.50320  0.65962  1.0000
  C   C254      1.0  0.01835  0.64558  0.74991  1.0000
  H   H415      1.0  0.18517  0.35265  0.51807  1.0000
  C   C255      1.0  0.47102  0.46753  0.94973  1.0000
  C   C256      1.0  0.44984  0.48475  0.94661  1.0000
  C   C257      1.0  0.42715  0.48306  0.96303  1.0000
  C   C258      1.0  0.42525  0.46350  0.98196  1.0000
  H   H416      1.0  0.33793  0.53705  0.66789  1.0000
  C   C259      1.0  0.46940  0.44866  0.96934  1.0000
  H   H417      1.0  0.45115  0.49954  0.93161  1.0000
  H   H418      1.0  0.41105  0.49658  0.96074  1.0000
  H   H419      1.0  0.31943  0.57181  0.83668  1.0000
  C   C260      1.0  0.28588  0.62815  0.86877  1.0000
  H   H420      1.0  0.36383  0.61521  0.95992  1.0000
  C   C261      1.0  0.03297  0.65474  0.72819  1.0000
  C   C262      1.0  0.15564  0.63496  0.77590  1.0000
  H   H421      1.0  0.36051  0.42109  0.85427  1.0000
  S   S80       1.0  0.18984  0.45676  0.54537  1.0000
  H   H422      1.0  0.06772  0.39095  0.71667  1.0000
  C   C263      1.0  0.01734  0.52327  0.56842  1.0000
  H   H423      1.0  0.31245  0.51504  0.67617  1.0000
  H   H424      1.0  0.32933  0.60393  0.84558  1.0000
  H   H425      1.0  0.04529  0.60830  0.64211  1.0000
  C   C264      1.0  0.26037  0.64279  0.71071  1.0000
  C   C265      1.0  0.32755  0.61860  0.69424  1.0000
  H   H426      1.0  0.32027  0.64913  0.85343  1.0000
  H   H427      1.0  0.27045  0.63597  0.88268  1.0000
  H   H428      1.0  0.34839  0.44981  0.86860  1.0000
  H   H429      1.0  0.15765  0.52795  0.68349  1.0000
  N   N16       1.0  0.30654  0.58210  0.66781  1.0000
  C   C266      1.0  0.31535  0.59147  0.69394  1.0000
  C   C267      1.0  0.29792  0.55457  0.67169  1.0000
  C   C268      1.0  0.28317  0.59859  0.66090  1.0000
  C   C269      1.0  0.32871  0.58476  0.64766  1.0000
  C   C270      1.0  0.27143  0.59368  0.63419  1.0000
  C   C271      1.0  0.32779  0.56796  0.62269  1.0000
  H   H430      1.0  0.29880  0.59133  0.70882  1.0000
  H   H431      1.0  0.28900  0.54670  0.65415  1.0000
  H   H432      1.0  0.28190  0.55368  0.68709  1.0000
  H   H433      1.0  0.26709  0.59637  0.67608  1.0000
  H   H434      1.0  0.28792  0.61941  0.66063  1.0000
  H   H435      1.0  0.33039  0.60533  0.64133  1.0000
  H   H436      1.0  0.34762  0.57973  0.65667  1.0000
  H   H437      1.0  0.26530  0.57349  0.63173  1.0000
  H   H438      1.0  0.28500  0.59948  0.61784  1.0000
  H   H439      1.0  0.25353  0.60596  0.63260  1.0000
  H   H440      1.0  0.33340  0.57992  0.60532  1.0000
  H   H441      1.0  0.30864  0.55967  0.61874  1.0000
  H   H442      1.0  0.34260  0.55201  0.62315  1.0000
  N   N17       1.0  0.07711  0.42110  0.77679  1.0000
  C   C272      1.0  0.10450  0.43085  0.77143  1.0000
  C   C273      1.0  0.07312  0.39941  0.75778  1.0000
  C   C274      1.0  0.07599  0.41057  0.80435  1.0000
  C   C275      1.0  0.05787  0.44327  0.77385  1.0000
  C   C276      1.0  0.11318  0.45324  0.78880  1.0000
  H   H443      1.0  0.10105  0.62478  0.80658  1.0000
  C   C277      1.0  0.05011  0.39847  0.81419  1.0000
  H   H444      1.0  0.06419  0.42464  0.72395  1.0000
  H   H445      1.0  0.11922  0.41483  0.77301  1.0000
  H   H446      1.0  0.10699  0.43818  0.75112  1.0000
  H   H447      1.0  0.29243  0.61963  0.81428  1.0000
  H   H448      1.0  0.08749  0.38337  0.76096  1.0000
  H   H449      1.0  0.09172  0.39565  0.80674  1.0000
  H   H450      1.0  0.07967  0.42604  0.81868  1.0000
  H   H451      1.0  0.33054  0.59386  0.81201  1.0000
  H   H452      1.0  0.26027  0.56447  0.90369  1.0000
  H   H453      1.0  0.09969  0.47022  0.78817  1.0000
  H   H454      1.0  0.11588  0.44706  0.80930  1.0000
  H   H455      1.0  0.13254  0.46001  0.78114  1.0000
  H   H456      1.0  0.22200  0.63988  0.82340  1.0000
  H   H457      1.0  0.03776  0.52183  0.56217  1.0000
  H   H458      1.0  0.11104  0.65597  0.79591  1.0000
  H   H459      1.0  0.05383  0.39033  0.76087  1.0000
  H   H460      1.0  0.03428  0.41329  0.81661  1.0000
  H   H461      1.0  0.05283  0.39012  0.83397  1.0000
  H   H462      1.0  0.09158  0.60526  0.71491  1.0000
  H   H463      1.0  0.02325  0.41656  0.77429  1.0000
  C   C278      1.0  0.03371  0.61074  0.70996  1.0000
  H   H464      1.0  0.43048  0.63099  0.94006  1.0000
  H   H465      1.0  0.00722  0.62234  0.66259  1.0000
  H   H466      1.0  0.04792  0.47626  0.54725  1.0000
  H   H467      1.0  0.13853  0.39012  0.50943  1.0000
  H   H468      1.0  0.14103  0.53732  0.61053  1.0000
  S   S81       1.0  0.03380  0.50826  0.61621  1.0000
  H   H469      1.0  0.06861  0.61564  0.75618  1.0000
  H   H470      1.0  0.00482  0.53533  0.53037  1.0000
  C   C279      1.0  0.31183  0.63841  0.97812  1.0000
  H   H471      1.0  0.00805  0.65942  0.63754  1.0000
  H   H472      1.0  0.13100  0.62571  0.71482  1.0000
  H   H473      1.0  0.23493  0.58069  0.88690  1.0000
  C   C280      1.0  0.99883  0.64338  0.62709  1.0000
  C   C281      1.0  0.42882  0.62885  0.96173  1.0000
  C   C282      1.0  0.09424  0.59261  0.73217  1.0000
  H   H474      1.0  0.01248  0.42434  0.58304  1.0000
  C   C283      1.0  0.06769  0.44092  0.55795  1.0000
  C   C284      1.0  0.24703  0.61427  0.84523  1.0000
  H   H475      1.0  0.13324  0.60053  0.78267  1.0000
  H   H476      1.0  0.04393  0.38235  0.80181  1.0000
  C   C285      1.0  0.00968  0.51767  0.59443  1.0000
  H   H477      1.0  0.17384  0.49981  0.67102  1.0000
  C   C286      1.0  0.16373  0.35545  0.51619  1.0000
  H   H478      1.0  0.17436  0.53000  0.65248  1.0000
  C   C287      1.0  0.01652  0.58668  0.62003  1.0000
  H   H479      1.0  0.46477  0.65080  0.95942  1.0000
  H   H480      1.0  0.38651  0.57633  0.97972  1.0000
  C   C288      1.0  0.15948  0.38446  0.51002  1.0000
  C   C289      1.0  0.09870  0.63939  0.79072  1.0000
  N   N18       1.0  0.13834  0.49829  0.62581  1.0000
  C   C290      1.0  0.11072  0.49402  0.61758  1.0000
  C   C291      1.0  0.15051  0.51797  0.60740  1.0000
  C   C292      1.0  0.13652  0.50936  0.65311  1.0000
  C   C293      1.0  0.15287  0.47257  0.62534  1.0000
  C   C294      1.0  0.09398  0.47629  0.63563  1.0000
  C   C295      1.0  0.14909  0.51182  0.57803  1.0000
  C   C296      1.0  0.16233  0.51709  0.66515  1.0000
  C   C297      1.0  0.18279  0.47308  0.62066  1.0000
  H   H481      1.0  0.09983  0.51279  0.61588  1.0000
  H   H482      1.0  0.11069  0.48510  0.59780  1.0000
  H   H483      1.0  0.17145  0.52085  0.61117  1.0000
  C   C298      1.0  0.25573  0.58203  0.89197  1.0000
  H   H484      1.0  0.12332  0.52675  0.65375  1.0000
  H   H485      1.0  0.12759  0.49535  0.66721  1.0000
  H   H486      1.0  0.14904  0.46182  0.64399  1.0000
  H   H487      1.0  0.14574  0.45984  0.60972  1.0000
  H   H488      1.0  0.02211  0.35750  0.73102  1.0000
  H   H489      1.0  0.07616  0.47084  0.62546  1.0000
  H   H490      1.0  0.10434  0.45811  0.64080  1.0000
  H   H491      1.0  0.12951  0.51694  0.57074  1.0000
  C   C299      1.0  0.12432  0.64573  0.71885  1.0000
  C   C300      1.0  0.00311  0.36702  0.73129  1.0000
  H   H492      1.0  0.06444  0.45583  0.75716  1.0000
  C   C301      1.0  0.27397  0.58239  0.86718  1.0000
  S   S82       1.0  0.28329  0.64734  0.93445  1.0000
  H   H493      1.0  0.18828  0.47910  0.60039  1.0000
  H   H494      1.0  0.19104  0.45327  0.62320  1.0000
  H   H495      1.0  0.19250  0.48567  0.63447  1.0000
  N   N19       1.0  0.36128  0.43798  0.91999  1.0000
  C   C302      1.0  0.36197  0.41989  0.94325  1.0000
  C   C303      1.0  0.33405  0.44962  0.91971  1.0000
  C   C304      1.0  0.38093  0.45885  0.92412  1.0000
  C   C305      1.0  0.36847  0.42256  0.89572  1.0000
  C   C306      1.0  0.38885  0.40738  0.94874  1.0000
  C   C307      1.0  0.31188  0.43050  0.91534  1.0000
  C   C308      1.0  0.37763  0.48437  0.90885  1.0000
  C   C309      1.0  0.36500  0.43591  0.86901  1.0000
  H   H496      1.0  0.35517  0.43013  0.96150  1.0000
  H   H497      1.0  0.34840  0.40357  0.94110  1.0000
  H   H498      1.0  0.33223  0.46482  0.90457  1.0000
  H   H499      1.0  0.32931  0.45991  0.93845  1.0000
  H   H500      1.0  0.38037  0.46458  0.94511  1.0000
  H   H501      1.0  0.40123  0.45160  0.91956  1.0000
  H   H502      1.0  0.38940  0.41634  0.89570  1.0000
  H   H503      1.0  0.35790  0.40392  0.89560  1.0000
  H   H504      1.0  0.38687  0.39553  0.96686  1.0000
  H   H505      1.0  0.39586  0.39422  0.93282  1.0000
  H   H506      1.0  0.40392  0.42189  0.95239  1.0000
  H   H507      1.0  0.31532  0.41901  0.89727  1.0000
  H   H508      1.0  0.30845  0.41762  0.93246  1.0000
  H   H509      1.0  0.29335  0.44164  0.91298  1.0000
  H   H510      1.0  0.36080  0.49587  0.91710  1.0000
  H   H511      1.0  0.37546  0.48165  0.88769  1.0000
  H   H512      1.0  0.39526  0.49624  0.91115  1.0000
  Fe  Fe41      1.0  0.01677  0.53100  0.71197  1.0000
  H   H513      1.0  0.32313  0.53618  0.70064  1.0000
  H   H514      1.0  0.00155  0.41100  0.52814  1.0000
  H   H515      1.0  0.24736  0.62682  0.70833  1.0000
  C   C310      1.0  0.39097  0.58299  0.95941  1.0000
  H   H516      1.0  0.33250  0.62313  0.71466  1.0000
  H   H517      1.0  0.08726  0.48654  0.65374  1.0000
  H   H518      1.0  0.08736  0.59287  0.77398  1.0000
  H   H519      1.0  0.09618  0.40924  0.72176  1.0000
  C   C311      1.0  0.10744  0.64980  0.74438  1.0000
  H   H520      1.0  0.04763  0.52898  0.49803  1.0000
  C   C312      1.0  0.08040  0.50554  0.51025  1.0000
  H   H521      1.0  0.11372  0.58294  0.73109  1.0000
  H   H522      1.0  0.15339  0.49119  0.57386  1.0000
  S   S83       1.0  0.12240  0.47647  0.52546  1.0000
  H   H523      1.0  0.08058  0.43989  0.54006  1.0000
  C   C313      1.0  0.08867  0.60745  0.75788  1.0000
  N   N20       1.0  0.27476  0.60747  0.85191  1.0000
  H   H524      1.0  0.05756  0.45592  0.79142  1.0000
  C   C314      1.0  0.01181  0.40873  0.56846  1.0000
  C   C315      1.0  0.04056  0.63708  0.70824  1.0000
  H   H525      1.0  0.33058  0.57836  0.70179  1.0000
  N   N21       1.0  0.40074  0.63035  0.97189  1.0000
  S   S84       1.0  0.00735  0.56914  0.73375  1.0000
  Fe  Fe42      1.0  0.16530  0.47205  0.51328  1.0000
  H   H526      1.0  0.14207  0.60640  0.74983  1.0000
  H   H527      1.0  0.23803  0.59770  0.83540  1.0000
  C   C316      1.0  0.01092  0.61938  0.75129  1.0000
  C   C317      1.0  0.04221  0.45649  0.55371  1.0000
  H   H528      1.0  0.07966  0.57705  0.73089  1.0000
  H   H529      1.0  0.00378  0.48184  0.53072  1.0000
  H   H530      1.0  0.16363  0.52347  0.56661  1.0000
  H   H531      1.0  0.05608  0.63359  0.79469  1.0000
  H   H532      1.0  0.38835  0.61614  0.93449  1.0000
  S   S85       1.0  0.22607  0.39490  0.52016  1.0000
  H   H533      1.0  0.41138  0.57761  0.95344  1.0000
  C   C318      1.0  0.38880  0.65703  0.96897  1.0000
  S   S86       1.0  0.19050  0.50642  0.50525  1.0000
  Fe  Fe43      1.0  0.21594  0.49023  0.53671  1.0000
  C   C319      1.0  0.07548  0.40683  0.72849  1.0000
  S   S87       1.0  0.22422  0.51898  0.56956  1.0000
  H   H534      1.0  0.29374  0.57683  0.87382  1.0000
  C   C320      1.0  0.38518  0.61218  0.95577  1.0000
  H   H535      1.0  0.23467  0.61792  0.86328  1.0000
  C   C321      1.0  0.29099  0.60239  0.82709  1.0000
  N   N22       1.0  0.02381  0.44511  0.53469  1.0000
  C   C322      1.0  0.01824  0.41700  0.53980  1.0000
  H   H536      1.0  0.25829  0.59904  0.90464  1.0000
  H   H537      1.0  0.99906  0.61278  0.76792  1.0000
  C   C323      1.0  0.02919  0.43631  0.76886  1.0000
  H   H538      1.0  0.29154  0.65596  0.83492  1.0000
  H   H539      1.0  0.01578  0.44969  0.78010  1.0000
  H   H540      1.0  0.04376  0.57407  0.65014  1.0000
  H   H541      1.0  0.06395  0.42116  0.56539  1.0000
  H   H542      1.0  0.28148  0.58774  0.81493  1.0000
  H   H543      1.0  0.24761  0.65619  0.83857  1.0000
  H   H544      1.0  0.15265  0.64082  0.79665  1.0000
  Fe  Fe44      1.0  0.21262  0.43595  0.51332  1.0000
  H   H545      1.0  0.36803  0.65728  0.97649  1.0000
  H   H546      1.0  0.03281  0.45970  0.57332  1.0000
  C   C324      1.0  0.07018  0.64963  0.79321  1.0000
  S   S88       1.0  0.24116  0.46807  0.50671  1.0000
  C   C325      1.0  0.03671  0.44768  0.50765  1.0000
  C   C326      1.0  0.31918  0.59253  0.83094  1.0000
  N   N23       1.0  0.10755  0.62829  0.76444  1.0000
  H   H547      1.0  0.16777  0.39603  0.52585  1.0000
  H   H548      1.0  0.01860  0.40422  0.71965  1.0000
  H   H549      1.0  0.26789  0.56628  0.85451  1.0000
  H   H550      1.0  0.15676  0.65236  0.76324  1.0000
  H   H551      1.0  0.48559  0.43527  0.97189  1.0000
  H   H552      1.0  0.15483  0.35197  0.53614  1.0000
  C   C327      1.0  0.04235  0.58866  0.63433  1.0000
  H   H553      1.0  0.02490  0.43973  0.74804  1.0000
  H   H554      1.0  0.02558  0.39313  0.57434  1.0000
  H   H555      1.0  0.05189  0.64387  0.69135  1.0000
  H   H556      1.0  0.01207  0.65884  0.76531  1.0000
  H   H557      1.0  0.31301  0.65911  0.97980  1.0000
  H   H558      1.0  0.11277  0.65203  0.70194  1.0000
  C   C328      1.0  0.99875  0.53096  0.55041  1.0000
  C   C329      1.0  0.10088  0.48861  0.50229  1.0000
  H   H559      1.0  0.05635  0.43822  0.50666  1.0000
  H   H560      1.0  0.05890  0.58440  0.62017  1.0000
  H   H561      1.0  0.01355  0.33944  0.63319  1.0000
  C   C330      1.0  0.00122  0.39363  0.72504  1.0000
  H   H562      1.0  0.24699  0.34352  0.51312  1.0000
  H   H563      1.0  0.00572  0.57735  0.67173  1.0000
  H   H564      1.0  0.14160  0.65843  0.71861  1.0000
  H   H565      1.0  0.01309  0.63819  0.61111  1.0000
  H   H566      1.0  0.01514  0.56644  0.61309  1.0000
  H   H567      1.0  0.01914  0.59822  0.60186  1.0000
  C   C331      1.0  0.24300  0.63832  0.82798  1.0000
  C   C332      1.0  0.99904  0.46131  0.53493  1.0000
  H   H568      1.0  0.11525  0.34986  0.51228  1.0000
  H   H569      1.0  0.08713  0.65428  0.73867  1.0000
  Fe  Fe45      1.0  0.00178  0.47269  0.70658  1.0000
  H   H570      1.0  0.46686  0.52947  0.97731  1.0000
  H   H571      1.0  0.24950  0.66241  0.67520  1.0000
  H   H572      1.0  0.37668  0.65730  0.92797  1.0000
  C   C333      1.0  0.26157  0.66292  0.69205  1.0000
  C   C334      1.0  0.47662  0.53315  0.99590  1.0000
  H   H573      1.0  0.00190  0.33038  0.68546  1.0000
  H   H574      1.0  0.04003  0.46838  0.50277  1.0000
  H   H575      1.0  0.45616  0.63932  0.99187  1.0000
  H   H576      1.0  0.06745  0.66102  0.81154  1.0000
  C   C335      1.0  0.32273  0.59553  0.99448  1.0000
  H   H577      1.0  0.99700  0.39653  0.63698  1.0000
  H   H578      1.0  0.49646  0.54010  0.99031  1.0000
  C   C336      1.0  0.99762  0.38672  0.65623  1.0000
  H   H579      1.0  0.99687  0.40241  0.67099  1.0000
  H   H580      1.0  0.06512  0.66267  0.77689  1.0000
  N   N24       1.0  0.15329  0.33671  0.49675  1.0000
  S   S89       1.0  0.08943  0.96703  0.02721  1.0000
  Fe  Fe46      1.0  0.03770  0.82475  0.02150  1.0000
  S   S90       1.0  0.04074  0.78560  0.04055  1.0000
  S   S91       1.0  0.03519  0.85923  0.04860  1.0000
  S   S92       1.0  0.48191  0.94817  0.30743  1.0000
  H   H581      1.0  0.27267  0.75094  0.01727  1.0000
  C   C337      1.0  0.48624  0.78004  0.20868  1.0000
  H   H582      1.0  0.29398  0.71950  0.04111  1.0000
  N   N25       1.0  0.03604  0.69574  0.05246  1.0000
  C   C338      1.0  0.29794  0.78086  0.02802  1.0000
  H   H583      1.0  0.33199  0.71888  0.06631  1.0000
  H   H584      1.0  0.29322  0.79660  0.01404  1.0000
  H   H585      1.0  0.03463  0.67396  0.08861  1.0000
  C   C339      1.0  0.05671  0.70299  0.03199  1.0000
  C   C340      1.0  0.17264  0.98993  0.07228  1.0000
  C   C341      1.0  0.31875  0.73598  0.06930  1.0000
  C   C342      1.0  0.27323  0.76484  0.03367  1.0000
  C   C343      1.0  0.42595  0.70992  0.01967  1.0000
  C   C344      1.0  0.39841  0.71169  0.02265  1.0000
  H   H586      1.0  0.41509  0.82429  0.47670  1.0000
  S   S93       1.0  0.47781  0.96144  0.38457  1.0000
  H   H587      1.0  0.38891  0.70613  0.04105  1.0000
  C   C345      1.0  0.06359  0.68311  0.01039  1.0000
  H   H588      1.0  0.48905  0.73492  0.12843  1.0000
  H   H589      1.0  0.29298  0.77700  0.08317  1.0000
  H   H590      1.0  0.32763  0.75193  0.05784  1.0000
  Fe  Fe47      1.0  0.06685  0.77469  0.00556  1.0000
  H   H591      1.0  0.13372  0.79203  0.00404  1.0000
  H   H592      1.0  0.10838  0.99010  0.11443  1.0000
  H   H593      1.0  0.25802  0.80396  0.10068  1.0000
  S   S94       1.0  0.47456  0.88739  0.48378  1.0000
  H   H594      1.0  0.18158  0.95814  0.04547  1.0000
  C   C346      1.0  0.46301  0.94735  0.43421  1.0000
  C   C347      1.0  0.46239  0.93132  0.45639  1.0000
  C   C348      1.0  0.04529  0.67352  0.06916  1.0000
  H   H595      1.0  0.31394  0.76869  0.01899  1.0000
  H   H596      1.0  0.45253  0.96569  0.43488  1.0000
  H   H597      1.0  0.47840  0.74430  0.17410  1.0000
  C   C349      1.0  0.07453  0.93696  0.03298  1.0000
  S   S95       1.0  0.34850  0.72240  0.00686  1.0000
  C   C350      1.0  0.06688  0.89257  0.01953  1.0000
  C   C351      1.0  0.05117  0.88863  0.04218  1.0000
  C   C352      1.0  0.04749  0.90879  0.06028  1.0000
  C   C353      1.0  0.05882  0.93297  0.05555  1.0000
  H   H598      1.0  0.21874  0.70981  0.04670  1.0000
  H   H599      1.0  0.28449  0.71366  0.07440  1.0000
  H   H600      1.0  0.03563  0.90575  0.07799  1.0000
  H   H601      1.0  0.05566  0.94840  0.06958  1.0000
  C   C354      1.0  0.29125  0.72907  0.06054  1.0000
  C   C355      1.0  0.13519  0.75075  0.99933  1.0000
  H   H602      1.0  0.47573  0.76211  0.21416  1.0000
  H   H603      1.0  0.04656  0.67769  0.99909  1.0000
  H   H604      1.0  0.24006  0.73160  0.08207  1.0000
  C   C356      1.0  0.01082  0.69039  0.03938  1.0000
  H   H605      1.0  0.17064  0.98663  0.02922  1.0000
  H   H606      1.0  0.04850  0.74522  0.09704  1.0000
  H   H607      1.0  0.05092  0.72130  0.02205  1.0000
  H   H608      1.0  0.01678  0.71470  0.08611  1.0000
  H   H609      1.0  0.09112  0.91957  0.99770  1.0000
  C   C357      1.0  0.27327  0.76862  0.08244  1.0000
  H   H610      1.0  0.48455  0.78395  0.15157  1.0000
  C   C358      1.0  0.38312  0.72052  0.00204  1.0000
  H   H611      1.0  0.13262  0.96829  0.09973  1.0000
  H   H612      1.0  0.14931  0.99503  0.13186  1.0000
  H   H613      1.0  0.48831  0.70592  0.14717  1.0000
  S   S96       1.0  0.00155  0.81508  0.00027  1.0000
  H   H614      1.0  0.14764  0.96657  0.04756  1.0000
  H   H615      1.0  0.24082  0.72230  0.02245  1.0000
  H   H616      1.0  0.07374  0.66587  0.01831  1.0000
  H   H617      1.0  0.25562  0.80414  0.06599  1.0000
  C   C359      1.0  0.03109  0.71907  0.06980  1.0000
  C   C360      1.0  0.25374  0.79170  0.08365  1.0000
  C   C361      1.0  0.24420  0.73894  0.06182  1.0000
  H   H618      1.0  0.01260  0.67371  0.02597  1.0000
  H   H619      1.0  0.25586  0.77757  0.03055  1.0000
  C   C362      1.0  0.47542  0.90737  0.45575  1.0000
  H   H620      1.0  0.25215  0.69934  0.04643  1.0000
  H   H621      1.0  0.47459  0.79198  0.19524  1.0000
  C   C363      1.0  0.47710  0.93986  0.41133  1.0000
  H   H622      1.0  0.30509  0.79087  0.04526  1.0000
  N   N26       1.0  0.27105  0.75071  0.05948  1.0000
  H   H623      1.0  0.43744  0.70314  0.03568  1.0000
  C   C364      1.0  0.49034  0.91595  0.41060  1.0000
  H   H624      1.0  0.06634  0.67567  0.07332  1.0000
  H   H625      1.0  0.22864  0.75366  0.05806  1.0000
  H   H626      1.0  0.17213  0.97559  0.08839  1.0000
  H   H627      1.0  0.06859  0.73974  0.06839  1.0000
  H   H628      1.0  0.23323  0.78542  0.08664  1.0000
  H   H629      1.0  0.27078  0.75759  0.10113  1.0000
  Fe  Fe48      1.0  0.00596  0.77538  0.01719  1.0000
  H   H630      1.0  0.45153  0.93746  0.47393  1.0000
  C   C365      1.0  0.23916  0.71633  0.04319  1.0000
  C   C366      1.0  0.16756  0.97474  0.04713  1.0000
  C   C367      1.0  0.05519  0.73007  0.08283  1.0000
  H   H631      1.0  0.31854  0.74060  0.09048  1.0000
  H   H632      1.0  0.06998  0.87708  0.00556  1.0000
  H   H633      1.0  0.44338  0.83064  0.49533  1.0000
  C   C368      1.0  0.42633  0.81804  0.49380  1.0000
  H   H634      1.0  0.43431  0.79850  0.48877  1.0000
  C   C369      1.0  0.48928  0.89960  0.43275  1.0000
  H   H635      1.0  0.02202  0.73517  0.05862  1.0000
  H   H636      1.0  0.07560  0.70688  0.04109  1.0000
  H   H637      1.0  0.00552  0.70691  0.02647  1.0000
  H   H638      1.0  0.39596  0.88930  0.49560  1.0000
  C   C370      1.0  0.07880  0.91663  0.01512  1.0000
  H   H639      1.0  0.48778  0.79118  0.22709  1.0000
  H   H640      1.0  0.06606  0.71514  0.09379  1.0000
  H   H641      1.0  0.10210  0.97168  0.08572  1.0000
  S   S97       1.0  0.10123  0.74568  0.00664  1.0000
  C   C371      1.0  0.11723  0.98273  0.09564  1.0000
  H   H642      1.0  0.00334  0.92389  0.01006  1.0000
  C   C372      1.0  0.14616  0.77530  0.99990  1.0000
  H   H643      1.0  0.49321  0.97249  0.47236  1.0000
  H   H644      1.0  0.38488  0.85684  0.49329  1.0000
  H   H645      1.0  0.00581  0.94039  0.05200  1.0000
  H   H646      1.0  0.19333  0.99634  0.07101  1.0000
  H   H647      1.0  0.18168  0.79722  0.99692  1.0000
  Fe  Fe49      1.0  0.43373  0.91847  0.57163  1.0000
  H   H648      1.0  0.41252  0.79723  0.52840  1.0000
  S   S98       1.0  0.39703  0.90267  0.59320  1.0000
  Fe  Fe50      1.0  0.45004  0.96558  0.53770  1.0000
  S   S99       1.0  0.48828  0.94709  0.52492  1.0000
  Fe  Fe51      1.0  0.46572  0.91115  0.52001  1.0000
  N   N27       1.0  0.23839  0.73910  0.81419  1.0000
  H   H649      1.0  0.38116  0.68825  0.94174  1.0000
  S   S100      1.0  0.42711  0.93022  0.52982  1.0000
  S   S101      1.0  0.45397  0.95594  0.58044  1.0000
  Fe  Fe52      1.0  0.32435  0.75879  0.74069  1.0000
  S   S102      1.0  0.33905  0.74872  0.70012  1.0000
  S   S103      1.0  0.34322  0.73829  0.77425  1.0000
  Fe  Fe53      1.0  0.27996  0.79224  0.72063  1.0000
  S   S104      1.0  0.29177  0.78539  0.67823  1.0000
  S   S105      1.0  0.24328  0.81382  0.73490  1.0000
  Fe  Fe54      1.0  0.29694  0.74411  0.69142  1.0000
  S   S106      1.0  0.27948  0.70949  0.67258  1.0000
  Fe  Fe55      1.0  0.33322  0.79109  0.69066  1.0000
  S   S107      1.0  0.37013  0.80820  0.67068  1.0000
  S   S108      1.0  0.28281  0.75088  0.73273  1.0000
  S   S109      1.0  0.32081  0.80131  0.73235  1.0000
  Fe  Fe56      1.0  0.04666  0.78043  0.76957  1.0000
  S   S110      1.0  0.08412  0.77704  0.79115  1.0000
  S   S111      1.0  0.01954  0.81637  0.77578  1.0000
  Fe  Fe57      1.0  0.05031  0.72182  0.75175  1.0000
  S   S112      1.0  0.08695  0.71605  0.77356  1.0000
  S   S113      1.0  0.04106  0.68810  0.72416  1.0000
  Fe  Fe58      1.0  0.06751  0.73955  0.80551  1.0000
  S   S114      1.0  0.07028  0.72745  0.84748  1.0000
  Fe  Fe59      1.0  0.09990  0.75391  0.75658  1.0000
  S   S115      1.0  0.13984  0.74826  0.73628  1.0000
  S   S116      1.0  0.02953  0.74302  0.78546  1.0000
  S   S117      1.0  0.06367  0.75965  0.73351  1.0000
  Fe  Fe60      1.0  0.03018  0.80143  0.96862  1.0000
  H   H650      1.0  0.43011  0.86377  0.61906  1.0000
  S   S118      1.0  0.02144  0.81025  0.92667  1.0000
  N   N28       1.0  0.40881  0.83781  0.53817  1.0000
  Fe  Fe61      1.0  0.31836  0.72535  0.97510  1.0000
  S   S119      1.0  0.32360  0.70935  0.93441  1.0000
  S   S120      1.0  0.28138  0.70391  0.98550  1.0000
  Fe  Fe62      1.0  0.25855  0.73738  0.96892  1.0000
  S   S121      1.0  0.25985  0.72095  0.92830  1.0000
  H   H651      1.0  0.35706  0.81608  0.57954  1.0000
  Fe  Fe63      1.0  0.28581  0.68956  0.94426  1.0000
  S   S122      1.0  0.03228  0.76081  0.98394  1.0000
  Fe  Fe64      1.0  0.29739  0.74228  0.92208  1.0000
  S   S123      1.0  0.30027  0.76978  0.88760  1.0000
  H   H652      1.0  0.19349  0.71937  0.76790  1.0000
  S   S124      1.0  0.29533  0.76026  0.96205  1.0000
  C   C373      1.0  0.17343  0.77818  0.99588  1.0000
  H   H653      1.0  0.24542  0.82168  0.67107  1.0000
  S   S125      1.0  0.03268  0.93958  0.78066  1.0000
  S   S126      1.0  0.06615  0.81474  0.98808  1.0000
  H   H654      1.0  0.01729  0.80433  0.87113  1.0000
  H   H655      1.0  0.38200  0.85597  0.56684  1.0000
  H   H656      1.0  0.43280  0.73257  0.95742  1.0000
  H   H657      1.0  0.38430  0.73487  0.96249  1.0000
  C   C374      1.0  0.21189  0.82651  0.64545  1.0000
  H   H658      1.0  0.11435  0.66802  0.75308  1.0000
  H   H659      1.0  0.16819  0.82799  0.67237  1.0000
  H   H660      1.0  0.22201  0.77113  0.83717  1.0000
  H   H661      1.0  0.22343  0.78492  0.67767  1.0000
  C   C375      1.0  0.05756  0.75122  0.86909  1.0000
  C   C376      1.0  0.06341  0.74998  0.89556  1.0000
  C   C377      1.0  0.05306  0.76858  0.91317  1.0000
  C   C378      1.0  0.03628  0.78811  0.90448  1.0000
  C   C379      1.0  0.03044  0.78942  0.87797  1.0000
  C   C380      1.0  0.04128  0.77116  0.86023  1.0000
  H   H662      1.0  0.07621  0.73475  0.90243  1.0000
  H   H663      1.0  0.05816  0.76773  0.93343  1.0000
  H   H664      1.0  0.07267  0.93363  0.86200  1.0000
  H   H665      1.0  0.03667  0.77220  0.83979  1.0000
  Fe  Fe65      1.0  0.49094  0.93464  0.56656  1.0000
  H   H666      1.0  0.23842  0.85411  0.66160  1.0000
  H   H667      1.0  0.43050  0.84979  0.57129  1.0000
  S   S127      1.0  0.47325  0.71684  0.99149  1.0000
  C   C381      1.0  0.17698  0.80824  0.67383  1.0000
  H   H668      1.0  0.22950  0.79134  0.79291  1.0000
  C   C382      1.0  0.02450  0.85041  0.77817  1.0000
  H   H669      1.0  0.42818  0.81569  0.56821  1.0000
  H   H670      1.0  0.22904  0.74815  0.77418  1.0000
  C   C383      1.0  0.02945  0.90518  0.78119  1.0000
  C   C384      1.0  0.04880  0.88967  0.76825  1.0000
  C   C385      1.0  0.04654  0.86249  0.76700  1.0000
  H   H671      1.0  0.24895  0.78805  0.63392  1.0000
  H   H672      1.0  0.08994  0.86501  0.81132  1.0000
  H   H673      1.0  0.06559  0.89877  0.75882  1.0000
  H   H674      1.0  0.06151  0.85098  0.75675  1.0000
  C   C386      1.0  0.33190  0.74722  0.80586  1.0000
  C   C387      1.0  0.33507  0.73005  0.82687  1.0000
  C   C388      1.0  0.32535  0.73660  0.85215  1.0000
  C   C389      1.0  0.31305  0.76064  0.85653  1.0000
  C   C390      1.0  0.31041  0.77795  0.83557  1.0000
  C   C391      1.0  0.31949  0.77116  0.81023  1.0000
  H   H675      1.0  0.34471  0.71151  0.82351  1.0000
  H   H676      1.0  0.32755  0.72323  0.86827  1.0000
  H   H677      1.0  0.30097  0.79660  0.83894  1.0000
  H   H678      1.0  0.31702  0.78450  0.79415  1.0000
  C   C392      1.0  0.21484  0.79502  0.73765  1.0000
  C   C393      1.0  0.21472  0.77030  0.72683  1.0000
  C   C394      1.0  0.19162  0.75622  0.72713  1.0000
  C   C395      1.0  0.16844  0.76636  0.73881  1.0000
  C   C396      1.0  0.16853  0.79080  0.75040  1.0000
  C   C397      1.0  0.19171  0.80519  0.74965  1.0000
  H   H679      1.0  0.23218  0.76228  0.71728  1.0000
  H   H680      1.0  0.19166  0.73741  0.71796  1.0000
  H   H681      1.0  0.15065  0.79886  0.75927  1.0000
  H   H682      1.0  0.19162  0.82435  0.75804  1.0000
  C   C398      1.0  0.27807  0.68394  0.69544  1.0000
  C   C399      1.0  0.24037  0.76578  0.82582  1.0000
  H   H683      1.0  0.37148  0.79718  0.81316  1.0000
  H   H684      1.0  0.23704  0.70429  0.87344  1.0000
  H   H685      1.0  0.30667  0.70037  0.71992  1.0000
  C   C400      1.0  0.39026  0.87669  0.61536  1.0000
  C   C401      1.0  0.36406  0.87191  0.62313  1.0000
  C   C402      1.0  0.35746  0.85115  0.64002  1.0000
  C   C403      1.0  0.37706  0.83481  0.64938  1.0000
  C   C404      1.0  0.40327  0.83953  0.64157  1.0000
  C   C405      1.0  0.40987  0.86032  0.62470  1.0000
  H   H686      1.0  0.34872  0.88442  0.61603  1.0000
  H   H687      1.0  0.33724  0.84785  0.64582  1.0000
  H   H688      1.0  0.41863  0.82705  0.64866  1.0000
  N   N29       1.0  0.06128  0.86900  0.86104  1.0000
  C   C406      1.0  0.06090  0.84880  0.83990  1.0000
  C   C407      1.0  0.03708  0.86613  0.87856  1.0000
  C   C408      1.0  0.08507  0.86556  0.87721  1.0000
  C   C409      1.0  0.06212  0.89535  0.84831  1.0000
  H   H689      1.0  0.20308  0.75478  0.79744  1.0000
  H   H690      1.0  0.10712  0.83831  0.90064  1.0000
  C   C410      1.0  0.05781  0.91876  0.86689  1.0000
  C   C411      1.0  0.22923  0.83558  0.66749  1.0000
  H   H691      1.0  0.05708  0.82928  0.84825  1.0000
  H   H692      1.0  0.04445  0.85261  0.82692  1.0000
  H   H693      1.0  0.03799  0.87804  0.89653  1.0000
  H   H694      1.0  0.28911  0.69733  0.79293  1.0000
  H   H695      1.0  0.10328  0.86957  0.86536  1.0000
  H   H696      1.0  0.08487  0.87991  0.89334  1.0000
  H   H697      1.0  0.46142  0.81331  0.53316  1.0000
  H   H698      1.0  0.26431  0.78537  0.79456  1.0000
  C   C412      1.0  0.43858  0.71758  0.99618  1.0000
  H   H699      1.0  0.08221  0.83215  0.80639  1.0000
  C   C413      1.0  0.29347  0.68459  0.71735  1.0000
  H   H700      1.0  0.08962  0.82275  0.87596  1.0000
  C   C414      1.0  0.00800  0.89297  0.79341  1.0000
  H   H701      1.0  0.43025  0.86593  0.51402  1.0000
  H   H702      1.0  0.25622  0.76638  0.84005  1.0000
  C   C415      1.0  0.42326  0.72649  0.97563  1.0000
  H   H703      1.0  0.14368  0.71013  0.99372  1.0000
  H   H704      1.0  0.19157  0.71543  0.98571  1.0000
  H   H705      1.0  0.43990  0.66696  0.97755  1.0000
  H   H706      1.0  0.04729  0.89696  0.83305  1.0000
  H   H707      1.0  0.40089  0.81394  0.80500  1.0000
  H   H708      1.0  0.19121  0.70961  0.80120  1.0000
  H   H709      1.0  0.20887  0.72826  0.84342  1.0000
  H   H710      1.0  0.18705  0.80845  0.69268  1.0000
  H   H711      1.0  0.14053  0.79045  0.66137  1.0000
  N   N30       1.0  0.40223  0.80205  0.75057  1.0000
  C   C416      1.0  0.38446  0.79197  0.77251  1.0000
  C   C417      1.0  0.39982  0.78405  0.72770  1.0000
  C   C418      1.0  0.39213  0.82856  0.74315  1.0000
  C   C419      1.0  0.42970  0.80321  0.76013  1.0000
  C   C420      1.0  0.40799  0.75563  0.73247  1.0000
  C   C421      1.0  0.40755  0.84295  0.72127  1.0000
  C   C422      1.0  0.45237  0.80299  0.73907  1.0000
  H   H712      1.0  0.36435  0.78928  0.76564  1.0000
  H   H713      1.0  0.39117  0.77251  0.77911  1.0000
  H   H714      1.0  0.41098  0.79058  0.70999  1.0000
  H   H715      1.0  0.37921  0.78394  0.72154  1.0000
  H   H716      1.0  0.37152  0.82746  0.73706  1.0000
  H   H717      1.0  0.39181  0.84187  0.76013  1.0000
  H   H718      1.0  0.43186  0.82070  0.77241  1.0000
  H   H719      1.0  0.43356  0.78641  0.77324  1.0000
  H   H720      1.0  0.38795  0.81426  0.51147  1.0000
  H   H721      1.0  0.42722  0.75367  0.74146  1.0000
  H   H722      1.0  0.39305  0.74546  0.74478  1.0000
  H   H723      1.0  0.40932  0.74535  0.71342  1.0000
  H   H724      1.0  0.42703  0.84873  0.72768  1.0000
  H   H725      1.0  0.39675  0.86111  0.71660  1.0000
  H   H726      1.0  0.40947  0.83198  0.70277  1.0000
  H   H727      1.0  0.46749  0.81675  0.74489  1.0000
  H   H728      1.0  0.44699  0.80864  0.71915  1.0000
  H   H729      1.0  0.46233  0.78374  0.73831  1.0000
  N   N31       1.0  0.19628  0.80261  0.65134  1.0000
  C   C423      1.0  0.18266  0.79521  0.62701  1.0000
  C   C424      1.0  0.23562  0.77207  0.63926  1.0000
  C   C425      1.0  0.37777  0.81501  0.57214  1.0000
  C   C426      1.0  0.16299  0.81546  0.61667  1.0000
  H   H730      1.0  0.19865  0.84313  0.64101  1.0000
  H   H731      1.0  0.19713  0.79184  0.61051  1.0000
  H   H732      1.0  0.17284  0.77624  0.62939  1.0000
  H   H733      1.0  0.22773  0.76350  0.62147  1.0000
  H   H734      1.0  0.20214  0.76287  0.66384  1.0000
  H   H735      1.0  0.24775  0.75664  0.64826  1.0000
  H   H736      1.0  0.16130  0.76890  0.67967  1.0000
  H   H737      1.0  0.36941  0.82611  0.79449  1.0000
  H   H738      1.0  0.17268  0.82822  0.60182  1.0000
  H   H739      1.0  0.15376  0.82782  0.63216  1.0000
  H   H740      1.0  0.14667  0.80541  0.60756  1.0000
  H   H741      1.0  0.38072  0.79638  0.56174  1.0000
  C   C427      1.0  0.15429  0.78915  0.67752  1.0000
  H   H742      1.0  0.21782  0.83920  0.68606  1.0000
  C   C428      1.0  0.26523  0.73101  0.80376  1.0000
  H   H743      1.0  0.27224  0.74447  0.78820  1.0000
  H   H744      1.0  0.05929  0.91430  0.88794  1.0000
  H   H745      1.0  0.36637  0.84028  0.54132  1.0000
  C   C429      1.0  0.17908  0.73218  0.98953  1.0000
  H   H746      1.0  0.14278  0.79414  0.69577  1.0000
  H   H747      1.0  0.00952  0.89243  0.85861  1.0000
  C   C430      1.0  0.38174  0.80858  0.79750  1.0000
  C   C431      1.0  0.38927  0.66820  0.94097  1.0000
  C   C432      1.0  0.15186  0.72923  0.99413  1.0000
  H   H748      1.0  0.40945  0.66941  0.93238  1.0000
  H   H749      1.0  0.10295  0.83980  0.83230  1.0000
  C   C433      1.0  0.38958  0.87218  0.50725  1.0000
  H   H750      1.0  0.22530  0.70157  0.82855  1.0000
  C   C434      1.0  0.40809  0.81602  0.51869  1.0000
  C   C435      1.0  0.45859  0.83151  0.54437  1.0000
  H   H751      1.0  0.46405  0.84826  0.53190  1.0000
  C   C436      1.0  0.26840  0.70389  0.79164  1.0000
  H   H752      1.0  0.26578  0.71025  0.85365  1.0000
  C   C437      1.0  0.41158  0.86400  0.52544  1.0000
  C   C438      1.0  0.24613  0.71822  0.85936  1.0000
  C   C439      1.0  0.22848  0.72137  0.83575  1.0000
  H   H753      1.0  0.00214  0.74629  0.90715  1.0000
  H   H754      1.0  0.47273  0.83075  0.56028  1.0000
  H   H755      1.0  0.25693  0.68901  0.80217  1.0000
  C   C440      1.0  0.08564  0.84666  0.82174  1.0000
  Fe  Fe66      1.0  0.01125  0.97431  0.80059  1.0000
  H   H756      1.0  0.00707  0.85865  0.84986  1.0000
  C   C441      1.0  0.21376  0.78040  0.65929  1.0000
  H   H757      1.0  0.03562  0.84598  0.88589  1.0000
  H   H758      1.0  0.22461  0.82399  0.62743  1.0000
  H   H759      1.0  0.28003  0.73291  0.81882  1.0000
  H   H760      1.0  0.08122  0.89819  0.83759  1.0000
  C   C442      1.0  0.08847  0.83879  0.89027  1.0000
  H   H761      1.0  0.03859  0.92831  0.86367  1.0000
  H   H762      1.0  0.39841  0.67142  0.98106  1.0000
  H   H763      1.0  0.38973  0.81534  0.58975  1.0000
  H   H764      1.0  0.41236  0.87911  0.54079  1.0000
  C   C443      1.0  0.21924  0.74066  0.79245  1.0000
  H   H765      1.0  0.26347  0.70424  0.77069  1.0000
  C   C444      1.0  0.00527  0.86591  0.79137  1.0000
  H   H766      1.0  0.24769  0.80632  0.81738  1.0000
  H   H767      1.0  0.21889  0.69946  0.78018  1.0000
  C   C445      1.0  0.24578  0.78812  0.80624  1.0000
  H   H768      1.0  0.24810  0.73656  0.87018  1.0000
  C   C446      1.0  0.20527  0.71561  0.78531  1.0000
  H   H769      1.0  0.07271  0.83506  0.90527  1.0000
  S   S128      1.0  0.22455  0.76147  0.98761  1.0000
  C   C447      1.0  0.43070  0.83380  0.55672  1.0000
  C   C448      1.0  0.38331  0.83852  0.55420  1.0000
  S   S129      1.0  0.47105  0.89668  0.56093  1.0000
  C   C449      1.0  0.01084  0.87227  0.86588  1.0000
  H   H770      1.0  0.37164  0.87821  0.51873  1.0000
  C   C450      1.0  0.39572  0.72779  0.97844  1.0000
  C   C451      1.0  0.19009  0.75670  0.99062  1.0000
  H   H771      1.0  0.30453  0.66526  0.75260  1.0000
  C   C452      1.0  0.29232  0.66459  0.73585  1.0000
  H   H772      1.0  0.29479  0.66909  0.86664  1.0000
  H   H773      1.0  0.07777  0.69203  0.99612  1.0000
  H   H774      1.0  0.90791  0.15236  0.05633  1.0000
  N   N32       1.0  0.51614  0.00706  0.47247  1.0000
  C   C453      1.0  0.95034  0.17454  0.43590  1.0000
  C   C454      1.0  0.96949  0.10414  0.01965  1.0000
  C   C455      1.0  0.50149  0.06338  0.27447  1.0000
  H   H775      1.0  0.96511  0.06053  0.06318  1.0000
  H   H776      1.0  0.97176  0.02013  0.03401  1.0000
  C   C456      1.0  0.49797  0.26623  0.31713  1.0000
  H   H777      1.0  0.50289  0.29946  0.36838  1.0000
  H   H778      1.0  0.98702  0.09652  0.02937  1.0000
  N   N33       1.0  0.50821  0.24613  0.36207  1.0000
  H   H779      1.0  0.54616  0.18889  0.35497  1.0000
  C   C457      1.0  0.95343  0.01304  0.04209  1.0000
  H   H780      1.0  0.91470  0.13368  0.02762  1.0000
  H   H781      1.0  0.94919  0.06807  0.02113  1.0000
  H   H782      1.0  0.51944  0.05213  0.27552  1.0000
  H   H783      1.0  0.93519  0.05886  0.10365  1.0000
  C   C458      1.0  0.53857  0.20571  0.36660  1.0000
  H   H784      1.0  0.96797  0.06640  0.11020  1.0000
  H   H785      1.0  0.72073  0.14893  0.49184  1.0000
  H   H786      1.0  0.55826  0.31676  0.02773  1.0000
  H   H787      1.0  0.63068  0.21118  0.47768  1.0000
  H   H788      1.0  0.53629  0.30638  0.36880  1.0000
  H   H789      1.0  0.94814  0.25612  0.42130  1.0000
  H   H790      1.0  0.69037  0.14866  0.47611  1.0000
  H   H791      1.0  0.96418  0.16490  0.42169  1.0000
  H   H792      1.0  0.51090  0.23708  0.40348  1.0000
  H   H793      1.0  0.52485  0.07894  0.33328  1.0000
  C   C459      1.0  0.55333  0.31407  0.00698  1.0000
  H   H794      1.0  0.54187  0.26764  0.34703  1.0000
  H   H795      1.0  0.94761  0.12836  0.06382  1.0000
  S   S130      1.0  0.97262  0.30239  0.47736  1.0000
  C   C460      1.0  0.52159  0.29213  0.37582  1.0000
  H   H796      1.0  0.66492  0.00526  0.39625  1.0000
  C   C461      1.0  0.95717  0.07903  0.07150  1.0000
  H   H797      1.0  0.94391  0.09174  0.11133  1.0000
  H   H798      1.0  0.70626  0.11862  0.48588  1.0000
  H   H799      1.0  0.94667  0.21212  0.41896  1.0000
  C   C462      1.0  0.54138  0.01761  0.46091  1.0000
  H   H800      1.0  0.95151  0.16531  0.45545  1.0000
  H   H801      1.0  0.55579  0.21663  0.37244  1.0000
  H   H802      1.0  0.91792  0.05234  0.06371  1.0000
  S   S131      1.0  0.51464  0.14825  0.49341  1.0000
  H   H803      1.0  0.54021  0.03914  0.46032  1.0000
  H   H804      1.0  0.98775  0.20532  0.39942  1.0000
  H   H805      1.0  0.53184  0.22678  0.33136  1.0000
  H   H806      1.0  0.93395  0.01726  0.00578  1.0000
  H   H807      1.0  0.57503  0.02784  0.48409  1.0000
  H   H808      1.0  0.58205  0.00364  0.46039  1.0000
  C   C463      1.0  0.52020  0.22203  0.34953  1.0000
  H   H809      1.0  0.50827  0.02802  0.42139  1.0000
  H   H810      1.0  0.50465  0.20883  0.34335  1.0000
  C   C464      1.0  0.51083  0.07318  0.34934  1.0000
  H   H811      1.0  0.96671  0.12504  0.02369  1.0000
  C   C465      1.0  0.56684  0.01047  0.47498  1.0000
  H   H812      1.0  0.51036  0.28344  0.31897  1.0000
  H   H813      1.0  0.97398  0.09236  0.07115  1.0000
  C   C466      1.0  0.70171  0.13894  0.49145  1.0000
  C   C467      1.0  0.95018  0.07393  0.10074  1.0000
  H   H814      1.0  0.66016  0.01365  0.24502  1.0000
  H   H815      1.0  0.65619  0.00127  0.20268  1.0000
  C   C468      1.0  0.98091  0.24154  0.44400  1.0000
  C   C469      1.0  0.96983  0.25688  0.42087  1.0000
  C   C470      1.0  0.92941  0.11688  0.06418  1.0000
  C   C471      1.0  0.52976  0.26513  0.36544  1.0000
  S   S132      1.0  0.91886  0.24636  0.49388  1.0000
  H   H816      1.0  0.90002  0.07878  0.07754  1.0000
  C   C472      1.0  0.91173  0.07264  0.05973  1.0000
  N   N34       1.0  0.93535  0.08958  0.05527  1.0000
  H   H817      1.0  0.59413  0.30481  0.00249  1.0000
  C   C473      1.0  0.89276  0.07033  0.03714  1.0000
  H   H818      1.0  0.92963  0.09542  0.01365  1.0000
  H   H819      1.0  0.52107  0.09994  0.27063  1.0000
  H   H820      1.0  0.96858  0.24680  0.46168  1.0000
  H   H821      1.0  0.64653  0.00647  0.27687  1.0000
  H   H822      1.0  0.50873  0.25120  0.30547  1.0000
  C   C474      1.0  0.95444  0.20398  0.43732  1.0000
  H   H823      1.0  0.64875  0.12941  0.48212  1.0000
  C   C475      1.0  0.93193  0.01148  0.02612  1.0000
  H   H824      1.0  0.51226  0.05183  0.35088  1.0000
  C   C476      1.0  0.95090  0.00626  0.06854  1.0000
  H   H825      1.0  0.52825  0.19758  0.38421  1.0000
  N   N35       1.0  0.98215  0.21259  0.44085  1.0000
  S   S133      1.0  0.88102  0.00367  0.01590  1.0000
  H   H826      1.0  0.54249  0.29567  0.00662  1.0000
  H   H827      1.0  0.52055  0.29229  0.39756  1.0000
  H   H828      1.0  0.94110  0.21153  0.45344  1.0000
  H   H829      1.0  0.87519  0.21195  0.49183  1.0000
  H   H830      1.0  0.93027  0.17104  0.42938  1.0000
  S   S134      1.0  0.80403  0.00314  0.03001  1.0000
  C   C477      1.0  0.99136  0.20042  0.46579  1.0000
  H   H831      1.0  0.58235  0.20707  0.48219  1.0000
  H   H832      1.0  0.54404  0.25744  0.37945  1.0000
  H   H833      1.0  0.87534  0.05936  0.04418  1.0000
  H   H834      1.0  0.97806  0.20623  0.48267  1.0000
  S   S135      1.0  0.97735  0.00950  0.08920  1.0000
  C   C478      1.0  0.90775  0.00295  0.03636  1.0000
  C   C479      1.0  0.94485  0.08851  0.02695  1.0000
  C   C480      1.0  0.90917  0.13227  0.04874  1.0000
  H   H835      1.0  0.92195  0.11713  0.08490  1.0000
  C   C481      1.0  0.50233  0.09055  0.27168  1.0000
  H   H836      1.0  0.88939  0.12417  0.05162  1.0000
  H   H837      1.0  0.97491  0.27756  0.42272  1.0000
  C   C482      1.0  0.65610  0.99770  0.25905  1.0000
  H   H838      1.0  0.97790  0.25013  0.40164  1.0000
  S   S136      1.0  0.68164  0.00958  0.49361  1.0000
  H   H839      1.0  0.88571  0.08906  0.02954  1.0000
  H   H840      1.0  0.90187  0.05908  0.02062  1.0000
  H   H841      1.0  0.50235  0.30819  0.20388  1.0000
  H   H842      1.0  0.51734  0.08218  0.36754  1.0000
  H   H843      1.0  0.99070  0.17901  0.46485  1.0000
  H   H844      1.0  0.60482  0.14586  0.48833  1.0000
  H   H845      1.0  0.54427  0.01143  0.44014  1.0000
  C   C483      1.0  0.92684  0.99726  0.07874  1.0000
  H   H846      1.0  0.53941  0.32947  0.00138  1.0000
  H   H847      1.0  0.97388  0.10226  0.99827  1.0000
  Fe  Fe67      1.0  0.68270  0.25742  0.77249  1.0000
  S   S137      1.0  0.66403  0.24928  0.81202  1.0000
  S   S138      1.0  0.66962  0.23598  0.73707  1.0000
  Fe  Fe68      1.0  0.72457  0.29024  0.79550  1.0000
  S   S139      1.0  0.70963  0.28443  0.83714  1.0000
  C   C484      1.0  0.68800  0.14101  0.51885  1.0000
  Fe  Fe69      1.0  0.70510  0.24301  0.82473  1.0000
  S   S140      1.0  0.71398  0.20702  0.84822  1.0000
  Fe  Fe70      1.0  0.66976  0.29138  0.82103  1.0000
  S   S141      1.0  0.72327  0.24850  0.78460  1.0000
  Fe  Fe71      1.0  0.77122  0.07999  0.77949  1.0000
  S   S142      1.0  0.73757  0.05257  0.78442  1.0000
  S   S143      1.0  0.77532  0.12346  0.77849  1.0000
  Fe  Fe72      1.0  0.80831  0.03755  0.75934  1.0000
  C   C485      1.0  0.66624  0.12735  0.57226  1.0000
  S   S144      1.0  0.84996  0.03350  0.74450  1.0000
  Fe  Fe73      1.0  0.75076  0.03649  0.74464  1.0000
  C   C486      1.0  0.85729  0.00784  0.79075  1.0000
  Fe  Fe74      1.0  0.76763  0.02509  0.80176  1.0000
  H   H848      1.0  0.92516  0.31267  0.68188  1.0000
  S   S145      1.0  0.78241  0.06560  0.73932  1.0000
  S   S146      1.0  0.79999  0.05395  0.79919  1.0000
  C   C487      1.0  0.86126  0.03245  0.92126  1.0000
  H   H849      1.0  0.71624  0.13243  0.77232  1.0000
  Fe  Fe75      1.0  0.96152  0.99779  0.82612  1.0000
  H   H850      1.0  0.80758  0.25904  0.74858  1.0000
  C   C488      1.0  0.88571  0.24945  0.50589  1.0000
  C   C489      1.0  0.65034  0.13640  0.54880  1.0000
  H   H851      1.0  0.88939  0.28743  0.52210  1.0000
  H   H852      1.0  0.81045  0.23045  0.72973  1.0000
  H   H853      1.0  0.99100  0.11111  0.73216  1.0000
  S   S147      1.0  0.95016  0.30011  0.53851  1.0000
  Fe  Fe76      1.0  0.90356  0.26119  0.76895  1.0000
  S   S148      1.0  0.94395  0.26117  0.78467  1.0000
  S   S149      1.0  0.86803  0.25821  0.79649  1.0000
  Fe  Fe77      1.0  0.92488  0.25101  0.71383  1.0000
  S   S150      1.0  0.96659  0.24881  0.72611  1.0000
  S   S151      1.0  0.91068  0.24846  0.67269  1.0000
  Fe  Fe78      1.0  0.95119  0.22497  0.76055  1.0000
  H   H854      1.0  0.80092  0.00485  0.68089  1.0000
  S   S152      1.0  0.91044  0.22477  0.74599  1.0000
  Fe  Fe79      1.0  0.72358  0.24050  0.59422  1.0000
  S   S153      1.0  0.72481  0.25478  0.55272  1.0000
  S   S154      1.0  0.71763  0.26982  0.62653  1.0000
  Fe  Fe80      1.0  0.74020  0.18663  0.57772  1.0000
  S   S155      1.0  0.74348  0.19699  0.53497  1.0000
  S   S156      1.0  0.74832  0.14732  0.59487  1.0000
  Fe  Fe81      1.0  0.76344  0.23304  0.54837  1.0000
  S   S157      1.0  0.79946  0.25701  0.53658  1.0000
  Fe  Fe82      1.0  0.70460  0.21770  0.54338  1.0000
  Fe  Fe83      1.0  0.65841  0.00113  0.53073  1.0000
  S   S158      1.0  0.76263  0.22069  0.59052  1.0000
  S   S159      1.0  0.70057  0.20521  0.58543  1.0000
  Fe  Fe84      1.0  0.70991  0.02802  0.51989  1.0000
  H   H855      1.0  0.82230  0.08019  0.67601  1.0000
  S   S160      1.0  0.72896  0.06520  0.50759  1.0000
  S   S161      1.0  0.68449  0.02350  0.55628  1.0000
  C   C490      1.0  0.67431  0.32012  0.60803  1.0000
  C   C491      1.0  0.74523  0.12333  0.57122  1.0000
  C   C492      1.0  0.73248  0.10038  0.57789  1.0000
  C   C493      1.0  0.72844  0.08180  0.55867  1.0000
  C   C494      1.0  0.73700  0.08621  0.53273  1.0000
  C   C495      1.0  0.75063  0.10872  0.52633  1.0000
  C   C496      1.0  0.75469  0.12730  0.54553  1.0000
  H   H856      1.0  0.72503  0.09731  0.59774  1.0000
  H   H857      1.0  0.71820  0.06439  0.56385  1.0000
  C   C497      1.0  0.83229  0.07504  0.65716  1.0000
  H   H858      1.0  0.76505  0.14472  0.54038  1.0000
  C   C498      1.0  0.98173  0.25373  0.63528  1.0000
  S   S162      1.0  0.61506  0.01052  0.53247  1.0000
  H   H859      1.0  0.51732  0.03397  0.53538  1.0000
  C   C499      1.0  0.83253  0.25314  0.52452  1.0000
  C   C500      1.0  0.84994  0.27347  0.52809  1.0000
  H   H860      1.0  0.99583  0.07406  0.94268  1.0000
  C   C501      1.0  0.79094  0.03134  0.64956  1.0000
  N   N36       1.0  0.85848  0.00780  0.90614  1.0000
  H   H861      1.0  0.84294  0.29089  0.53790  1.0000
  C   C502      1.0  0.97141  0.13847  0.80051  1.0000
  H   H862      1.0  0.62045  0.31407  0.92883  1.0000
  C   C503      1.0  0.94948  0.26969  0.60576  1.0000
  C   C504      1.0  0.92969  0.26532  0.62497  1.0000
  C   C505      1.0  0.93580  0.25458  0.64917  1.0000
  C   C506      1.0  0.96187  0.24875  0.65424  1.0000
  S   S163      1.0  0.98979  0.25412  0.51496  1.0000
  H   H863      1.0  0.94449  0.27777  0.58719  1.0000
  H   H864      1.0  0.90974  0.27074  0.62118  1.0000
  H   H865      1.0  0.73039  0.18176  0.75360  1.0000
  H   H866      1.0  0.53766  0.04358  0.50798  1.0000
  H   H867      1.0  0.62762  0.08994  0.54022  1.0000
  H   H868      1.0  0.63128  0.23654  0.63633  1.0000
  C   C507      1.0  0.83585  0.04374  0.93443  1.0000
  H   H869      1.0  0.62154  0.31674  0.57826  1.0000
  H   H870      1.0  0.84511  0.09166  0.65242  1.0000
  H   H871      1.0  0.64300  0.14079  0.76929  1.0000
  H   H872      1.0  0.68675  0.16195  0.52381  1.0000
  C   C508      1.0  0.76543  0.02299  0.88398  1.0000
  C   C509      1.0  0.76726  0.02413  0.91148  1.0000
  H   H873      1.0  0.83752  0.06500  0.93642  1.0000
  H   H874      1.0  0.76065  0.04024  0.87303  1.0000
  H   H875      1.0  0.76396  0.04241  0.92137  1.0000
  C   C510      1.0  0.77340  0.00195  0.92629  1.0000
  C   C511      1.0  0.86879  0.02195  0.77003  1.0000
  H   H876      1.0  0.61691  0.29123  0.95582  1.0000
  C   C512      1.0  0.65469  0.14920  0.75283  1.0000
  C   C513      1.0  0.59388  0.20707  0.49945  1.0000
  H   H877      1.0  0.70298  0.04903  0.65963  1.0000
  C   C514      1.0  0.89552  0.02702  0.76978  1.0000
  H   H878      1.0  0.75791  0.30464  0.69534  1.0000
  C   C515      1.0  0.72422  0.01893  0.67943  1.0000
  C   C516      1.0  0.68420  0.17462  0.78093  1.0000
  C   C517      1.0  0.97813  0.14502  0.75400  1.0000
  C   C518      1.0  0.58129  0.20595  0.52424  1.0000
  C   C519      1.0  0.59676  0.20635  0.54641  1.0000
  C   C520      1.0  0.62430  0.20797  0.54388  1.0000
  C   C521      1.0  0.63674  0.21032  0.51914  1.0000
  C   C522      1.0  0.97558  0.26410  0.61094  1.0000
  C   C523      1.0  0.66521  0.09997  0.51928  1.0000
  H   H879      1.0  0.58730  0.20550  0.56570  1.0000
  H   H880      1.0  0.63585  0.20791  0.56108  1.0000
  H   H881      1.0  0.97853  0.15761  0.73705  1.0000
  S   S164      1.0  0.72358  0.03629  0.70961  1.0000
  C   C524      1.0  0.68375  0.24519  0.70663  1.0000
  C   C525      1.0  0.69492  0.26946  0.70315  1.0000
  C   C526      1.0  0.70516  0.27683  0.67839  1.0000
  C   C527      1.0  0.70493  0.25971  0.65725  1.0000
  C   C528      1.0  0.69421  0.23524  0.66081  1.0000
  C   C529      1.0  0.68334  0.22812  0.68541  1.0000
  H   H882      1.0  0.69515  0.28276  0.71939  1.0000
  H   H883      1.0  0.71326  0.29585  0.67562  1.0000
  H   H884      1.0  0.69394  0.22195  0.64458  1.0000
  H   H885      1.0  0.67459  0.20937  0.68800  1.0000
  C   C530      1.0  0.78929  0.29976  0.78699  1.0000
  C   C531      1.0  0.79089  0.27648  0.80081  1.0000
  C   C532      1.0  0.81525  0.26417  0.80374  1.0000
  C   C533      1.0  0.83811  0.27469  0.79236  1.0000
  H   H886      1.0  0.77341  0.26801  0.80950  1.0000
  H   H887      1.0  0.81637  0.24628  0.81472  1.0000
  C   C534      1.0  0.73324  0.18351  0.83117  1.0000
  C   C535      1.0  0.75136  0.19087  0.81148  1.0000
  C   C536      1.0  0.76469  0.17208  0.79615  1.0000
  C   C537      1.0  0.76009  0.14576  0.80037  1.0000
  C   C538      1.0  0.74273  0.13819  0.82071  1.0000
  C   C539      1.0  0.72940  0.15709  0.83618  1.0000
  H   H888      1.0  0.75531  0.21106  0.80821  1.0000
  H   H889      1.0  0.77840  0.17804  0.78072  1.0000
  H   H890      1.0  0.73924  0.11789  0.82421  1.0000
  H   H891      1.0  0.71556  0.15128  0.85156  1.0000
  S   S165      1.0  0.68519  0.29994  0.77993  1.0000
  N   N37       1.0  0.78759  0.05925  0.64130  1.0000
  C   C540      1.0  0.77184  0.05995  0.61691  1.0000
  C   C541      1.0  0.77212  0.07423  0.66211  1.0000
  C   C542      1.0  0.56612  0.99675  0.54970  1.0000
  C   C543      1.0  0.81370  0.07114  0.63457  1.0000
  S   S166      1.0  0.63526  0.31626  0.83710  1.0000
  C   C544      1.0  0.76686  0.10303  0.65599  1.0000
  H   H892      1.0  0.81910  0.01162  0.89226  1.0000
  H   H893      1.0  0.65450  0.13423  0.73723  1.0000
  H   H894      1.0  0.75095  0.05554  0.62171  1.0000
  H   H895      1.0  0.77177  0.07964  0.60808  1.0000
  H   H896      1.0  0.78148  0.07360  0.68122  1.0000
  H   H897      1.0  0.75282  0.06516  0.66611  1.0000
  H   H898      1.0  0.77814  0.02076  0.60024  1.0000
  H   H899      1.0  0.97894  0.32381  0.59077  1.0000
  H   H900      1.0  0.82494  0.05902  0.61999  1.0000
  H   H901      1.0  0.81145  0.08996  0.62417  1.0000
  C   C545      1.0  0.62089  0.29998  0.59201  1.0000
  H   H902      1.0  0.60833  0.15318  0.52189  1.0000
  H   H903      1.0  0.99454  0.29895  0.67258  1.0000
  H   H904      1.0  0.75635  0.11205  0.67316  1.0000
  H   H905      1.0  0.78520  0.11379  0.65247  1.0000
  H   H906      1.0  0.75403  0.10567  0.63920  1.0000
  C   C546      1.0  0.97160  0.15530  0.77873  1.0000
  H   H907      1.0  0.68515  0.13742  0.57300  1.0000
  C   C547      1.0  0.51834  0.03563  0.51370  1.0000
  C   C548      1.0  0.84338  0.03519  0.86689  1.0000
  Fe  Fe85      1.0  0.51280  0.18983  0.50588  1.0000
  H   H908      1.0  0.62076  0.02383  0.62549  1.0000
  N   N38       1.0  0.79287  0.26309  0.70960  1.0000
  C   C549      1.0  0.81208  0.25183  0.72841  1.0000
  C   C550      1.0  0.76574  0.25818  0.72097  1.0000
  C   C551      1.0  0.79695  0.29189  0.70843  1.0000
  C   C552      1.0  0.79798  0.25088  0.68304  1.0000
  C   C553      1.0  0.84130  0.25690  0.72190  1.0000
  N   N39       1.0  0.66147  0.12882  0.52210  1.0000
  H   H909      1.0  0.86324  0.03575  0.85744  1.0000
  C   C554      1.0  0.77456  0.24924  0.66499  1.0000
  H   H910      1.0  0.64826  0.15785  0.55005  1.0000
  H   H911      1.0  0.66156  0.25367  0.56340  1.0000
  H   H912      1.0  0.75051  0.26507  0.70774  1.0000
  C   C555      1.0  0.61329  0.31061  0.61963  1.0000
  H   H913      1.0  0.95007  0.31111  0.64174  1.0000
  H   H914      1.0  0.81715  0.29641  0.70125  1.0000
  H   H915      1.0  0.81380  0.26124  0.67191  1.0000
  H   H916      1.0  0.80554  0.23066  0.68497  1.0000
  H   H917      1.0  0.85332  0.24487  0.73506  1.0000
  S   S167      1.0  0.77604  0.00492  0.96094  1.0000
  H   H918      1.0  0.63000  0.08111  0.50595  1.0000
  H   H919      1.0  0.96632  0.14612  0.81974  1.0000
  H   H920      1.0  0.76787  0.22417  0.74673  1.0000
  H   H921      1.0  0.83211  0.03505  0.95414  1.0000
  H   H922      1.0  0.83905  0.05332  0.87782  1.0000
  H   H923      1.0  0.75749  0.11210  0.50633  1.0000
  H   H924      1.0  0.91129  0.00864  0.92585  1.0000
  H   H925      1.0  0.75999  0.23501  0.67223  1.0000
  H   H926      1.0  0.78171  0.24255  0.64533  1.0000
  H   H927      1.0  0.76438  0.26795  0.66211  1.0000
  H   H928      1.0  0.87517  0.17774  0.78883  1.0000
  H   H929      1.0  0.60716  0.11994  0.51125  1.0000
  H   H930      1.0  0.82929  0.03447  0.85095  1.0000
  C   C556      1.0  0.66934  0.30122  0.58567  1.0000
  H   H931      1.0  0.76763  0.21619  0.71238  1.0000
  C   C557      1.0  0.71172  0.01701  0.63354  1.0000
  C   C558      1.0  0.66351  0.17405  0.80390  1.0000
  N   N40       1.0  0.86229  0.21078  0.59383  1.0000
  C   C559      1.0  0.83438  0.20828  0.58568  1.0000
  C   C560      1.0  0.86290  0.23389  0.61169  1.0000
  C   C561      1.0  0.86971  0.18637  0.60832  1.0000
  C   C562      1.0  0.87939  0.21410  0.56940  1.0000
  C   C563      1.0  0.82832  0.18404  0.56961  1.0000
  C   C564      1.0  0.85693  0.26038  0.59902  1.0000
  C   C565      1.0  0.89196  0.18805  0.62773  1.0000
  C   C566      1.0  0.90858  0.21917  0.57285  1.0000
  H   H932      1.0  0.82062  0.20841  0.60315  1.0000
  H   H933      1.0  0.82838  0.22502  0.57350  1.0000
  H   H934      1.0  0.88210  0.23579  0.62056  1.0000
  H   H935      1.0  0.84888  0.23140  0.62872  1.0000
  H   H936      1.0  0.85260  0.17909  0.62022  1.0000
  H   H937      1.0  0.87529  0.17064  0.59426  1.0000
  H   H938      1.0  0.87894  0.19666  0.55685  1.0000
  H   H939      1.0  0.87163  0.22966  0.55680  1.0000
  H   H940      1.0  0.83893  0.18385  0.55028  1.0000
  H   H941      1.0  0.83221  0.16580  0.58032  1.0000
  H   H942      1.0  0.80714  0.18437  0.56554  1.0000
  H   H943      1.0  0.87140  0.26507  0.58303  1.0000
  H   H944      1.0  0.83686  0.26184  0.59172  1.0000
  H   H945      1.0  0.85836  0.27566  0.61405  1.0000
  H   H946      1.0  0.91005  0.19639  0.61904  1.0000
  H   H947      1.0  0.89712  0.16829  0.63459  1.0000
  H   H948      1.0  0.88565  0.19926  0.64545  1.0000
  S   S168      1.0  0.77798  0.00689  0.76217  1.0000
  H   H949      1.0  0.91227  0.23103  0.59005  1.0000
  C   C567      1.0  0.64451  0.13962  0.50099  1.0000
  C   C568      1.0  0.68386  0.11547  0.79221  1.0000
  C   C569      1.0  0.90905  0.08624  0.81144  1.0000
  C   C570      1.0  0.90928  0.09464  0.74521  1.0000
  H   H950      1.0  0.84641  0.27721  0.72581  1.0000
  H   H951      1.0  0.92655  0.12272  0.76925  1.0000
  H   H952      1.0  0.90600  0.06630  0.81896  1.0000
  H   H953      1.0  0.92623  0.08551  0.79756  1.0000
  H   H954      1.0  0.91348  0.09823  0.82856  1.0000
  H   H955      1.0  0.91334  0.09964  0.72432  1.0000
  H   H956      1.0  0.92654  0.08295  0.75106  1.0000
  H   H957      1.0  0.73826  0.22734  0.72949  1.0000
  H   H958      1.0  0.97731  0.09926  0.81457  1.0000
  H   H959      1.0  0.63005  0.02727  0.59228  1.0000
  H   H960      1.0  0.63976  0.18956  0.75658  1.0000
  C   C571      1.0  0.97781  0.11189  0.79769  1.0000
  S   S169      1.0  0.97944  0.03519  0.83753  1.0000
  C   C572      1.0  0.75980  0.22971  0.72761  1.0000
  H   H961      1.0  0.81402  0.03608  0.68524  1.0000
  H   H962      1.0  0.60827  0.25577  0.61897  1.0000
  Fe  Fe86      1.0  0.98910  0.28275  0.54767  1.0000
  S   S170      1.0  0.96456  0.18893  0.78392  1.0000
  S   S171      1.0  0.67122  0.21466  0.51478  1.0000
  C   C573      1.0  0.71209  0.03007  0.65773  1.0000
  H   H963      1.0  0.66784  0.31371  0.56805  1.0000
  C   C574      1.0  0.62787  0.24638  0.61737  1.0000
  H   H964      1.0  0.66368  0.28955  0.53249  1.0000
  H   H965      1.0  0.65505  0.13234  0.59068  1.0000
  H   H966      1.0  0.76875  0.04493  0.57751  1.0000
  Fe  Fe87      1.0  0.95189  0.27354  0.50405  1.0000
  H   H967      1.0  0.99404  0.31266  0.62929  1.0000
  C   C575      1.0  0.62134  0.20952  0.49697  1.0000
  N   N41       1.0  0.64588  0.28412  0.58912  1.0000
  C   C576      1.0  0.87637  0.27156  0.51913  1.0000
  H   H968      1.0  0.70255  0.02600  0.61706  1.0000
  H   H969      1.0  0.81838  0.04094  0.92289  1.0000
  H   H970      1.0  0.77282  0.02054  0.64608  1.0000
  H   H971      1.0  0.84489  0.05760  0.65989  1.0000
  H   H972      1.0  0.76204  0.26950  0.73933  1.0000
  H   H973      1.0  0.70182  0.13234  0.53267  1.0000
  C   C577      1.0  0.69551  0.12934  0.76785  1.0000
  C   C578      1.0  0.64469  0.26764  0.56487  1.0000
  H   H974      1.0  0.93098  0.02328  0.79042  1.0000
  H   H975      1.0  0.65261  0.15597  0.80640  1.0000
  H   H976      1.0  0.68094  0.09238  0.53169  1.0000
  H   H977      1.0  0.67336  0.17715  0.82255  1.0000
  C   C579      1.0  0.89953  0.00322  0.81043  1.0000
  H   H978      1.0  0.64942  0.19050  0.80229  1.0000
  C   C580      1.0  0.98524  0.11857  0.75130  1.0000
  H   H979      1.0  0.85420  0.30641  0.77004  1.0000
  H   H980      1.0  0.63905  0.26821  0.52298  1.0000
  H   H981      1.0  0.82877  0.21511  0.50844  1.0000
  C   C581      1.0  0.79684  0.02586  0.67844  1.0000
  H   H982      1.0  0.84388  0.09041  0.76370  1.0000
  H   H983      1.0  0.91635  0.23065  0.55591  1.0000
  H   H984      1.0  0.87776  0.07977  0.78598  1.0000
  H   H985      1.0  0.89183  0.08243  0.74588  1.0000
  H   H986      1.0  0.91355  0.13730  0.80999  1.0000
  H   H987      1.0  0.96677  0.23986  0.67252  1.0000
  C   C582      1.0  0.88399  0.09583  0.79835  1.0000
  C   C583      1.0  0.90687  0.11987  0.76135  1.0000
  H   H988      1.0  0.86822  0.09748  0.81400  1.0000
  H   H989      1.0  0.66319  0.11014  0.79027  1.0000
  N   N42       1.0  0.68242  0.15438  0.75994  1.0000
  C   C584      1.0  0.64095  0.08310  0.52411  1.0000
  S   S172      1.0  0.75868  0.31479  0.78227  1.0000
  C   C585      1.0  0.63896  0.17287  0.74318  1.0000
  C   C586      1.0  0.84192  0.23082  0.51160  1.0000
  H   H990      1.0  0.66826  0.25423  0.60824  1.0000
  H   H991      1.0  0.62798  0.23104  0.60231  1.0000
  H   H992      1.0  0.66960  0.10613  0.57240  1.0000
  H   H993      1.0  0.62899  0.31025  0.63378  1.0000
  H   H994      1.0  0.87095  0.04774  0.90917  1.0000
  Fe  Fe88      1.0  0.97359  0.32755  0.51310  1.0000
  H   H995      1.0  0.53494  0.32054  0.95700  1.0000
  H   H996      1.0  0.84729  0.25170  0.70149  1.0000
  H   H997      1.0  0.92000  0.20077  0.57387  1.0000
  N   N43       1.0  0.88629  0.12095  0.78337  1.0000
  C   C587      1.0  0.78096  0.04132  0.59468  1.0000
  H   H998      1.0  0.69594  0.11527  0.75137  1.0000
  H   H999      1.0  0.89291  0.01622  0.88180  1.0000
  H   H1000     1.0  0.56082  0.01659  0.54550  1.0000
  H   H1001     1.0  0.63027  0.12923  0.55250  1.0000
  H   H1002     1.0  0.80153  0.04437  0.58799  1.0000
  H   H1003     1.0  0.80662  0.02153  0.63733  1.0000
  H   H1004     1.0  0.77962  0.03042  0.69158  1.0000
  H   H1005     1.0  0.73362  0.17788  0.71896  1.0000
  H   H1006     1.0  0.79462  0.30027  0.72841  1.0000
  H   H1007     1.0  0.67639  0.31044  0.62718  1.0000
  H   H1008     1.0  0.68744  0.28922  0.58236  1.0000
  C   C588      1.0  0.91070  0.01820  0.79025  1.0000
  H   H1009     1.0  0.82749  0.11748  0.75027  1.0000
  C   C589      1.0  0.64412  0.28209  0.53843  1.0000
  C   C590      1.0  0.81222  0.31071  0.77617  1.0000
  H   H1010     1.0  0.90451  0.03785  0.75381  1.0000
  H   H1011     1.0  0.65327  0.01398  0.65882  1.0000
  S   S173      1.0  0.91409  0.28767  0.73531  1.0000
  Fe  Fe89      1.0  0.95535  0.28509  0.74885  1.0000
  H   H1012     1.0  0.73766  0.15026  0.73921  1.0000
  H   H1013     1.0  0.90744  0.17100  0.77389  1.0000
  C   C591      1.0  0.84716  0.10972  0.75485  1.0000
  H   H1014     1.0  0.61808  0.16768  0.74204  1.0000
  H   H1015     1.0  0.69499  0.09709  0.79497  1.0000
  H   H1016     1.0  0.90399  0.13615  0.74740  1.0000
  C   C592      1.0  0.89378  0.14143  0.80257  1.0000
  H   H1017     1.0  0.68828  0.18267  0.72887  1.0000
  H   H1018     1.0  0.69442  0.15018  0.71890  1.0000
  C   C593      1.0  0.72626  0.16856  0.73735  1.0000
  C   C594      1.0  0.85987  0.12866  0.77345  1.0000
  H   H1019     1.0  0.88008  0.14160  0.82010  1.0000
  C   C595      1.0  0.83657  0.29801  0.77850  1.0000
  H   H1020     1.0  0.68632  0.12687  0.81020  1.0000
  H   H1021     1.0  0.85828  0.10816  0.73587  1.0000
  H   H1022     1.0  0.84556  0.13204  0.79021  1.0000
  C   C596      1.0  0.69670  0.16389  0.73538  1.0000
  H   H1023     1.0  0.70378  0.17365  0.78943  1.0000
  H   H1024     1.0  0.64566  0.17892  0.72321  1.0000
  H   H1025     1.0  0.60397  0.28838  0.58609  1.0000
  H   H1026     1.0  0.86094  0.14723  0.76248  1.0000
  S   S174      1.0  0.54645  0.20675  0.52873  1.0000
  H   H1027     1.0  0.62681  0.25575  0.56582  1.0000
  C   C597      1.0  0.64991  0.26582  0.61173  1.0000
  H   H1028     1.0  0.65305  0.27600  0.63027  1.0000
  C   C598      1.0  0.89492  0.16942  0.79200  1.0000
  S   S175      1.0  0.97774  0.99752  0.78473  1.0000
  H   H1029     1.0  0.90379  0.18190  0.80677  1.0000
  H   H1030     1.0  0.78399  0.30436  0.66985  1.0000
  H   H1031     1.0  0.68279  0.19433  0.77224  1.0000
  H   H1032     1.0  0.57579  0.29487  0.97567  1.0000
  C   C599      1.0  0.57852  0.31129  0.98925  1.0000
  H   H1033     1.0  0.65473  0.02790  0.61616  1.0000
  H   H1034     1.0  0.94424  0.32734  0.59897  1.0000
  C   C600      1.0  0.63636  0.01850  0.61093  1.0000
  H   H1035     1.0  0.87469  0.02933  0.93757  1.0000
  C   C601      1.0  0.51413  0.00866  0.50193  1.0000
  C   C602      1.0  0.98541  0.10185  0.77312  1.0000
  H   H1036     1.0  0.64682  0.30795  0.94956  1.0000
  C   C603      1.0  0.87275  0.99817  0.81076  1.0000
  H   H1037     1.0  0.95759  0.31873  0.69102  1.0000
  C   C604      1.0  0.83959  0.01115  0.88445  1.0000
  H   H1038     1.0  0.64741  0.06349  0.53035  1.0000
  C   C605      1.0  0.61460  0.13931  0.50626  1.0000
  H   H1039     1.0  0.62923  0.29789  0.53847  1.0000
  C   C606      1.0  0.62517  0.30999  0.94945  1.0000
  C   C607      1.0  0.77896  0.30778  0.69085  1.0000
  H   H1040     1.0  0.57805  0.32041  0.93577  1.0000
  H   H1041     1.0  0.59621  0.30016  0.62828  1.0000
  H   H1042     1.0  0.83660  0.00385  0.79106  1.0000
  S   S176      1.0  0.98442  0.31880  0.74501  1.0000
  H   H1043     1.0  0.50280  0.04971  0.50871  1.0000
  C   C608      1.0  0.88479  0.00015  0.89396  1.0000
  C   C609      1.0  0.76904  0.99942  0.87087  1.0000
  H   H1044     1.0  0.67272  0.09504  0.49917  1.0000
  C   C610      1.0  0.94128  0.32674  0.67989  1.0000
  C   C611      1.0  0.86827  0.22912  0.50213  1.0000
  H   H1045     1.0  0.81112  0.32888  0.76570  1.0000
  H   H1046     1.0  0.64911  0.16028  0.49702  1.0000
  C   C612      1.0  0.99648  0.32939  0.64245  1.0000
  H   H1047     1.0  0.78226  0.32864  0.69427  1.0000
  H   H1048     1.0  0.66836  0.32916  0.88065  1.0000
  S   S177      1.0  0.99623  0.06902  0.76873  1.0000
  H   H1049     1.0  0.61848  0.36555  0.01101  1.0000
  C   C613      1.0  0.51396  0.41106  0.08027  1.0000
  Fe  Fe90      1.0  0.95398  0.49690  0.45086  1.0000
  H   H1050     1.0  0.90490  0.46561  0.38875  1.0000
  H   H1051     1.0  0.77797  0.61683  0.32741  1.0000
  Fe  Fe91      1.0  0.95166  0.55486  0.43725  1.0000
  S   S178      1.0  0.93784  0.58505  0.40736  1.0000
  H   H1052     1.0  0.84123  0.58909  0.40173  1.0000
  S   S179      1.0  0.97571  0.52118  0.42123  1.0000
  Fe  Fe92      1.0  0.95969  0.53656  0.49341  1.0000
  H   H1053     1.0  0.94678  0.53938  0.37706  1.0000
  H   H1054     1.0  0.57838  0.56081  0.12262  1.0000
  H   H1055     1.0  0.90801  0.53776  0.39914  1.0000
  S   S180      1.0  0.53069  0.39994  0.02960  1.0000
  H   H1056     1.0  0.64501  0.61910  0.03073  1.0000
  S   S181      1.0  0.59480  0.50569  0.00135  1.0000
  H   H1057     1.0  0.50309  0.46879  0.03385  1.0000
  H   H1058     1.0  0.49861  0.55176  0.17144  1.0000
  H   H1059     1.0  0.57987  0.50302  0.13777  1.0000
  S   S182      1.0  0.52386  0.51683  0.24580  1.0000
  Fe  Fe93      1.0  0.50301  0.48592  0.22279  1.0000
  S   S183      1.0  0.53118  0.46539  0.13405  1.0000
  H   H1060     1.0  0.58163  0.59896  0.14497  1.0000
  S   S184      1.0  0.52526  0.45001  0.20941  1.0000
  H   H1061     1.0  0.75045  0.60585  0.29317  1.0000
  H   H1062     1.0  0.74701  0.63905  0.37365  1.0000
  S   S185      1.0  0.52128  0.64065  0.24145  1.0000
  H   H1063     1.0  0.49862  0.54296  0.08579  1.0000
  C   C614      1.0  0.52399  0.55119  0.24253  1.0000
  C   C615      1.0  0.54342  0.56524  0.25463  1.0000
  C   C616      1.0  0.54354  0.59254  0.25369  1.0000
  C   C617      1.0  0.52382  0.60621  0.24110  1.0000
  S   S186      1.0  0.92793  0.52985  0.46506  1.0000
  H   H1064     1.0  0.87321  0.47825  0.38480  1.0000
  H   H1065     1.0  0.55834  0.55496  0.26513  1.0000
  H   H1066     1.0  0.55839  0.60303  0.26346  1.0000
  S   S187      1.0  0.52050  0.65505  0.10257  1.0000
  C   C618      1.0  0.53099  0.41743  0.05907  1.0000
  H   H1067     1.0  0.52895  0.65233  0.15760  1.0000
  C   C619      1.0  0.50455  0.59211  0.22872  1.0000
  C   C620      1.0  0.53102  0.44594  0.10589  1.0000
  C   C621      1.0  0.54828  0.45193  0.08486  1.0000
  C   C622      1.0  0.54809  0.43794  0.06145  1.0000
  H   H1068     1.0  0.56982  0.49852  0.19651  1.0000
  H   H1069     1.0  0.55878  0.51666  0.11361  1.0000
  H   H1070     1.0  0.56187  0.46754  0.08663  1.0000
  H   H1071     1.0  0.56145  0.44285  0.04532  1.0000
  H   H1072     1.0  0.51682  0.54122  0.03134  1.0000
  H   H1073     1.0  0.73668  0.64045  0.32472  1.0000
  H   H1074     1.0  0.77536  0.55897  0.34278  1.0000
  H   H1075     1.0  0.72891  0.56030  0.34173  1.0000
  H   H1076     1.0  0.95373  0.40314  0.43119  1.0000
  H   H1077     1.0  0.56848  0.61518  0.17346  1.0000
  C   C623      1.0  0.86080  0.52548  0.35856  1.0000
  H   H1078     1.0  0.53479  0.57079  0.12566  1.0000
  C   C624      1.0  0.73808  0.59291  0.30577  1.0000
  H   H1079     1.0  0.59348  0.51846  0.10923  1.0000
  H   H1080     1.0  0.57211  0.59646  0.01974  1.0000
  H   H1081     1.0  0.54203  0.51152  0.16414  1.0000
  H   H1082     1.0  0.62097  0.60460  0.01155  1.0000
  C   C625      1.0  0.76867  0.60133  0.33959  1.0000
  C   C626      1.0  0.90738  0.59599  0.39501  1.0000
  C   C627      1.0  0.90762  0.61427  0.37451  1.0000
  C   C628      1.0  0.88415  0.62354  0.36389  1.0000
  C   C629      1.0  0.86002  0.61450  0.37353  1.0000
  C   C630      1.0  0.85975  0.59608  0.39393  1.0000
  C   C631      1.0  0.88321  0.58703  0.40474  1.0000
  H   H1083     1.0  0.92612  0.62147  0.36685  1.0000
  H   H1084     1.0  0.88478  0.63766  0.34823  1.0000
  H   H1085     1.0  0.88255  0.57347  0.42087  1.0000
  N   N44       1.0  0.73992  0.59988  0.33432  1.0000
  C   C632      1.0  0.95836  0.38776  0.47015  1.0000
  H   H1086     1.0  0.89537  0.51674  0.33412  1.0000
  H   H1087     1.0  0.71095  0.65996  0.11552  1.0000
  H   H1088     1.0  0.94144  0.53772  0.34250  1.0000
  H   H1089     1.0  0.50909  0.58486  0.16718  1.0000
  C   C633      1.0  0.94717  0.43282  0.46029  1.0000
  H   H1090     1.0  0.71411  0.62680  0.37972  1.0000
  H   H1091     1.0  0.50075  0.39514  0.07855  1.0000
  H   H1092     1.0  0.71135  0.58473  0.27500  1.0000
  S   S188      1.0  0.81522  0.64975  0.28846  1.0000
  H   H1093     1.0  0.52477  0.53864  0.13138  1.0000
  H   H1094     1.0  0.54692  0.60610  0.14879  1.0000
  S   S189      1.0  0.98361  0.50152  0.48136  1.0000
  C   C634      1.0  0.71041  0.59352  0.29481  1.0000
  H   H1095     1.0  0.78874  0.57348  0.31290  1.0000
  C   C635      1.0  0.95296  0.40746  0.45188  1.0000
  H   H1096     1.0  0.53219  0.51405  0.07269  1.0000
  C   C636      1.0  0.56460  0.59982  0.15907  1.0000
  H   H1097     1.0  0.89835  0.54229  0.35597  1.0000
  H   H1098     1.0  0.57913  0.57021  0.18436  1.0000
  H   H1099     1.0  0.74306  0.59368  0.38802  1.0000
  C   C637      1.0  0.90457  0.51667  0.40053  1.0000
  H   H1100     1.0  0.65079  0.64459  0.16283  1.0000
  H   H1101     1.0  0.91047  0.45726  0.34112  1.0000
  C   C638      1.0  0.57702  0.51944  0.12408  1.0000
  H   H1102     1.0  0.61688  0.63781  0.02238  1.0000
  H   H1103     1.0  0.88035  0.47498  0.33483  1.0000
  Fe  Fe94      1.0  0.82034  0.65754  0.33136  1.0000
  H   H1104     1.0  0.74599  0.57306  0.30195  1.0000
  H   H1105     1.0  0.54560  0.57714  0.18971  1.0000
  H   H1106     1.0  0.50054  0.42061  0.11983  1.0000
  H   H1107     1.0  0.53276  0.53296  0.18909  1.0000
  C   C639      1.0  0.51382  0.42543  0.10363  1.0000
  H   H1108     1.0  0.88082  0.52626  0.43559  1.0000
  C   C640      1.0  0.72585  0.57974  0.35075  1.0000
  H   H1109     1.0  0.59546  0.34393  0.02722  1.0000
  H   H1110     1.0  0.96333  0.36840  0.46354  1.0000
  C   C641      1.0  0.63111  0.62298  0.01500  1.0000
  H   H1111     1.0  0.59142  0.52105  0.18186  1.0000
  C   C642      1.0  0.50597  0.56629  0.15714  1.0000
  H   H1112     1.0  0.70632  0.62613  0.33325  1.0000
  C   C643      1.0  0.78482  0.57629  0.33422  1.0000
  S   S190      1.0  0.94127  0.45769  0.43736  1.0000
  H   H1113     1.0  0.85242  0.52998  0.33933  1.0000
  H   H1114     1.0  0.74696  0.55952  0.38167  1.0000
  C   C644      1.0  0.66989  0.65250  0.15582  1.0000
  N   N45       1.0  0.90451  0.50471  0.37364  1.0000
  H   H1115     1.0  0.85566  0.54175  0.37204  1.0000
  C   C645      1.0  0.73388  0.57670  0.37950  1.0000
  H   H1116     1.0  0.93410  0.49166  0.34463  1.0000
  C   C646      1.0  0.89071  0.52229  0.35483  1.0000
  H   H1117     1.0  0.94377  0.48888  0.37749  1.0000
  H   H1118     1.0  0.70306  0.61364  0.29215  1.0000
  C   C647      1.0  0.89105  0.46351  0.34944  1.0000
  C   C648      1.0  0.59746  0.36152  0.01496  1.0000
  C   C649      1.0  0.72719  0.63763  0.36596  1.0000
  C   C650      1.0  0.58249  0.55657  0.01138  1.0000
  H   H1119     1.0  0.77223  0.60713  0.35990  1.0000
  H   H1120     1.0  0.57191  0.53040  0.21048  1.0000
  H   H1121     1.0  0.59629  0.54702  0.14791  1.0000
  S   S191      1.0  0.98185  0.56411  0.46686  1.0000
  S   S192      1.0  0.50027  0.65529  0.02933  1.0000
  H   H1122     1.0  0.85085  0.50781  0.36546  1.0000
  C   C651      1.0  0.57730  0.54573  0.13822  1.0000
  H   H1123     1.0  0.50148  0.35623  0.20614  1.0000
  S   S193      1.0  0.74155  0.65521  0.27152  1.0000
  H   H1124     1.0  0.87949  0.49308  0.42674  1.0000
  C   C652      1.0  0.53881  0.51234  0.05196  1.0000
  H   H1125     1.0  0.52593  0.51334  0.01312  1.0000
  Fe  Fe95      1.0  0.53765  0.64591  0.00680  1.0000
  H   H1126     1.0  0.70434  0.58350  0.35103  1.0000
  S   S194      1.0  0.56412  0.65403  0.03965  1.0000
  H   H1127     1.0  0.59579  0.55481  0.02722  1.0000
  H   H1128     1.0  0.86153  0.51761  0.40913  1.0000
  H   H1129     1.0  0.67954  0.63703  0.14369  1.0000
  H   H1130     1.0  0.58917  0.37804  0.02662  1.0000
  C   C653      1.0  0.89314  0.47803  0.37553  1.0000
  H   H1131     1.0  0.87989  0.44554  0.35317  1.0000
  S   S195      1.0  0.82972  0.62498  0.36053  1.0000
  C   C654      1.0  0.93266  0.50149  0.36389  1.0000
  H   H1132     1.0  0.92104  0.50858  0.41172  1.0000
  N   N46       1.0  0.55451  0.55118  0.15718  1.0000
  C   C655      1.0  0.53061  0.55648  0.14155  1.0000
  H   H1133     1.0  0.69621  0.58242  0.30709  1.0000
  C   C656      1.0  0.56083  0.57400  0.17384  1.0000
  C   C657      1.0  0.54921  0.52842  0.17495  1.0000
  H   H1134     1.0  0.71616  0.57272  0.39205  1.0000
  C   C658      1.0  0.88000  0.51304  0.41863  1.0000
  C   C659      1.0  0.72725  0.62621  0.33823  1.0000
  C   C660      1.0  0.57199  0.51940  0.19187  1.0000
  H   H1135     1.0  0.69307  0.65271  0.24565  1.0000
  H   H1136     1.0  0.80419  0.57797  0.34304  1.0000
  C   C661      1.0  0.94804  0.52669  0.35975  1.0000
  C   C662      1.0  0.56914  0.58011  0.00719  1.0000
  Fe  Fe96      1.0  0.50658  0.45753  0.17086  1.0000
  H   H1137     1.0  0.94116  0.45755  0.49376  1.0000
  H   H1138     1.0  0.71913  0.65771  0.36523  1.0000
  C   C663      1.0  0.51764  0.51971  0.03256  1.0000
  C   C664      1.0  0.94608  0.43820  0.48705  1.0000
  C   C665      1.0  0.50483  0.56481  0.22910  1.0000
  H   H1139     1.0  0.54622  0.49242  0.04797  1.0000
  H   H1140     1.0  0.55578  0.52519  0.04886  1.0000
  H   H1141     1.0  0.50390  0.48013  0.06596  1.0000
  H   H1142     1.0  0.96907  0.52178  0.35595  1.0000
  H   H1143     1.0  0.68123  0.65552  0.17339  1.0000
  H   H1144     1.0  0.66095  0.64604  0.99692  1.0000
  S   S196      1.0  0.94884  0.54320  0.53621  1.0000
  H   H1145     1.0  0.66410  0.34928  0.80243  1.0000
  C   C666      1.0  0.99313  0.62124  0.64664  1.0000
  C   C667      1.0  0.58288  0.35971  0.98925  1.0000
  Fe  Fe97      1.0  0.58681  0.42212  0.94772  1.0000
  S   S197      1.0  0.54469  0.41050  0.95393  1.0000
  S   S198      1.0  0.62109  0.39739  0.93077  1.0000
  Fe  Fe98      1.0  0.53509  0.45266  0.94768  1.0000
  H   H1146     1.0  0.65907  0.33559  0.60943  1.0000
  N   N47       1.0  0.70367  0.38011  0.82348  1.0000
  S   S199      1.0  0.57684  0.46378  0.93788  1.0000
  C   C668      1.0  0.64643  0.63202  0.99013  1.0000
  C   C669      1.0  0.70837  0.35251  0.83197  1.0000
  H   H1147     1.0  0.94430  0.52969  0.59068  1.0000
  H   H1148     1.0  0.74656  0.38372  0.78384  1.0000
  H   H1149     1.0  0.96174  0.57104  0.61930  1.0000
  H   H1150     1.0  0.70681  0.41347  0.86999  1.0000
  C   C670      1.0  0.95744  0.39331  0.49693  1.0000
  H   H1151     1.0  0.57821  0.64804  0.94542  1.0000
  C   C671      1.0  0.94825  0.33068  0.65053  1.0000
  C   C672      1.0  0.60843  0.35326  0.86642  1.0000
  H   H1152     1.0  0.97527  0.36255  0.68220  1.0000
  C   C673      1.0  0.69077  0.39945  0.86927  1.0000
  H   H1153     1.0  0.73622  0.39913  0.84144  1.0000
  H   H1154     1.0  0.59335  0.35112  0.85241  1.0000
  H   H1155     1.0  0.53584  0.35515  0.96282  1.0000
  C   C674      1.0  0.95621  0.36508  0.73743  1.0000
  C   C675      1.0  0.95437  0.39179  0.73152  1.0000
  N   N48       1.0  0.97217  0.34631  0.64326  1.0000
  H   H1156     1.0  0.96413  0.56316  0.69115  1.0000
  H   H1157     1.0  0.53536  0.56293  0.95430  1.0000
  H   H1158     1.0  0.93872  0.35431  0.74223  1.0000
  H   H1159     1.0  0.93534  0.40127  0.73183  1.0000
  H   H1160     1.0  0.59575  0.62206  0.97996  1.0000
  C   C676      1.0  0.97682  0.40637  0.72540  1.0000
  C   C677      1.0  0.96884  0.35731  0.61614  1.0000
  H   H1161     1.0  0.56197  0.36375  0.99417  1.0000
  C   C678      1.0  0.98065  0.35247  0.73751  1.0000
  H   H1162     1.0  0.65806  0.61497  0.98263  1.0000
  H   H1163     1.0  0.94955  0.42275  0.52592  1.0000
  C   C679      1.0  0.56111  0.53745  0.97504  1.0000
  H   H1164     1.0  0.98048  0.65085  0.61870  1.0000
  C   C680      1.0  0.66580  0.36870  0.79356  1.0000
  H   H1165     1.0  0.69274  0.39968  0.78769  1.0000
  H   H1166     1.0  0.68946  0.34297  0.83684  1.0000
  H   H1167     1.0  0.67677  0.41196  0.83226  1.0000
  C   C681      1.0  0.69335  0.37980  0.79618  1.0000
  C   C682      1.0  0.62419  0.37455  0.90491  1.0000
  C   C683      1.0  0.97414  0.36888  0.66160  1.0000
  C   C684      1.0  0.64849  0.64710  0.94506  1.0000
  H   H1168     1.0  0.73408  0.36513  0.86433  1.0000
  H   H1169     1.0  0.57892  0.61494  0.93662  1.0000
  C   C685      1.0  0.60472  0.37133  0.88689  1.0000
  H   H1170     1.0  0.93040  0.33974  0.64237  1.0000
  S   S200      1.0  0.53676  0.61210  0.97918  1.0000
  H   H1171     1.0  0.58065  0.35456  0.93743  1.0000
  H   H1172     1.0  0.58696  0.38297  0.88849  1.0000
  C   C686      1.0  0.97238  0.53323  0.55837  1.0000
  H   H1173     1.0  0.95292  0.37233  0.61641  1.0000
  H   H1174     1.0  0.55785  0.52104  0.96262  1.0000
  C   C687      1.0  0.55233  0.58252  0.98642  1.0000
  H   H1175     1.0  0.67358  0.40869  0.87973  1.0000
  C   C688      1.0  0.96473  0.52795  0.58449  1.0000
  C   C689      1.0  0.60942  0.62473  0.96273  1.0000
  H   H1176     1.0  0.66541  0.38133  0.84339  1.0000
  H   H1177     1.0  0.94611  0.57643  0.66505  1.0000
  C   C690      1.0  0.57843  0.53517  0.99537  1.0000
  C   C691      1.0  0.54833  0.56115  0.97042  1.0000
  S   S201      1.0  0.59168  0.43081  0.99052  1.0000
  H   H1178     1.0  0.62385  0.35053  0.95862  1.0000
  C   C692      1.0  0.96821  0.59150  0.61928  1.0000
  N   N49       1.0  0.58721  0.33495  0.97409  1.0000
  N   N50       1.0  0.63034  0.64374  0.96877  1.0000
  H   H1179     1.0  0.61832  0.60529  0.95844  1.0000
  H   H1180     1.0  0.71530  0.33713  0.87112  1.0000
  C   C693      1.0  0.54348  0.33910  0.95033  1.0000
  C   C694      1.0  0.75108  0.38421  0.80484  1.0000
  C   C695      1.0  0.98929  0.57564  0.65836  1.0000
  H   H1181     1.0  0.60254  0.63535  0.92136  1.0000
  C   C696      1.0  0.96418  0.57861  0.67600  1.0000
  N   N51       1.0  0.99196  0.59432  0.63567  1.0000
  H   H1182     1.0  0.96357  0.59714  0.68682  1.0000
  S   S202      1.0  0.97316  0.44015  0.71799  1.0000
  C   C697      1.0  0.68323  0.39331  0.84115  1.0000
  C   C698      1.0  0.57355  0.33732  0.94857  1.0000
  H   H1183     1.0  0.76848  0.39654  0.80639  1.0000
  H   H1184     1.0  0.95600  0.38113  0.66133  1.0000
  H   H1185     1.0  0.75688  0.36457  0.81139  1.0000
  H   H1186     1.0  0.66221  0.36134  0.91647  1.0000
  C   C699      1.0  0.72620  0.34776  0.85536  1.0000
  H   H1187     1.0  0.65031  0.38171  0.80221  1.0000
  C   C700      1.0  0.64714  0.35919  0.90246  1.0000
  H   H1188     1.0  0.66179  0.36669  0.77250  1.0000
  H   H1189     1.0  0.53634  0.34290  0.93042  1.0000
  H   H1190     1.0  0.95993  0.34850  0.57602  1.0000
  H   H1191     1.0  0.97726  0.51568  0.62252  1.0000
  H   H1192     1.0  0.72401  0.41558  0.81450  1.0000
  C   C701      1.0  0.72829  0.39576  0.82201  1.0000
  H   H1193     1.0  0.97418  0.62672  0.65674  1.0000
  H   H1194     1.0  0.70651  0.36819  0.78269  1.0000
  S   S203      1.0  0.53653  0.46297  0.98981  1.0000
  H   H1195     1.0  0.63843  0.65586  0.92837  1.0000
  H   H1196     1.0  0.71710  0.34093  0.81539  1.0000
  H   H1197     1.0  0.99135  0.46690  0.57770  1.0000
  H   H1198     1.0  0.97825  0.61888  0.58698  1.0000
  C   C702      1.0  0.98333  0.52006  0.60251  1.0000
  H   H1199     1.0  0.60672  0.33111  0.61789  1.0000
  C   C703      1.0  0.61626  0.33244  0.96771  1.0000
  C   C704      1.0  0.95088  0.41847  0.50525  1.0000
  C   C705      1.0  0.59165  0.63166  0.94009  1.0000
  Fe  Fe99      1.0  0.57853  0.47120  0.98102  1.0000
  H   H1200     1.0  0.98397  0.58511  0.57901  1.0000
  S   S204      1.0  0.96537  0.37008  0.52090  1.0000
  H   H1201     1.0  0.95125  0.60282  0.62782  1.0000
  H   H1202     1.0  0.69531  0.38177  0.88054  1.0000
  C   C706      1.0  0.63153  0.33815  0.86375  1.0000
  C   C707      1.0  0.97107  0.59906  0.59010  1.0000
  C   C708      1.0  0.65078  0.34103  0.88208  1.0000
  H   H1203     1.0  0.68758  0.65277  0.96044  1.0000
  H   H1204     1.0  0.99192  0.40042  0.56997  1.0000
  S   S205      1.0  0.98943  0.50976  0.68600  1.0000
  H   H1205     1.0  0.97209  0.44194  0.56309  1.0000
  Fe  Fe100     1.0  0.54918  0.42206  0.99578  1.0000
  H   H1206     1.0  0.98688  0.36708  0.60880  1.0000
  H   H1207     1.0  0.95162  0.59808  0.58127  1.0000
  H   H1208     1.0  0.65567  0.62788  0.93772  1.0000
  H   H1209     1.0  0.93393  0.34498  0.68913  1.0000
  H   H1210     1.0  0.98624  0.45540  0.51922  1.0000
  H   H1211     1.0  0.69319  0.32982  0.60360  1.0000
  H   H1212     1.0  0.74315  0.33516  0.84913  1.0000
  H   H1213     1.0  0.96501  0.47510  0.55758  1.0000
  H   H1214     1.0  0.99022  0.55533  0.65114  1.0000
  C   C709      1.0  0.96263  0.33780  0.59462  1.0000
  C   C710      1.0  0.98134  0.46095  0.56002  1.0000
  H   H1215     1.0  0.58906  0.37647  0.97691  1.0000
  S   S206      1.0  0.49933  0.46961  0.92910  1.0000
  H   H1216     1.0  0.62728  0.32975  0.98586  1.0000
  H   H1217     1.0  0.67634  0.93669  0.21106  1.0000
  S   S207      1.0  0.85389  0.70308  0.24648  1.0000
  Fe  Fe101     1.0  0.79662  0.71237  0.32696  1.0000
  Fe  Fe102     1.0  0.56505  0.69492  0.02468  1.0000
  S   S208      1.0  0.78018  0.74860  0.34628  1.0000
  S   S209      1.0  0.97289  0.75146  0.03631  1.0000
  C   C711      1.0  0.49930  0.73927  0.16956  1.0000
  S   S210      1.0  0.83806  0.69690  0.32437  1.0000
  S   S211      1.0  0.79002  0.70861  0.28438  1.0000
  Fe  Fe103     1.0  0.59747  0.70083  0.27025  1.0000
  S   S212      1.0  0.55517  0.69907  0.28426  1.0000
  C   C712      1.0  0.64315  0.98453  0.20061  1.0000
  Fe  Fe104     1.0  0.58361  0.70803  0.21438  1.0000
  S   S213      1.0  0.54057  0.70817  0.22431  1.0000
  H   H1218     1.0  0.63342  0.82402  0.25821  1.0000
  Fe  Fe105     1.0  0.54970  0.73376  0.25799  1.0000
  C   C713      1.0  0.75778  0.83045  0.01291  1.0000
  S   S214      1.0  0.59204  0.73639  0.24569  1.0000
  Fe  Fe106     1.0  0.82975  0.69008  0.28189  1.0000
  S   S215      1.0  0.52880  0.70865  0.04763  1.0000
  C   C714      1.0  0.51236  0.97947  0.46423  1.0000
  H   H1219     1.0  0.99219  0.89556  0.05416  1.0000
  C   C715      1.0  0.57832  0.95510  0.39496  1.0000
  Fe  Fe107     1.0  0.78822  0.72747  0.11080  1.0000
  S   S216      1.0  0.79275  0.70813  0.07147  1.0000
  S   S217      1.0  0.78247  0.70460  0.14830  1.0000
  Fe  Fe108     1.0  0.77406  0.77885  0.08619  1.0000
  S   S218      1.0  0.77596  0.76276  0.04554  1.0000
  S   S219      1.0  0.76398  0.82055  0.09420  1.0000
  Fe  Fe109     1.0  0.75463  0.72850  0.06269  1.0000
  S   S220      1.0  0.72136  0.70291  0.04938  1.0000
  Fe  Fe110     1.0  0.81394  0.74437  0.05819  1.0000
  S   S221      1.0  0.84793  0.75212  0.02834  1.0000
  S   S222      1.0  0.74984  0.74657  0.10228  1.0000
  S   S223      1.0  0.81217  0.76194  0.09855  1.0000
  Fe  Fe111     1.0  0.81792  0.93124  0.01706  1.0000
  S   S224      1.0  0.77723  0.94807  0.01964  1.0000
  Fe  Fe112     1.0  0.84316  0.98282  0.02493  1.0000
  H   H1220     1.0  0.63331  0.93245  0.19989  1.0000
  S   S225      1.0  0.83228  0.95050  0.05267  1.0000
  Fe  Fe113     1.0  0.55239  0.96708  0.31978  1.0000
  S   S226      1.0  0.53754  0.96332  0.27939  1.0000
  S   S227      1.0  0.59402  0.97545  0.32832  1.0000
  S   S228      1.0  0.53602  0.93011  0.33555  1.0000
  Fe  Fe114     1.0  0.74520  0.93093  0.31046  1.0000
  S   S229      1.0  0.73000  0.89044  0.30894  1.0000
  S   S230      1.0  0.74596  0.95605  0.34745  1.0000
  Fe  Fe115     1.0  0.75641  0.93292  0.24938  1.0000
  S   S231      1.0  0.74086  0.89315  0.24435  1.0000
  S   S232      1.0  0.77731  0.95467  0.21553  1.0000
  Fe  Fe116     1.0  0.70934  0.90501  0.27384  1.0000
  S   S233      1.0  0.66750  0.89432  0.26900  1.0000
  Fe  Fe117     1.0  0.76319  0.88246  0.27970  1.0000
  S   S234      1.0  0.79049  0.84799  0.27450  1.0000
  S   S235      1.0  0.72277  0.94604  0.27631  1.0000
  S   S236      1.0  0.78051  0.92170  0.28381  1.0000
  C   C716      1.0  0.61410  0.95119  0.31406  1.0000
  C   C717      1.0  0.64110  0.95144  0.31726  1.0000
  C   C718      1.0  0.65743  0.93292  0.30469  1.0000
  C   C719      1.0  0.64689  0.91459  0.28829  1.0000
  C   C720      1.0  0.61980  0.91379  0.28582  1.0000
  C   C721      1.0  0.60341  0.93197  0.29882  1.0000
  H   H1221     1.0  0.64946  0.96621  0.32907  1.0000
  H   H1222     1.0  0.67822  0.93320  0.30735  1.0000
  H   H1223     1.0  0.61149  0.89975  0.27308  1.0000
  H   H1224     1.0  0.58257  0.93151  0.29633  1.0000
  H   H1225     1.0  0.67881  0.70917  0.32310  1.0000
  C   C722      1.0  0.74863  0.95029  0.14183  1.0000
  C   C723      1.0  0.75098  0.94778  0.16919  1.0000
  C   C724      1.0  0.77360  0.95595  0.18095  1.0000
  C   C725      1.0  0.79398  0.96607  0.16485  1.0000
  C   C726      1.0  0.79191  0.96795  0.13742  1.0000
  H   H1226     1.0  0.73083  0.94440  0.13304  1.0000
  H   H1227     1.0  0.73518  0.93978  0.18113  1.0000
  H   H1228     1.0  0.74204  0.99156  0.39053  1.0000
  C   C727      1.0  0.78346  0.84026  0.07369  1.0000
  C   C728      1.0  0.77714  0.86656  0.07104  1.0000
  C   C729      1.0  0.79173  0.88205  0.05345  1.0000
  C   C730      1.0  0.81239  0.87117  0.03817  1.0000
  C   C731      1.0  0.81948  0.84519  0.04180  1.0000
  C   C732      1.0  0.80509  0.82977  0.05960  1.0000
  H   H1229     1.0  0.76046  0.87481  0.08191  1.0000
  H   H1230     1.0  0.78628  0.90215  0.05102  1.0000
  H   H1231     1.0  0.64712  0.98312  0.44770  1.0000
  H   H1232     1.0  0.81042  0.80959  0.06187  1.0000
  H   H1233     1.0  0.59870  0.83246  0.25811  1.0000
  C   C733      1.0  0.73511  0.95182  0.38089  1.0000
  C   C734      1.0  0.72667  0.92804  0.39099  1.0000
  C   C735      1.0  0.71916  0.92558  0.41781  1.0000
  H   H1234     1.0  0.64470  0.75494  0.02279  1.0000
  H   H1235     1.0  0.72612  0.91149  0.37821  1.0000
  C   C736      1.0  0.63397  0.71588  0.03254  1.0000
  C   C737      1.0  0.64316  0.69210  0.04193  1.0000
  C   C738      1.0  0.66985  0.68862  0.04732  1.0000
  C   C739      1.0  0.68753  0.70909  0.04437  1.0000
  C   C740      1.0  0.67810  0.73319  0.03612  1.0000
  Fe  Fe118     1.0  0.51954  0.92653  0.29550  1.0000
  C   C741      1.0  0.71096  0.67031  0.27839  1.0000
  H   H1236     1.0  0.69140  0.74909  0.03363  1.0000
  H   H1237     1.0  0.80691  0.67627  0.23494  1.0000
  C   C742      1.0  0.54259  0.81498  0.25298  1.0000
  C   C743      1.0  0.54321  0.84228  0.25223  1.0000
  H   H1238     1.0  0.55312  0.80376  0.23807  1.0000
  C   C744      1.0  0.72895  0.83326  0.02245  1.0000
  S   S237      1.0  0.82761  0.88898  0.01272  1.0000
  H   H1239     1.0  0.78582  0.90628  0.37679  1.0000
  C   C745      1.0  0.50633  0.78332  0.15111  1.0000
  Fe  Fe119     1.0  0.77580  0.66917  0.29380  1.0000
  C   C746      1.0  0.51520  0.84475  0.29129  1.0000
  C   C747      1.0  0.69004  0.66525  0.26241  1.0000
  H   H1240     1.0  0.72332  0.70853  0.14761  1.0000
  H   H1241     1.0  0.52686  0.93995  0.46595  1.0000
  H   H1242     1.0  0.80768  0.97598  0.12543  1.0000
  Fe  Fe120     1.0  0.50505  0.69563  0.01396  1.0000
  H   H1243     1.0  0.66110  0.95662  0.17201  1.0000
  C   C748      1.0  0.93804  0.75382  0.03497  1.0000
  C   C749      1.0  0.92250  0.73953  0.05301  1.0000
  C   C750      1.0  0.89493  0.73966  0.05199  1.0000
  C   C751      1.0  0.88244  0.75362  0.03244  1.0000
  C   C752      1.0  0.89798  0.76798  0.01441  1.0000
  C   C753      1.0  0.92552  0.76841  0.01588  1.0000
  H   H1244     1.0  0.88339  0.72836  0.06589  1.0000
  N   N52       1.0  0.51599  0.76302  0.16988  1.0000
  H   H1245     1.0  0.56732  0.78122  0.18793  1.0000
  C   C754      1.0  0.78207  0.77572  0.32553  1.0000
  C   C755      1.0  0.76406  0.79632  0.32897  1.0000
  C   C756      1.0  0.76603  0.81849  0.31305  1.0000
  C   C757      1.0  0.78644  0.82031  0.29413  1.0000
  C   C758      1.0  0.80441  0.79973  0.29076  1.0000
  C   C759      1.0  0.80207  0.77737  0.30621  1.0000
  H   H1246     1.0  0.74855  0.79504  0.34391  1.0000
  H   H1247     1.0  0.75199  0.83422  0.31565  1.0000
  H   H1248     1.0  0.82038  0.80114  0.27634  1.0000
  H   H1249     1.0  0.81618  0.76165  0.30363  1.0000
  C   C760      1.0  0.83571  0.70188  0.21800  1.0000
  C   C761      1.0  0.84323  0.71629  0.19568  1.0000
  C   C762      1.0  0.82739  0.71706  0.17376  1.0000
  C   C763      1.0  0.80426  0.70303  0.17405  1.0000
  H   H1250     1.0  0.86098  0.72732  0.19560  1.0000
  H   H1251     1.0  0.83297  0.72858  0.15681  1.0000
  H   H1252     1.0  0.67245  0.93805  0.37403  1.0000
  C   C764      1.0  0.72769  0.97069  0.42474  1.0000
  C   C765      1.0  0.51405  0.77392  0.19732  1.0000
  N   N53       1.0  0.64603  0.96523  0.22243  1.0000
  H   H1253     1.0  0.67594  0.97368  0.40281  1.0000
  H   H1254     1.0  0.59366  0.93230  0.42632  1.0000
  C   C766      1.0  0.66090  0.69176  0.29024  1.0000
  S   S238      1.0  0.70980  0.94253  0.46862  1.0000
  H   H1255     1.0  0.93261  0.93218  0.05827  1.0000
  H   H1256     1.0  0.99055  0.95364  0.09540  1.0000
  C   C767      1.0  0.65157  0.73644  0.02996  1.0000
  H   H1257     1.0  0.65404  0.95689  0.46914  1.0000
  N   N54       1.0  0.60894  0.80369  0.30644  1.0000
  C   C768      1.0  0.60364  0.77995  0.32308  1.0000
  C   C769      1.0  0.63653  0.81171  0.31125  1.0000
  C   C770      1.0  0.60720  0.79575  0.27825  1.0000
  C   C771      1.0  0.58865  0.82432  0.31364  1.0000
  C   C772      1.0  0.57722  0.76675  0.31946  1.0000
  C   C773      1.0  0.64199  0.81858  0.33981  1.0000
  C   C774      1.0  0.59570  0.85273  0.30728  1.0000
  H   H1258     1.0  0.61926  0.76486  0.31949  1.0000
  H   H1259     1.0  0.60395  0.78466  0.34426  1.0000
  H   H1260     1.0  0.64260  0.82852  0.29916  1.0000
  H   H1261     1.0  0.65068  0.79600  0.30514  1.0000
  H   H1262     1.0  0.62050  0.77884  0.27395  1.0000
  H   H1263     1.0  0.58716  0.78929  0.27429  1.0000
  H   H1264     1.0  0.56996  0.82035  0.30418  1.0000
  H   H1265     1.0  0.58381  0.82370  0.33507  1.0000
  H   H1266     1.0  0.57424  0.75188  0.33499  1.0000
  H   H1267     1.0  0.56035  0.78046  0.32106  1.0000
  H   H1268     1.0  0.57706  0.75626  0.30063  1.0000
  H   H1269     1.0  0.62698  0.83195  0.34862  1.0000
  H   H1270     1.0  0.64354  0.80094  0.35212  1.0000
  H   H1271     1.0  0.66115  0.82831  0.34029  1.0000
  H   H1272     1.0  0.57821  0.86299  0.29988  1.0000
  H   H1273     1.0  0.61154  0.85546  0.29231  1.0000
  H   H1274     1.0  0.60049  0.86320  0.32533  1.0000
  H   H1275     1.0  0.56505  0.99528  0.49013  1.0000
  H   H1276     1.0  0.93185  0.91856  0.99997  1.0000
  H   H1277     1.0  0.68956  0.70515  0.10033  1.0000
  H   H1278     1.0  0.49937  0.88106  0.43214  1.0000
  C   C775      1.0  0.64263  0.94422  0.43087  1.0000
  H   H1279     1.0  0.63488  0.96278  0.26352  1.0000
  S   S239      1.0  0.60135  0.72052  0.02208  1.0000
  C   C776      1.0  0.59843  0.95097  0.41639  1.0000
  H   H1280     1.0  0.55825  0.95422  0.40405  1.0000
  C   C777      1.0  0.72372  0.67530  0.12247  1.0000
  C   C778      1.0  0.67389  0.71605  0.16501  1.0000
  C   C779      1.0  0.56108  0.67747  0.16427  1.0000
  C   C780      1.0  0.53347  0.95944  0.47159  1.0000
  H   H1281     1.0  0.95836  0.89520  0.06308  1.0000
  C   C781      1.0  0.63286  0.97797  0.39689  1.0000
  C   C782      1.0  0.65934  0.92206  0.37953  1.0000
  H   H1282     1.0  0.62417  0.99323  0.41004  1.0000
  S   S240      1.0  0.59926  0.71235  0.17300  1.0000
  C   C783      1.0  0.49932  0.72403  0.14377  1.0000
  H   H1283     1.0  0.78281  0.81915  0.37949  1.0000
  H   H1284     1.0  0.62091  0.96458  0.46334  1.0000
  C   C784      1.0  0.90528  0.99550  0.06265  1.0000
  C   C785      1.0  0.76904  0.96039  0.12572  1.0000
  H   H1285     1.0  0.95738  0.94643  0.08976  1.0000
  C   C786      1.0  0.64753  0.97356  0.17270  1.0000
  H   H1286     1.0  0.54775  0.74690  0.14466  1.0000
  H   H1287     1.0  0.64404  0.68319  0.14302  1.0000
  H   H1288     1.0  0.62297  0.98133  0.37816  1.0000
  C   C787      1.0  0.64072  0.96356  0.45379  1.0000
  N   N55       1.0  0.76358  0.76721  0.22342  1.0000
  C   C788      1.0  0.74212  0.75015  0.23455  1.0000
  C   C789      1.0  0.75867  0.79405  0.23414  1.0000
  C   C790      1.0  0.78901  0.75693  0.23354  1.0000
  C   C791      1.0  0.76377  0.76618  0.19386  1.0000
  C   C792      1.0  0.74392  0.72131  0.22679  1.0000
  C   C793      1.0  0.73145  0.80604  0.22934  1.0000
  C   C794      1.0  0.81401  0.77114  0.22474  1.0000
  C   C795      1.0  0.77402  0.79007  0.17866  1.0000
  H   H1289     1.0  0.74117  0.75100  0.25638  1.0000
  H   H1290     1.0  0.72267  0.75699  0.22818  1.0000
  H   H1291     1.0  0.77342  0.80787  0.22641  1.0000
  H   H1292     1.0  0.76086  0.79406  0.25572  1.0000
  H   H1293     1.0  0.78814  0.75676  0.25533  1.0000
  H   H1294     1.0  0.79260  0.73662  0.22749  1.0000
  H   H1295     1.0  0.77551  0.74918  0.18657  1.0000
  H   H1296     1.0  0.74376  0.76301  0.18686  1.0000
  H   H1297     1.0  0.75976  0.71086  0.23677  1.0000
  H   H1298     1.0  0.72552  0.71171  0.23335  1.0000
  H   H1299     1.0  0.74643  0.71851  0.20535  1.0000
  H   H1300     1.0  0.71665  0.79861  0.24385  1.0000
  H   H1301     1.0  0.73210  0.82732  0.23215  1.0000
  H   H1302     1.0  0.72490  0.80231  0.20936  1.0000
  H   H1303     1.0  0.81308  0.79209  0.22898  1.0000
  H   H1304     1.0  0.81907  0.76755  0.20378  1.0000
  H   H1305     1.0  0.83056  0.76293  0.23572  1.0000
  H   H1306     1.0  0.76027  0.80677  0.18070  1.0000
  H   H1307     1.0  0.77569  0.78533  0.15745  1.0000
  H   H1308     1.0  0.79355  0.79607  0.18439  1.0000
  C   C796      1.0  0.68192  0.69702  0.30605  1.0000
  C   C797      1.0  0.54328  0.66511  0.14866  1.0000
  H   H1309     1.0  0.69507  0.73293  0.11939  1.0000
  H   H1310     1.0  0.88663  0.98902  0.07071  1.0000
  H   H1311     1.0  0.88860  0.77890  0.99924  1.0000
  C   C798      1.0  0.51607  0.78097  0.12211  1.0000
  C   C799      1.0  0.70695  0.68650  0.30004  1.0000
  Fe  Fe121     1.0  0.54992  0.67334  0.24913  1.0000
  S   S241      1.0  0.62960  0.70456  0.29892  1.0000
  H   H1312     1.0  0.72018  0.81401  0.02599  1.0000
  H   H1313     1.0  0.62279  0.93807  0.36773  1.0000
  C   C800      1.0  0.63102  0.93114  0.38633  1.0000
  S   S242      1.0  0.53047  0.89184  0.26868  1.0000
  H   H1314     1.0  0.81402  0.82597  0.34038  1.0000
  H   H1315     1.0  0.64638  0.74069  0.12472  1.0000
  H   H1316     1.0  0.59389  0.96628  0.43110  1.0000
  C   C801      1.0  0.62843  0.94251  0.21868  1.0000
  C   C802      1.0  0.67356  0.95418  0.22360  1.0000
  H   H1317     1.0  0.52483  0.79235  0.19841  1.0000
  H   H1318     1.0  0.64088  0.71085  0.10734  1.0000
  S   S243      1.0  0.51864  0.99192  0.33388  1.0000
  C   C803      1.0  0.57983  0.69892  0.12597  1.0000
  N   N56       1.0  0.62696  0.95131  0.40743  1.0000
  H   H1319     1.0  0.67689  0.66990  0.05372  1.0000
  H   H1320     1.0  0.62014  0.91328  0.39172  1.0000
  H   H1321     1.0  0.61829  0.98771  0.24673  1.0000
  H   H1322     1.0  0.55850  0.79482  0.15666  1.0000
  H   H1323     1.0  0.69188  0.69469  0.19775  1.0000
  H   H1324     1.0  0.50516  0.72542  0.18507  1.0000
  H   H1325     1.0  0.66373  0.94167  0.42576  1.0000
  S   S244      1.0  0.76433  0.96419  0.09148  1.0000
  C   C804      1.0  0.56228  0.68623  0.11028  1.0000
  C   C805      1.0  0.56424  0.77691  0.16705  1.0000
  H   H1326     1.0  0.98625  0.87653  0.01199  1.0000
  H   H1327     1.0  0.78845  0.86271  0.33539  1.0000
  H   H1328     1.0  0.68659  0.73325  0.16620  1.0000
  H   H1329     1.0  0.97064  0.67820  0.04647  1.0000
  C   C806      1.0  0.66477  0.67689  0.13899  1.0000
  C   C807      1.0  0.71098  0.69122  0.14521  1.0000
  H   H1330     1.0  0.74199  0.66586  0.12909  1.0000
  H   H1331     1.0  0.55428  0.85183  0.23665  1.0000
  Fe  Fe122     1.0  0.79194  0.96863  0.05501  1.0000
  C   C808      1.0  0.98034  0.95685  0.99766  1.0000
  H   H1332     1.0  0.58346  0.77019  0.15843  1.0000
  C   C809      1.0  0.98441  0.94366  0.05495  1.0000
  H   H1333     1.0  0.59352  0.71240  0.11718  1.0000
  H   H1334     1.0  0.58005  0.97438  0.38557  1.0000
  C   C810      1.0  0.65484  0.72657  0.11037  1.0000
  H   H1335     1.0  0.65728  0.68841  0.19371  1.0000
  H   H1336     1.0  0.69716  0.97537  0.19366  1.0000
  H   H1337     1.0  0.50115  0.90999  0.39297  1.0000
  H   H1338     1.0  0.93952  0.95677  0.03589  1.0000
  H   H1339     1.0  0.52347  0.76059  0.21143  1.0000
  N   N57       1.0  0.81810  0.85989  0.36447  1.0000
  C   C811      1.0  0.79176  0.86913  0.35570  1.0000
  C   C812      1.0  0.82022  0.83105  0.36023  1.0000
  C   C813      1.0  0.83996  0.87270  0.34896  1.0000
  C   C814      1.0  0.82035  0.86671  0.39288  1.0000
  C   C815      1.0  0.78668  0.89860  0.35657  1.0000
  C   C816      1.0  0.80397  0.81425  0.37961  1.0000
  C   C817      1.0  0.83895  0.87040  0.31895  1.0000
  C   C818      1.0  0.84584  0.85767  0.40562  1.0000
  H   H1340     1.0  0.80094  0.90954  0.34420  1.0000
  H   H1341     1.0  0.77575  0.86029  0.36788  1.0000
  H   H1342     1.0  0.84084  0.82392  0.36044  1.0000
  H   H1343     1.0  0.98118  0.96442  0.05038  1.0000
  H   H1344     1.0  0.84091  0.89361  0.35379  1.0000
  H   H1345     1.0  0.85924  0.86442  0.35438  1.0000
  H   H1346     1.0  0.81954  0.88804  0.39550  1.0000
  H   H1347     1.0  0.80322  0.85998  0.40505  1.0000
  H   H1348     1.0  0.67710  0.94678  0.24364  1.0000
  H   H1349     1.0  0.76721  0.90278  0.34870  1.0000
  H   H1350     1.0  0.80622  0.79367  0.37366  1.0000
  H   H1351     1.0  0.81090  0.81542  0.39981  1.0000
  H   H1352     1.0  0.66735  0.98219  0.37014  1.0000
  H   H1353     1.0  0.82187  0.88099  0.31122  1.0000
  H   H1354     1.0  0.83883  0.85001  0.31241  1.0000
  H   H1355     1.0  0.85666  0.87929  0.30972  1.0000
  H   H1356     1.0  0.86097  0.87276  0.40359  1.0000
  H   H1357     1.0  0.85417  0.83944  0.39743  1.0000
  H   H1358     1.0  0.84169  0.85373  0.42675  1.0000
  N   N58       1.0  0.80842  0.87716  0.15012  1.0000
  C   C819      1.0  0.77991  0.88323  0.14630  1.0000
  C   C820      1.0  0.82407  0.90046  0.14197  1.0000
  C   C821      1.0  0.81333  0.87104  0.17838  1.0000
  C   C822      1.0  0.81629  0.85396  0.13372  1.0000
  C   C823      1.0  0.76036  0.86309  0.15711  1.0000
  C   C824      1.0  0.82323  0.90822  0.11280  1.0000
  C   C825      1.0  0.80366  0.89163  0.19847  1.0000
  C   C826      1.0  0.84568  0.84676  0.13234  1.0000
  H   H1359     1.0  0.77422  0.90221  0.15500  1.0000
  H   H1360     1.0  0.77608  0.88538  0.12516  1.0000
  H   H1361     1.0  0.84493  0.89790  0.14689  1.0000
  H   H1362     1.0  0.81705  0.91778  0.15314  1.0000
  H   H1363     1.0  0.80456  0.85227  0.18432  1.0000
  H   H1364     1.0  0.83462  0.86850  0.18132  1.0000
  H   H1365     1.0  0.80591  0.83642  0.14086  1.0000
  H   H1366     1.0  0.81031  0.85675  0.11332  1.0000
  H   H1367     1.0  0.74026  0.86986  0.15284  1.0000
  H   H1368     1.0  0.76331  0.84413  0.14738  1.0000
  H   H1369     1.0  0.76096  0.86074  0.17862  1.0000
  H   H1370     1.0  0.80326  0.91408  0.10720  1.0000
  H   H1371     1.0  0.83564  0.92539  0.10936  1.0000
  H   H1372     1.0  0.83102  0.89287  0.09945  1.0000
  H   H1373     1.0  0.81459  0.90986  0.19615  1.0000
  H   H1374     1.0  0.80709  0.88432  0.21854  1.0000
  H   H1375     1.0  0.78244  0.89594  0.19772  1.0000
  H   H1376     1.0  0.85758  0.86206  0.12274  1.0000
  H   H1377     1.0  0.84862  0.82911  0.12017  1.0000
  H   H1378     1.0  0.85326  0.84220  0.15184  1.0000
  H   H1379     1.0  0.83570  0.83678  0.03033  1.0000
  H   H1380     1.0  0.64903  0.67192  0.25592  1.0000
  C   C827      1.0  0.98219  0.92959  0.00987  1.0000
  C   C828      1.0  0.66185  0.98470  0.39122  1.0000
  H   H1381     1.0  0.93182  0.72817  0.06790  1.0000
  C   C829      1.0  0.94141  0.93549  0.03833  1.0000
  N   N59       1.0  0.68279  0.69937  0.14210  1.0000
  C   C830      1.0  0.81281  0.68759  0.21796  1.0000
  H   H1382     1.0  0.65378  0.72375  0.16252  1.0000
  C   C831      1.0  0.97786  0.94059  0.08455  1.0000
  C   C832      1.0  0.52778  0.80236  0.27261  1.0000
  C   C833      1.0  0.79725  0.68809  0.19605  1.0000
  H   H1383     1.0  0.53238  0.79439  0.11776  1.0000
  H   H1384     1.0  0.51154  0.97792  0.44262  1.0000
  C   C834      1.0  0.71962  0.94685  0.43492  1.0000
  C   C835      1.0  0.63764  0.97771  0.24810  1.0000
  C   C836      1.0  0.52951  0.85741  0.27133  1.0000
  C   C837      1.0  0.68202  0.71606  0.11779  1.0000
  H   H1385     1.0  0.71298  0.90703  0.42540  1.0000
  C   C838      1.0  0.61338  0.81646  0.25730  1.0000
  C   C839      1.0  0.73551  0.97306  0.39800  1.0000
  H   H1386     1.0  0.61206  0.80754  0.23769  1.0000
  H   H1387     1.0  0.54993  0.73940  0.17785  1.0000
  H   H1388     1.0  0.71379  0.67988  0.16329  1.0000
  H   H1389     1.0  0.72300  0.69060  0.31241  1.0000
  H   H1390     1.0  0.51913  0.71794  0.13657  1.0000
  N   N60       1.0  0.96965  0.92665  0.03693  1.0000
  H   H1391     1.0  0.65697  0.73709  0.09144  1.0000
  C   C840      1.0  0.97243  0.89905  0.04638  1.0000
  H   H1392     1.0  0.98197  0.92078  0.09182  1.0000
  C   C841      1.0  0.54422  0.75525  0.16439  1.0000
  H   H1393     1.0  0.59143  0.95434  0.23949  1.0000
  H   H1394     1.0  0.63190  0.92750  0.23391  1.0000
  H   H1395     1.0  0.63674  0.92496  0.43871  1.0000
  H   H1396     1.0  0.71680  0.84488  0.00930  1.0000
  H   H1397     1.0  0.51230  0.80285  0.15748  1.0000
  H   H1398     1.0  0.72800  0.84403  0.04125  1.0000
  S   S245      1.0  0.52458  0.76805  0.27355  1.0000
  C   C842      1.0  0.57905  0.69474  0.15303  1.0000
  H   H1399     1.0  0.72966  0.68798  0.10578  1.0000
  H   H1400     1.0  0.66731  0.71794  0.20716  1.0000
  C   C843      1.0  0.96926  0.87737  0.02622  1.0000
  C   C844      1.0  0.51410  0.81746  0.29170  1.0000
  H   H1401     1.0  0.76841  0.84691  0.02079  1.0000
  H   H1402     1.0  0.62868  0.96781  0.16464  1.0000
  H   H1403     1.0  0.58827  0.93041  0.21513  1.0000
  H   H1404     1.0  0.59312  0.96309  0.20499  1.0000
  H   H1405     1.0  0.76559  0.81363  0.02380  1.0000
  H   H1406     1.0  0.77946  0.67708  0.19637  1.0000
  H   H1407     1.0  0.55214  0.96273  0.46048  1.0000
  H   H1408     1.0  0.66762  0.91048  0.39562  1.0000
  C   C845      1.0  0.59872  0.94840  0.21963  1.0000
  H   H1409     1.0  0.65928  0.90913  0.36224  1.0000
  H   H1410     1.0  0.57967  0.93983  0.37980  1.0000
  H   H1411     1.0  0.62983  0.67625  0.04445  1.0000
  H   H1412     1.0  0.56284  0.68972  0.08943  1.0000
  H   H1413     1.0  0.72824  0.98725  0.43752  1.0000
  H   H1414     1.0  0.81152  0.97263  0.17368  1.0000
  S   S246      1.0  0.77922  0.67398  0.33702  1.0000
  H   H1415     1.0  0.52194  0.76135  0.11551  1.0000
  H   H1416     1.0  0.97964  0.70330  0.06768  1.0000
  C   C846      1.0  0.67283  0.70308  0.19221  1.0000
  H   H1417     1.0  0.93703  0.77980  0.00209  1.0000
  C   C847      1.0  0.69629  0.97209  0.21511  1.0000
  H   H1418     1.0  0.69565  0.99100  0.22504  1.0000
  H   H1419     1.0  0.66577  0.67026  0.11825  1.0000
  H   H1420     1.0  0.50440  0.85600  0.30604  1.0000
  Fe  Fe123     1.0  0.50166  0.98525  0.29488  1.0000
  H   H1421     1.0  0.71512  0.96256  0.21991  1.0000
  H   H1422     1.0  0.67453  0.98845  0.26542  1.0000
  H   H1423     1.0  0.50240  0.80799  0.30689  1.0000
  H   H1424     1.0  0.96915  0.85846  0.03663  1.0000
  C   C848      1.0  0.66510  0.67610  0.26819  1.0000
  H   H1425     1.0  0.99128  0.97121  0.00860  1.0000
  H   H1426     1.0  0.50011  0.78742  0.10937  1.0000
  H   H1427     1.0  0.56075  0.67360  0.18503  1.0000
  C   C849      1.0  0.54374  0.66958  0.12168  1.0000
  H   H1428     1.0  0.92478  0.99197  0.09921  1.0000
  H   H1429     1.0  0.65670  0.98840  0.15969  1.0000
  C   C850      1.0  0.98697  0.68527  0.05801  1.0000
  H   H1430     1.0  0.53670  0.95846  0.49283  1.0000
  Fe  Fe124     1.0  0.50033  0.95450  0.34614  1.0000
  H   H1431     1.0  0.99121  0.67051  0.07306  1.0000
  H   H1432     1.0  0.80506  0.80028  0.01106  1.0000
  S   S247      1.0  0.59289  0.67246  0.23749  1.0000
  H   H1433     1.0  0.62339  0.99387  0.20168  1.0000
  Fe  Fe125     1.0  0.52694  0.66716  0.06070  1.0000
  H   H1434     1.0  0.95088  0.87903  0.01575  1.0000
  C   C851      1.0  0.92281  0.92274  0.01949  1.0000
  H   H1435     1.0  0.91454  0.90478  0.02816  1.0000
  H   H1436     1.0  0.90639  0.93645  0.01570  1.0000
  H   H1437     1.0  0.75719  0.88160  0.99720  1.0000
  S   S248      1.0  0.53136  0.93423  0.58296  1.0000
  C   C852      1.0  0.58014  0.94600  0.56222  1.0000
  H   H1438     1.0  0.96620  0.88760  0.72516  1.0000
  N   N61       1.0  0.76356  0.82744  0.98398  1.0000
  H   H1439     1.0  0.83835  0.94691  0.92877  1.0000
  H   H1440     1.0  0.97736  0.78672  0.90366  1.0000
  C   C853      1.0  0.59903  0.96276  0.55125  1.0000
  H   H1441     1.0  0.95968  0.72979  0.86954  1.0000
  S   S249      1.0  0.67853  0.96306  0.53771  1.0000
  H   H1442     1.0  0.61896  0.95598  0.54769  1.0000
  H   H1443     1.0  0.90141  0.72873  0.94384  1.0000
  S   S250      1.0  0.72110  0.97395  0.60143  1.0000
  S   S251      1.0  0.76563  0.99637  0.83635  1.0000
  H   H1444     1.0  0.98007  0.91573  0.75455  1.0000
  H   H1445     1.0  0.93083  0.96476  0.77236  1.0000
  C   C854      1.0  0.95839  0.77908  0.91150  1.0000
  H   H1446     1.0  0.66771  0.68200  0.95965  1.0000
  C   C855      1.0  0.93801  0.92513  0.80828  1.0000
  C   C856      1.0  0.61070  0.68918  0.95759  1.0000
  H   H1447     1.0  0.67455  0.93029  0.62429  1.0000
  H   H1448     1.0  0.76445  0.79581  0.95626  1.0000
  C   C857      1.0  0.92964  0.90944  0.73542  1.0000
  C   C858      1.0  0.91198  0.96317  0.73546  1.0000
  H   H1449     1.0  0.90272  0.94519  0.77187  1.0000
  H   H1450     1.0  0.77753  0.95879  0.87590  1.0000
  H   H1451     1.0  0.78185  0.96115  0.92416  1.0000
  C   C859      1.0  0.91415  0.74553  0.93963  1.0000
  H   H1452     1.0  0.92066  0.93786  0.81236  1.0000
  C   C860      1.0  0.76242  0.87697  0.97647  1.0000
  H   H1453     1.0  0.94036  0.71592  0.92336  1.0000
  C   C861      1.0  0.63383  0.94400  0.61887  1.0000
  C   C862      1.0  0.55414  0.95454  0.56673  1.0000
  C   C863      1.0  0.54714  0.97990  0.56016  1.0000
  C   C864      1.0  0.94781  0.79977  0.93106  1.0000
  H   H1454     1.0  0.58564  0.92639  0.56731  1.0000
  C   C865      1.0  0.72425  0.80196  0.96673  1.0000
  H   H1455     1.0  0.82900  0.80504  0.98559  1.0000
  C   C866      1.0  0.77492  0.97718  0.88572  1.0000
  H   H1456     1.0  0.75811  0.84742  0.94735  1.0000
  Fe  Fe126     1.0  0.70661  0.98618  0.56112  1.0000
  H   H1457     1.0  0.86540  0.95197  0.90630  1.0000
  C   C867      1.0  0.98243  0.73821  0.90434  1.0000
  H   H1458     1.0  0.94350  0.81788  0.92019  1.0000
  H   H1459     1.0  0.97169  0.96945  0.73194  1.0000
  H   H1460     1.0  0.80199  0.84370  0.98865  1.0000
  H   H1461     1.0  0.99436  0.72841  0.86429  1.0000
  H   H1462     1.0  0.52726  0.98677  0.56401  1.0000
  H   H1463     1.0  0.75265  0.89190  0.96441  1.0000
  C   C868      1.0  0.65431  0.97204  0.64997  1.0000
  H   H1464     1.0  0.97319  0.94474  0.77024  1.0000
  N   N62       1.0  0.63399  0.97124  0.62942  1.0000
  H   H1465     1.0  0.96280  0.80464  0.94528  1.0000
  H   H1466     1.0  0.99311  0.71466  0.95190  1.0000
  C   C869      1.0  0.97491  0.94838  0.72887  1.0000
  H   H1467     1.0  0.60078  0.66554  0.99146  1.0000
  C   C870      1.0  0.97695  0.72581  0.96190  1.0000
  C   C871      1.0  0.96691  0.93299  0.75366  1.0000
  H   H1468     1.0  0.86056  0.98594  0.94233  1.0000
  C   C872      1.0  0.93576  0.91020  0.78236  1.0000
  H   H1469     1.0  0.92907  0.73840  0.90082  1.0000
  H   H1470     1.0  0.89805  0.95101  0.72515  1.0000
  H   H1471     1.0  0.90216  0.76117  0.93087  1.0000
  H   H1472     1.0  0.72117  0.81337  0.94865  1.0000
  H   H1473     1.0  0.63062  0.98381  0.58898  1.0000
  C   C873      1.0  0.84618  0.96007  0.91324  1.0000
  C   C874      1.0  0.61838  0.66900  0.97849  1.0000
  H   H1474     1.0  0.83228  0.95975  0.89719  1.0000
  H   H1475     1.0  0.66937  0.94488  0.59267  1.0000
  H   H1476     1.0  0.62620  0.93029  0.63411  1.0000
  H   H1477     1.0  0.65328  0.95440  0.66256  1.0000
  H   H1478     1.0  0.62043  0.94260  0.60237  1.0000
  C   C875      1.0  0.79295  0.82683  0.97939  1.0000
  C   C876      1.0  0.77736  0.97844  0.91314  1.0000
  Fe  Fe127     1.0  0.79314  0.98062  0.99435  1.0000
  H   H1479     1.0  0.95888  0.71431  0.96321  1.0000
  H   H1480     1.0  0.98822  0.85682  0.80027  1.0000
  H   H1481     1.0  0.93014  0.91997  0.71650  1.0000
  H   H1482     1.0  0.99129  0.76285  0.94842  1.0000
  C   C877      1.0  0.75299  0.84999  0.96859  1.0000
  H   H1483     1.0  0.65750  0.91345  0.60008  1.0000
  N   N63       1.0  0.96201  0.75185  0.92177  1.0000
  H   H1484     1.0  0.93872  0.91109  0.82473  1.0000
  Fe  Fe128     1.0  0.70367  0.97272  0.50146  1.0000
  C   C878      1.0  0.94534  0.88405  0.73048  1.0000
  H   H1485     1.0  0.60527  0.68125  0.93862  1.0000
  H   H1486     1.0  0.95590  0.93677  0.80880  1.0000
  H   H1487     1.0  0.74327  0.96172  0.65089  1.0000
  H   H1488     1.0  0.93717  0.87390  0.71364  1.0000
  H   H1489     1.0  0.94385  0.87056  0.74737  1.0000
  N   N64       1.0  0.93854  0.92598  0.75746  1.0000
  C   C879      1.0  0.92119  0.94985  0.76061  1.0000
  C   C880      1.0  0.75314  0.80224  0.97424  1.0000
  C   C881      1.0  0.59207  0.98830  0.54523  1.0000
  C   C882      1.0  0.73475  0.98096  0.65260  1.0000
  H   H1490     1.0  0.95075  0.89436  0.78261  1.0000
  H   H1491     1.0  0.90873  0.90430  0.73901  1.0000
  C   C883      1.0  0.66048  0.93287  0.60851  1.0000
  C   C884      1.0  0.93696  0.73708  0.92072  1.0000
  H   H1492     1.0  0.68215  0.66867  0.93007  1.0000
  H   H1493     1.0  0.63240  0.67904  0.99081  1.0000
  H   H1494     1.0  0.86393  0.98664  0.82633  1.0000
  H   H1495     1.0  0.60289  0.96247  0.65780  1.0000
  H   H1496     1.0  0.59347  0.70055  0.96529  1.0000
  H   H1497     1.0  0.79826  0.82840  0.95809  1.0000
  H   H1498     1.0  0.91645  0.90052  0.78366  1.0000
  H   H1499     1.0  0.73135  0.85114  0.96985  1.0000
  H   H1500     1.0  0.71052  0.80881  0.98252  1.0000
  H   H1501     1.0  0.88298  0.98381  0.88010  1.0000
  H   H1502     1.0  0.92960  0.79413  0.94175  1.0000
  H   H1503     1.0  0.90084  0.97534  0.92514  1.0000
  H   H1504     1.0  0.96508  0.94217  0.71121  1.0000
  H   H1505     1.0  0.74480  0.98523  0.69314  1.0000
  H   H1506     1.0  0.62632  0.70365  0.95456  1.0000
  H   H1507     1.0  0.71891  0.78174  0.96241  1.0000
  H   H1508     1.0  0.92820  0.96880  0.72187  1.0000
  H   H1509     1.0  0.99329  0.90445  0.80397  1.0000
  H   H1510     1.0  0.99476  0.86989  0.88091  1.0000
  H   H1511     1.0  0.92029  0.75162  0.95907  1.0000
  H   H1512     1.0  0.58035  0.95607  0.61696  1.0000
  H   H1513     1.0  0.94530  0.77937  0.89463  1.0000
  C   C885      1.0  0.84839  0.98737  0.92482  1.0000
  H   H1514     1.0  0.80219  0.78465  0.97981  1.0000
  C   C886      1.0  0.67274  0.66366  0.94935  1.0000
  H   H1515     1.0  0.98419  0.71737  0.90954  1.0000
  H   H1516     1.0  0.84057  0.99418  0.87113  1.0000
  C   C887      1.0  0.80767  0.80270  0.98963  1.0000
  C   C888      1.0  0.60721  0.97668  0.64181  1.0000
  H   H1517     1.0  0.75584  0.78657  0.98899  1.0000
  H   H1518     1.0  0.97852  0.75917  0.86673  1.0000
  C   C889      1.0  0.97805  0.73918  0.87464  1.0000
  C   C890      1.0  0.72285  0.99222  0.63085  1.0000
  C   C891      1.0  0.58437  0.97608  0.62312  1.0000
  S   S252      1.0  0.54155  0.68565  0.98961  1.0000
  S   S253      1.0  0.83254  0.96146  0.98898  1.0000
  S   S254      1.0  0.73384  0.99183  0.52567  1.0000
  H   H1519     1.0  0.66190  0.98671  0.60075  1.0000
  S   S255      1.0  0.99340  0.97212  0.84125  1.0000
  H   H1520     1.0  0.95966  0.76358  0.96281  1.0000
  C   C892      1.0  0.97247  0.75239  0.94889  1.0000
  H   H1521     1.0  0.78375  0.87922  0.97270  1.0000
  H   H1522     1.0  0.67433  0.97172  0.64068  1.0000
  H   H1523     1.0  0.58772  0.98859  0.60570  1.0000
  H   H1524     1.0  0.52785  0.99520  0.51130  1.0000
  H   H1525     1.0  0.56623  0.98333  0.63351  1.0000
  C   C893      1.0  0.64089  0.98916  0.60688  1.0000
  C   C894      1.0  0.90618  0.99242  0.91306  1.0000
  H   H1526     1.0  0.90105  0.98119  0.74092  1.0000
  H   H1527     1.0  0.92427  0.98703  0.90143  1.0000
  S   S256      1.0  0.91903  0.99010  0.83479  1.0000
  H   H1528     1.0  0.63576  0.99411  0.68280  1.0000
  H   H1529     1.0  0.82853  0.99283  0.93286  1.0000
  H   H1530     1.0  0.67050  0.99429  0.68112  1.0000
  C   C895      1.0  0.73566  0.99426  0.67664  1.0000
  C   C896      1.0  0.65298  0.99512  0.66896  1.0000
  H   H1531     1.0  0.98278  0.72885  0.98232  1.0000
  H   H1532     1.0  0.99609  0.94484  0.72427  1.0000
  H   H1533     1.0  0.98945  0.95632  0.97757  1.0000
  H   H1534     1.0  0.60592  0.99564  0.65174  1.0000
  H   H1535     1.0  0.95978  0.96356  0.99589  1.0000
  H   H1536     1.0  0.97383  0.91636  0.99560  1.0000
