data_image0
_chemical_formula_structural       FeS2FeS2FeSFeS3HSFeS2FeSFeSHSFeSCHCHC3H2C6H4C6H4CH2C3H5C2H2C3H4FeH5CH4CH4CH2CHSNCHCH3C2H2CH3CHCH2CHC2H7CH3SH3NC2HC2H9C2HC3NH3CH3C2H2C3NH4FeS2FeS2FeSFeS3HSFeSHFeSFeSCHFeSH2SCFeH4C6H4C6H4CHC2HCH2CHCHC2HC2H5CH3CH2SH3CH2CH2CH2NHCH2C3HCH4SHCH2C2HNH5NHC2H7C2NCH4CH2C2H2C2HNHC2SH2CHCSCH6CH4CH3C2H2FeCH3CH3CH3FeS2HSFeSHFeSHSC7HCH2C6H5CH2C2HCH3CH3C2H3FeSH3C2H3SH4C2HCH2CH2C2H6CHC2H13CNCHSHC2HNH2C2S2NCHC4H2CH2CFeSHCSFeSHCSCSHC6H4C6H4CH4CHSHCHC2H6NH4CHC2NH2CHC2H9NSH4NH2SHCH4CHC2H4FeH3CH3CHC2H4SCHC2HCH2SFeSFeSHFeSFeS3FeS2FeS2FeSFeS3CHC3HCH3C6H4C3H3C10H6C2HCH4CH9CH3C2SNC8H7C2H6CH8CH8CH6CHCHCH5C2H6NH3NH3NCH5CH3CH3CH4NC4H4CFeH2CHC2HSC2H4CH3CH3C2H6SHSFeSFeSFeSHFeSFeS3FeS2FeS2FeSFeS3HC4HCH3C6H4C3H3CH3C6H4CH4CHC2H2CH2CH3C2H6C2H3NC2HCH7CHNC8H21C3HCH3CH2CH6CSH3CHNH2CH3CNHCHCH6CSH2CFeHCH4CHC3HFeS2FeS2FeSFeS3FeHSFeHSFeC2S2CSHSFeSHCH4FeC2HCHC6H4CH3C2SH2NCH4C6H4CSCHC2HCH2CHCS2CHNC3H2CH5CHCH3CHCH3FeCH4C2H6NH4C2H5SCHNH2CH5CHSC2H4CFeCH5CH2CH7CH3CHCH2CH2CH4C2HC4H4FeS2FeS2FeSFeS3FeCSFeS2FeH2S2HSHCFeSH2CHCH2CHFeH2C6H4CH2CHC2HCHFeHSCHC6H4SHCH5CH2C2H2NH2SCH2CH6CHCH2CHCH4CH4CHCNH4CH2NCH3CH2CH6CHCH3CH2NC2H3CH2CHCHCNH5C2HCHCHC3HC3H4CH2CHC2H2CH3CHSCH2SCSH2FeSHCSH2FeS2HC6H4C6HCH2C2H2SH5CHSH2CHCH4CH3CHC2H4CH2C3H2NCHCH2C2HCH2CHNCH6C2HCH4CH2NFeHCSH7CFeCHSHCHSH2SHCFeS2NC2HC3HSH2C6HCH2CSH2CHCH4FeCHC2H2CHCH18NC2HCH4CHCH2CH2CH2CH3CH2C3SHCH3C2HSFeH4FeC2FeHCH2C2H5C2HCHSHC3FeSH2SHFeSFeS2FeSFeS3FeS2FeS2FeSFeS3HCH2C3FeH4C4HSH2C6H4C6H6CNC4H2SCH5CFeHCSHCHNC8H19CNC5H4CHSCH7C4H4CH2SH6CHCH2C2H4C2H7CH2NH2C2H4C2FeSHFeSHCSFeS2FeSFeS3FeS2FeS2FeSFeS3C3H2C5H3CSHCFeHC7H4C6H7NHC2H2C2H5CSCH6CH6C3HNC9H9CH12CNH9CH3CH5C2HC2H3CH3C2H3CH2CHCHNH3CH3NCHCHCHCHSH3C2
_chemical_formula_sum              "Fe96 S192 H1152 C672 N48"
_cell_length_a       33.2592
_cell_length_b       66.4692
_cell_length_c       47.0621
_cell_angle_alpha    90.0155
_cell_angle_beta     90.1708
_cell_angle_gamma    89.9556

_space_group_name_H-M_alt    "P 1"
_space_group_IT_number       1

loop_
  _space_group_symop_operation_xyz
  'x, y, z'

loop_
  _atom_site_type_symbol
  _atom_site_label
  _atom_site_symmetry_multiplicity
  _atom_site_fract_x
  _atom_site_fract_y
  _atom_site_fract_z
  _atom_site_occupancy
  Fe  Fe1       1.0  0.18443  0.18574  0.10891  1.0000
  S   S1        1.0  0.19904  0.21689  0.12391  1.0000
  S   S2        1.0  0.11991  0.17396  0.10290  1.0000
  Fe  Fe2       1.0  0.27536  0.17443  0.10234  1.0000
  S   S3        1.0  0.29487  0.20525  0.11684  1.0000
  S   S4        1.0  0.32393  0.15347  0.08433  1.0000
  Fe  Fe3       1.0  0.24731  0.20226  0.15065  1.0000
  S   S5        1.0  0.25650  0.20407  0.19883  1.0000
  Fe  Fe4       1.0  0.24511  0.21691  0.08854  1.0000
  S   S6        1.0  0.24947  0.24429  0.05925  1.0000
  S   S7        1.0  0.23026  0.17070  0.13742  1.0000
  S   S8        1.0  0.22807  0.18644  0.07227  1.0000
  H   H1        1.0  0.17080  0.17290  0.21874  1.0000
  S   S9        1.0  0.24186  0.28169  0.36658  1.0000
  Fe  Fe5       1.0  0.35688  0.29419  0.37302  1.0000
  S   S10       1.0  0.33429  0.26368  0.35927  1.0000
  S   S11       1.0  0.42237  0.30584  0.37496  1.0000
  Fe  Fe6       1.0  0.28904  0.28049  0.33236  1.0000
  S   S12       1.0  0.27489  0.27808  0.28474  1.0000
  Fe  Fe7       1.0  0.28875  0.26726  0.39490  1.0000
  S   S13       1.0  0.26916  0.24091  0.42317  1.0000
  H   H2        1.0  0.35942  0.25358  0.27202  1.0000
  S   S14       1.0  0.31390  0.29676  0.41006  1.0000
  Fe  Fe8       1.0  0.47558  0.06283  0.12194  1.0000
  S   S15       1.0  0.41345  0.07538  0.13304  1.0000
  C   C1        1.0  0.14294  0.20254  0.18489  1.0000
  H   H3        1.0  0.09482  0.21430  0.23158  1.0000
  C   C2        1.0  0.26201  0.22528  0.00727  1.0000
  H   H4        1.0  0.42237  0.13679  0.12754  1.0000
  C   C3        1.0  0.14000  0.25178  0.07361  1.0000
  C   C4        1.0  0.44127  0.14875  0.13707  1.0000
  C   C5        1.0  0.10005  0.17262  0.18902  1.0000
  H   H5        1.0  0.13954  0.31156  0.37463  1.0000
  H   H6        1.0  0.14198  0.20504  0.26127  1.0000
  C   C6        1.0  0.34742  0.13145  0.09811  1.0000
  C   C7        1.0  0.37785  0.12210  0.08205  1.0000
  C   C8        1.0  0.39844  0.10501  0.09240  1.0000
  C   C9        1.0  0.38842  0.09686  0.11886  1.0000
  C   C10       1.0  0.35765  0.10605  0.13476  1.0000
  C   C11       1.0  0.33746  0.12332  0.12459  1.0000
  H   H7        1.0  0.38563  0.12818  0.06146  1.0000
  H   H8        1.0  0.42166  0.09799  0.07977  1.0000
  H   H9        1.0  0.34948  0.09981  0.15518  1.0000
  H   H10       1.0  0.31409  0.13028  0.13716  1.0000
  C   C12       1.0  0.26271  0.22494  0.22210  1.0000
  C   C13       1.0  0.26006  0.24485  0.21266  1.0000
  C   C14       1.0  0.26391  0.26086  0.23217  1.0000
  C   C15       1.0  0.27053  0.25721  0.26129  1.0000
  C   C16       1.0  0.27348  0.23731  0.27070  1.0000
  C   C17       1.0  0.26950  0.22130  0.25120  1.0000
  H   H11       1.0  0.25485  0.24791  0.19038  1.0000
  H   H12       1.0  0.26157  0.27620  0.22467  1.0000
  H   H13       1.0  0.27855  0.23427  0.29301  1.0000
  H   H14       1.0  0.27156  0.20596  0.25876  1.0000
  C   C18       1.0  0.26551  0.24097  0.46093  1.0000
  H   H15       1.0  0.16622  0.24996  0.02135  1.0000
  H   H16       1.0  0.11767  0.25615  0.00775  1.0000
  C   C19       1.0  0.25646  0.24342  0.02183  1.0000
  C   C20       1.0  0.48667  0.00064  0.01545  1.0000
  C   C21       1.0  0.28720  0.25451  0.47779  1.0000
  H   H17       1.0  0.40630  0.25418  0.29038  1.0000
  H   H18       1.0  0.17947  0.21915  0.04416  1.0000
  H   H19       1.0  0.09094  0.30158  0.36677  1.0000
  H   H20       1.0  0.30568  0.26584  0.46776  1.0000
  H   H21       1.0  0.42949  0.17270  0.16832  1.0000
  C   C22       1.0  0.47195  0.29553  0.37273  1.0000
  C   C23       1.0  0.08170  0.21998  0.01866  1.0000
  H   H22       1.0  0.40351  0.26130  0.25318  1.0000
  H   H23       1.0  0.17275  0.19541  0.18108  1.0000
  C   C24       1.0  0.06511  0.20373  0.11944  1.0000
  C   C25       1.0  0.07103  0.18415  0.10930  1.0000
  C   C26       1.0  0.03700  0.17206  0.10414  1.0000
  H   H24       1.0  0.09072  0.21338  0.12315  1.0000
  H   H25       1.0  0.04106  0.15692  0.09618  1.0000
  H   H26       1.0  0.47327  0.11972  0.19673  1.0000
  H   H27       1.0  0.14076  0.20555  0.06100  1.0000
  Fe  Fe9       1.0  0.26952  0.31114  0.37958  1.0000
  H   H28       1.0  0.44338  0.31586  0.24773  1.0000
  H   H29       1.0  0.42747  0.11595  0.17599  1.0000
  H   H30       1.0  0.02629  0.31018  0.36841  1.0000
  H   H31       1.0  0.39518  0.31618  0.31686  1.0000
  H   H32       1.0  0.38565  0.16049  0.15479  1.0000
  C   C27       1.0  0.15564  0.19453  0.01939  1.0000
  H   H33       1.0  0.08172  0.17815  0.17079  1.0000
  H   H34       1.0  0.46082  0.13961  0.08386  1.0000
  H   H35       1.0  0.43792  0.28631  0.31906  1.0000
  H   H36       1.0  0.09460  0.22921  0.07432  1.0000
  C   C28       1.0  0.14499  0.18120  0.22820  1.0000
  H   H37       1.0  0.44203  0.16097  0.12084  1.0000
  H   H38       1.0  0.07892  0.16398  0.20274  1.0000
  H   H39       1.0  0.11504  0.31936  0.34291  1.0000
  H   H40       1.0  0.12787  0.17002  0.24100  1.0000
  C   C29       1.0  0.25609  0.26150  0.00628  1.0000
  H   H41       1.0  0.14891  0.26540  0.06153  1.0000
  H   H42       1.0  0.35221  0.28857  0.27066  1.0000
  C   C30       1.0  0.37878  0.28385  0.28306  1.0000
  H   H43       1.0  0.18625  0.20603  0.23854  1.0000
  S   S16       1.0  0.48785  0.02974  0.11457  1.0000
  N   N1        1.0  0.41293  0.29862  0.28026  1.0000
  C   C31       1.0  0.46005  0.11269  0.17754  1.0000
  H   H44       1.0  0.04313  0.21220  0.05527  1.0000
  C   C32       1.0  0.05853  0.20474  0.03722  1.0000
  H   H45       1.0  0.13072  0.23497  0.18059  1.0000
  H   H46       1.0  0.36802  0.28330  0.30546  1.0000
  H   H47       1.0  0.22460  0.21583  0.46159  1.0000
  C   C33       1.0  0.24170  0.22630  0.47442  1.0000
  C   C34       1.0  0.47909  0.27500  0.36838  1.0000
  H   H48       1.0  0.49095  0.11738  0.09050  1.0000
  H   H49       1.0  0.14508  0.18028  0.02925  1.0000
  C   C35       1.0  0.49128  0.13403  0.08936  1.0000
  H   H50       1.0  0.25177  0.27561  0.01733  1.0000
  H   H51       1.0  0.25836  0.17346  0.48573  1.0000
  H   H52       1.0  0.18831  0.19249  0.01541  1.0000
  C   C36       1.0  0.08425  0.20146  0.21863  1.0000
  H   H53       1.0  0.06670  0.21841  0.18005  1.0000
  C   C37       1.0  0.10959  0.31534  0.36545  1.0000
  H   H54       1.0  0.41566  0.14797  0.18080  1.0000
  H   H55       1.0  0.03460  0.19752  0.02423  1.0000
  C   C38       1.0  0.15055  0.22481  0.19308  1.0000
  H   H56       1.0  0.15289  0.16477  0.16306  1.0000
  C   C39       1.0  0.12974  0.15732  0.17615  1.0000
  C   C40       1.0  0.16430  0.19611  0.24924  1.0000
  H   H57       1.0  0.45396  0.26470  0.36729  1.0000
  H   H58       1.0  0.06794  0.19167  0.23399  1.0000
  H   H59       1.0  0.14418  0.14784  0.19269  1.0000
  H   H60       1.0  0.33658  0.31959  0.28095  1.0000
  H   H61       1.0  0.02168  0.22595  0.13301  1.0000
  H   H62       1.0  0.12824  0.25710  0.09437  1.0000
  H   H63       1.0  0.18189  0.18746  0.26522  1.0000
  C   C41       1.0  0.05271  0.20996  0.19770  1.0000
  H   H64       1.0  0.46932  0.01755  0.47565  1.0000
  H   H65       1.0  0.12805  0.20292  0.16370  1.0000
  H   H66       1.0  0.14813  0.22846  0.21587  1.0000
  S   S17       1.0  0.31424  0.31093  0.34400  1.0000
  H   H67       1.0  0.11300  0.14698  0.16179  1.0000
  H   H68       1.0  0.32901  0.16534  0.48373  1.0000
  H   H69       1.0  0.18166  0.22895  0.18685  1.0000
  N   N2        1.0  0.11849  0.18998  0.20524  1.0000
  C   C42       1.0  0.02582  0.21086  0.12490  1.0000
  C   C43       1.0  0.14941  0.21233  0.04025  1.0000
  H   H70       1.0  0.02512  0.31863  0.40349  1.0000
  C   C44       1.0  0.38811  0.26205  0.27398  1.0000
  C   C45       1.0  0.41712  0.15784  0.16197  1.0000
  H   H71       1.0  0.07809  0.19253  0.04544  1.0000
  H   H72       1.0  0.08213  0.25049  0.05321  1.0000
  H   H73       1.0  0.03321  0.19791  0.18886  1.0000
  H   H74       1.0  0.45919  0.27607  0.28773  1.0000
  H   H75       1.0  0.26253  0.21125  0.01892  1.0000
  H   H76       1.0  0.38970  0.28643  0.21711  1.0000
  H   H77       1.0  0.46756  0.00608  0.03236  1.0000
  H   H78       1.0  0.46726  0.11010  0.13283  1.0000
  H   H79       1.0  0.49066  0.99088  0.44181  1.0000
  C   C46       1.0  0.48210  0.11867  0.15015  1.0000
  C   C47       1.0  0.48561  0.00457  0.48348  1.0000
  H   H80       1.0  0.06045  0.23241  0.01331  1.0000
  C   C48       1.0  0.42614  0.30158  0.24987  1.0000
  C   C49       1.0  0.10691  0.23971  0.05815  1.0000
  C   C50       1.0  0.44784  0.29031  0.29720  1.0000
  N   N3        1.0  0.11961  0.22839  0.03177  1.0000
  H   H81       1.0  0.16683  0.24250  0.07817  1.0000
  H   H82       1.0  0.30986  0.19774  0.47639  1.0000
  H   H83       1.0  0.46261  0.09615  0.18043  1.0000
  C   C51       1.0  0.33120  0.19655  0.49453  1.0000
  H   H84       1.0  0.03254  0.22052  0.20915  1.0000
  H   H85       1.0  0.48508  0.15185  0.18682  1.0000
  H   H86       1.0  0.44721  0.28931  0.24365  1.0000
  C   C52       1.0  0.99768  0.17925  0.10941  1.0000
  C   C53       1.0  0.40094  0.31833  0.29373  1.0000
  H   H87       1.0  0.36302  0.30699  0.23377  1.0000
  H   H88       1.0  0.35982  0.20304  0.48661  1.0000
  C   C54       1.0  0.13859  0.24334  0.01175  1.0000
  C   C55       1.0  0.48495  0.30412  0.30007  1.0000
  C   C56       1.0  0.39281  0.30160  0.22679  1.0000
  N   N4        1.0  0.48313  0.14083  0.14330  1.0000
  H   H89       1.0  0.40218  0.31165  0.20915  1.0000
  H   H90       1.0  0.47914  0.31677  0.31491  1.0000
  H   H91       1.0  0.44133  0.98775  0.30307  1.0000
  H   H92       1.0  0.14145  0.19605  0.99832  1.0000
  Fe  Fe10      1.0  0.15553  0.19812  0.61783  1.0000
  S   S18       1.0  0.19573  0.22508  0.62574  1.0000
  S   S19       1.0  0.08891  0.20821  0.61887  1.0000
  Fe  Fe11      1.0  0.23002  0.17051  0.60965  1.0000
  S   S20       1.0  0.27290  0.19584  0.61687  1.0000
  S   S21       1.0  0.25568  0.13964  0.59677  1.0000
  Fe  Fe12      1.0  0.23277  0.20470  0.65325  1.0000
  S   S22       1.0  0.26719  0.21210  0.69410  1.0000
  Fe  Fe13      1.0  0.23237  0.21417  0.58865  1.0000
  S   S23       1.0  0.26324  0.23665  0.55892  1.0000
  S   S24       1.0  0.19132  0.17811  0.64776  1.0000
  S   S25       1.0  0.19086  0.18841  0.57899  1.0000
  H   H93       1.0  0.45665  0.23955  0.94845  1.0000
  S   S26       1.0  0.22806  0.28228  0.86962  1.0000
  Fe  Fe14      1.0  0.34061  0.29870  0.86957  1.0000
  S   S27       1.0  0.32081  0.26764  0.85624  1.0000
  H   H94       1.0  0.40457  0.03963  0.83847  1.0000
  Fe  Fe15      1.0  0.27061  0.28333  0.83245  1.0000
  S   S28       1.0  0.24077  0.27937  0.78897  1.0000
  Fe  Fe16      1.0  0.27962  0.26926  0.89448  1.0000
  S   S29       1.0  0.27433  0.24249  0.92461  1.0000
  C   C57       1.0  0.44266  0.25453  0.95239  1.0000
  H   H95       1.0  0.12747  0.22892  0.96986  1.0000
  Fe  Fe17      1.0  0.46053  0.06889  0.62260  1.0000
  S   S30       1.0  0.42329  0.09760  0.63134  1.0000
  H   H96       1.0  0.36162  0.19499  0.58325  1.0000
  H   H97       1.0  0.35391  0.23564  0.65320  1.0000
  S   S31       1.0  0.44616  0.03574  0.61812  1.0000
  C   C58       1.0  0.23955  0.22519  0.50434  1.0000
  Fe  Fe18      1.0  0.25314  0.31258  0.88090  1.0000
  H   H98       1.0  0.30313  0.26349  0.52045  1.0000
  H   H99       1.0  0.15093  0.30581  0.88082  1.0000
  H   H100      1.0  0.07490  0.29275  0.84735  1.0000
  H   H101      1.0  0.36849  0.20040  0.54652  1.0000
  C   C59       1.0  0.30248  0.12820  0.60658  1.0000
  C   C60       1.0  0.31329  0.10956  0.59449  1.0000
  C   C61       1.0  0.35003  0.09999  0.60157  1.0000
  C   C62       1.0  0.37650  0.10889  0.62105  1.0000
  C   C63       1.0  0.36582  0.12764  0.63289  1.0000
  C   C64       1.0  0.32927  0.13726  0.62566  1.0000
  H   H102      1.0  0.29288  0.10234  0.57975  1.0000
  H   H103      1.0  0.35755  0.08559  0.59227  1.0000
  H   H104      1.0  0.38559  0.13462  0.64826  1.0000
  H   H105      1.0  0.32144  0.15150  0.63533  1.0000
  C   C65       1.0  0.25665  0.22963  0.72160  1.0000
  C   C66       1.0  0.22466  0.24326  0.71988  1.0000
  C   C67       1.0  0.21998  0.25822  0.74089  1.0000
  C   C68       1.0  0.24680  0.25954  0.76403  1.0000
  C   C69       1.0  0.27831  0.24568  0.76601  1.0000
  C   C70       1.0  0.28330  0.23091  0.74481  1.0000
  H   H106      1.0  0.20378  0.24237  0.70226  1.0000
  H   H107      1.0  0.19547  0.26885  0.73916  1.0000
  H   H108      1.0  0.29922  0.24654  0.78362  1.0000
  H   H109      1.0  0.30823  0.22049  0.74627  1.0000
  C   C71       1.0  0.26685  0.24336  0.96198  1.0000
  H   H110      1.0  0.36477  0.25326  0.62478  1.0000
  C   C72       1.0  0.34726  0.19371  0.56198  1.0000
  C   C73       1.0  0.26212  0.23838  0.52117  1.0000
  H   H111      1.0  0.45724  0.15041  0.59671  1.0000
  C   C74       1.0  0.26121  0.26150  0.97653  1.0000
  H   H112      1.0  0.35640  0.25618  0.91061  1.0000
  H   H113      1.0  0.37613  0.13791  0.51339  1.0000
  C   C75       1.0  0.33961  0.17132  0.55561  1.0000
  H   H114      1.0  0.26075  0.27553  0.96488  1.0000
  C   C76       1.0  0.46842  0.26974  0.93534  1.0000
  H   H115      1.0  0.16468  0.24812  0.97014  1.0000
  C   C77       1.0  0.11810  0.30406  0.87772  1.0000
  C   C78       1.0  0.30001  0.24922  0.63406  1.0000
  H   H116      1.0  0.39956  0.27091  0.90599  1.0000
  C   C79       1.0  0.02984  0.17804  0.61955  1.0000
  C   C80       1.0  0.03874  0.19858  0.62131  1.0000
  H   H117      1.0  0.49264  0.27567  0.94934  1.0000
  H   H118      1.0  0.05403  0.16730  0.61703  1.0000
  H   H119      1.0  0.45021  0.04518  0.91214  1.0000
  H   H120      1.0  0.29110  0.27743  0.59020  1.0000
  H   H121      1.0  0.38469  0.29593  0.93414  1.0000
  C   C81       1.0  0.40751  0.23993  0.89469  1.0000
  H   H122      1.0  0.23507  0.29096  0.61249  1.0000
  H   H123      1.0  0.27362  0.19108  0.53415  1.0000
  H   H124      1.0  0.34715  0.11604  0.52183  1.0000
  C   C82       1.0  0.48678  0.31265  0.88020  1.0000
  H   H125      1.0  0.17708  0.29747  0.82225  1.0000
  H   H126      1.0  0.37304  0.99183  0.89335  1.0000
  S   S32       1.0  0.29343  0.31452  0.84292  1.0000
  H   H127      1.0  0.35070  0.23130  0.94658  1.0000
  H   H128      1.0  0.10650  0.31148  0.77783  1.0000
  H   H129      1.0  0.27157  0.21116  0.96651  1.0000
  C   C83       1.0  0.42760  0.00704  0.90831  1.0000
  H   H130      1.0  0.36506  0.13129  0.55010  1.0000
  H   H131      1.0  0.40450  0.24488  0.87224  1.0000
  C   C84       1.0  0.45300  0.30179  0.87055  1.0000
  H   H132      1.0  0.37003  0.16444  0.55529  1.0000
  H   H133      1.0  0.38307  0.02506  0.86631  1.0000
  C   C85       1.0  0.34369  0.24155  0.63232  1.0000
  H   H134      1.0  0.34498  0.22879  0.61709  1.0000
  H   H135      1.0  0.47520  0.02333  0.95241  1.0000
  N   N5        1.0  0.46185  0.01640  0.89211  1.0000
  H   H136      1.0  0.32099  0.20651  0.51181  1.0000
  C   C86       1.0  0.37519  0.26944  0.96194  1.0000
  H   H137      1.0  0.28234  0.23743  0.64527  1.0000
  H   H138      1.0  0.36537  0.30134  0.96844  1.0000
  C   C87       1.0  0.10084  0.30159  0.79639  1.0000
  C   C88       1.0  0.26719  0.22528  0.97753  1.0000
  C   C89       1.0  0.00657  0.21224  0.62458  1.0000
  H   H139      1.0  0.34458  0.26525  0.67748  1.0000
  C   C90       1.0  0.45931  0.28365  0.85617  1.0000
  H   H140      1.0  0.40453  0.01852  0.91392  1.0000
  H   H141      1.0  0.45652  0.13744  0.63037  1.0000
  H   H142      1.0  0.12375  0.28185  0.84518  1.0000
  H   H143      1.0  0.31928  0.20266  0.56295  1.0000
  S   S33       1.0  0.40382  0.31162  0.87708  1.0000
  H   H144      1.0  0.43383  0.27519  0.84834  1.0000
  C   C91       1.0  0.31140  0.26737  0.67805  1.0000
  H   H145      1.0  0.29956  0.25367  0.68861  1.0000
  H   H146      1.0  0.28783  0.24905  0.61228  1.0000
  C   C92       1.0  0.38677  0.29154  0.95675  1.0000
  C   C93       1.0  0.30387  0.28517  0.69843  1.0000
  H   H147      1.0  0.37611  0.21232  0.98941  1.0000
  N   N6        1.0  0.39826  0.25371  0.94556  1.0000
  H   H148      1.0  0.37886  0.26732  0.98523  1.0000
  H   H149      1.0  0.34237  0.26797  0.95753  1.0000
  H   H150      1.0  0.34797  0.28664  0.63986  1.0000
  H   H151      1.0  0.45221  0.28299  0.92702  1.0000
  H   H152      1.0  0.48478  0.98789  0.87691  1.0000
  N   N7        1.0  0.29436  0.26932  0.64835  1.0000
  H   H153      1.0  0.29863  0.13934  0.50632  1.0000
  C   C94       1.0  0.38948  0.25619  0.91429  1.0000
  C   C95       1.0  0.31575  0.28628  0.63331  1.0000
  H   H154      1.0  0.35746  0.23670  0.99738  1.0000
  H   H155      1.0  0.27229  0.28540  0.70601  1.0000
  H   H156      1.0  0.23489  0.26115  0.66278  1.0000
  H   H157      1.0  0.10802  0.29271  0.89349  1.0000
  H   H158      1.0  0.39967  0.22102  0.94401  1.0000
  H   H159      1.0  0.44608  0.16350  0.62847  1.0000
  H   H160      1.0  0.19392  0.27778  0.62785  1.0000
  C   C96       1.0  0.24992  0.27353  0.65088  1.0000
  C   C97       1.0  0.22651  0.27664  0.62293  1.0000
  N   N8        1.0  0.11761  0.31057  0.82339  1.0000
  C   C98       1.0  0.27436  0.17457  0.53145  1.0000
  H   H161      1.0  0.22970  0.26396  0.60786  1.0000
  H   H162      1.0  0.24431  0.28749  0.66324  1.0000
  H   H163      1.0  0.17438  0.32006  0.84172  1.0000
  H   H164      1.0  0.06749  0.30033  0.79789  1.0000
  C   C99       1.0  0.46542  0.15142  0.61956  1.0000
  H   H165      1.0  0.40948  0.04826  0.87429  1.0000
  H   H166      1.0  0.44733  0.25769  0.97541  1.0000
  C   C100      1.0  0.31610  0.28569  0.60036  1.0000
  C   C101      1.0  0.28572  0.25311  0.50771  1.0000
  H   H167      1.0  0.17735  0.22445  0.98479  1.0000
  H   H168      1.0  0.41140  0.23204  0.99657  1.0000
  C   C102      1.0  0.16273  0.31257  0.82230  1.0000
  C   C103      1.0  0.10761  0.29644  0.84751  1.0000
  H   H169      1.0  0.08717  0.21255  0.99803  1.0000
  N   N9        1.0  0.31659  0.16650  0.52878  1.0000
  H   H170      1.0  0.15026  0.28051  0.78566  1.0000
  C   C104      1.0  0.40922  0.03461  0.86077  1.0000
  C   C105      1.0  0.38216  0.23333  0.95419  1.0000
  S   S34       1.0  0.48101  0.02379  0.53559  1.0000
  H   H171      1.0  0.32279  0.28317  0.71774  1.0000
  H   H172      1.0  0.22045  0.21416  0.51437  1.0000
  C   C106      1.0  0.35309  0.13190  0.52805  1.0000
  H   H173      1.0  0.29359  0.13777  0.54366  1.0000
  C   C107      1.0  0.11712  0.28063  0.78808  1.0000
  S   S35       1.0  0.30167  0.29935  0.90873  1.0000
  C   C108      1.0  0.15233  0.23535  0.98263  1.0000
  H   H174      1.0  0.32398  0.16479  0.57440  1.0000
  H   H175      1.0  0.01297  0.22816  0.62606  1.0000
  H   H176      1.0  0.30296  0.30104  0.63991  1.0000
  H   H177      1.0  0.48001  0.13620  0.67416  1.0000
  H   H178      1.0  0.41713  0.29490  0.96531  1.0000
  H   H179      1.0  0.26017  0.16873  0.55119  1.0000
  C   C109      1.0  0.44911  0.02283  0.86264  1.0000
  H   H180      1.0  0.10437  0.27633  0.76709  1.0000
  H   H181      1.0  0.31441  0.30134  0.59214  1.0000
  H   H182      1.0  0.31183  0.29984  0.68881  1.0000
  H   H183      1.0  0.10783  0.26878  0.80326  1.0000
  C   C110      1.0  0.31330  0.14384  0.52663  1.0000
  H   H184      1.0  0.37118  0.17191  0.50503  1.0000
  H   H185      1.0  0.34510  0.27962  0.59243  1.0000
  H   H186      1.0  0.39073  0.22556  0.89647  1.0000
  C   C111      1.0  0.24564  0.16943  0.50669  1.0000
  C   C112      1.0  0.38215  0.22862  0.98632  1.0000
  H   H187      1.0  0.43987  0.23730  0.89888  1.0000
  H   H188      1.0  0.23705  0.15330  0.50693  1.0000
  Fe  Fe19      1.0  0.49100  0.03490  0.58182  1.0000
  C   C113      1.0  0.47584  0.03481  0.90813  1.0000
  H   H189      1.0  0.17271  0.31711  0.77632  1.0000
  H   H190      1.0  0.10290  0.31840  0.88316  1.0000
  H   H191      1.0  0.47243  0.03259  0.85280  1.0000
  C   C114      1.0  0.40603  0.98920  0.89364  1.0000
  H   H192      1.0  0.48435  0.26214  0.91760  1.0000
  H   H193      1.0  0.21727  0.17805  0.50931  1.0000
  H   H194      1.0  0.00325  0.18216  0.54528  1.0000
  C   C115      1.0  0.33817  0.17423  0.50277  1.0000
  H   H195      1.0  0.44693  0.00977  0.84786  1.0000
  H   H196      1.0  0.43822  0.00129  0.92923  1.0000
  H   H197      1.0  0.32296  0.64160  0.12174  1.0000
  Fe  Fe20      1.0  0.05509  0.41638  0.34678  1.0000
  S   S36       1.0  0.10543  0.39546  0.33115  1.0000
  S   S37       1.0  0.03621  0.46655  0.42731  1.0000
  H   H198      1.0  0.42548  0.63943  0.08796  1.0000
  S   S38       1.0  0.05289  0.45042  0.34795  1.0000
  Fe  Fe21      1.0  0.03099  0.57414  0.10616  1.0000
  S   S39       1.0  0.06734  0.60355  0.10199  1.0000
  H   H199      1.0  0.38861  0.63353  0.16655  1.0000
  Fe  Fe22      1.0  0.00549  0.53646  0.14099  1.0000
  S   S40       1.0  0.04337  0.54080  0.10118  1.0000
  H   H200      1.0  0.41215  0.58091  0.10137  1.0000
  S   S41       1.0  0.23186  0.33807  0.39494  1.0000
  C   C116      1.0  0.01891  0.35815  0.32944  1.0000
  C   C117      1.0  0.11754  0.61321  0.10136  1.0000
  C   C118      1.0  0.12315  0.63423  0.10143  1.0000
  C   C119      1.0  0.16203  0.64277  0.10062  1.0000
  C   C120      1.0  0.19604  0.63040  0.09921  1.0000
  C   C121      1.0  0.19048  0.60937  0.09910  1.0000
  C   C122      1.0  0.15157  0.60081  0.10038  1.0000
  H   H201      1.0  0.09724  0.64404  0.10185  1.0000
  C   C123      1.0  0.02437  0.49990  0.00535  1.0000
  H   H202      1.0  0.21644  0.59960  0.09791  1.0000
  H   H203      1.0  0.14790  0.58464  0.10020  1.0000
  C   C124      1.0  0.14160  0.38027  0.34927  1.0000
  C   C125      1.0  0.16196  0.36517  0.33398  1.0000
  C   C126      1.0  0.18979  0.35222  0.34747  1.0000
  C   C127      1.0  0.19817  0.35440  0.37647  1.0000
  C   C128      1.0  0.17834  0.36975  0.39167  1.0000
  C   C129      1.0  0.15008  0.38254  0.37825  1.0000
  H   H204      1.0  0.15591  0.36335  0.31152  1.0000
  H   H205      1.0  0.20482  0.34057  0.33544  1.0000
  H   H206      1.0  0.18469  0.37165  0.41408  1.0000
  H   H207      1.0  0.13502  0.39416  0.39030  1.0000
  H   H208      1.0  0.01860  0.46010  0.05864  1.0000
  C   C130      1.0  0.44097  0.64693  0.14882  1.0000
  H   H209      1.0  0.01925  0.34769  0.42941  1.0000
  H   H210      1.0  0.11357  0.34551  0.38101  1.0000
  C   C131      1.0  0.04441  0.49160  0.47401  1.0000
  C   C132      1.0  0.03739  0.48832  0.22119  1.0000
  H   H211      1.0  0.04634  0.50585  0.02010  1.0000
  C   C133      1.0  0.04190  0.35856  0.42157  1.0000
  H   H212      1.0  0.06214  0.48577  0.06627  1.0000
  H   H213      1.0  0.05783  0.45607  0.14236  1.0000
  H   H214      1.0  0.45317  0.65343  0.12899  1.0000
  C   C134      1.0  0.01703  0.48197  0.45555  1.0000
  H   H215      1.0  0.33664  0.64652  0.07171  1.0000
  H   H216      1.0  0.09197  0.32830  0.40515  1.0000
  H   H217      1.0  0.06528  0.37113  0.38274  1.0000
  C   C135      1.0  0.39575  0.64176  0.14666  1.0000
  C   C136      1.0  0.02251  0.64702  0.14313  1.0000
  H   H218      1.0  0.02535  0.37387  0.33585  1.0000
  H   H219      1.0  0.01333  0.36660  0.38256  1.0000
  H   H220      1.0  0.04586  0.46824  0.25713  1.0000
  Fe  Fe23      1.0  0.01680  0.44710  0.38859  1.0000
  S   S42       1.0  0.02364  0.41329  0.38854  1.0000
  H   H221      1.0  0.07591  0.49820  0.33247  1.0000
  H   H222      1.0  0.42571  0.32951  0.29241  1.0000
  H   H223      1.0  0.36326  0.62425  0.06104  1.0000
  C   C137      1.0  0.09159  0.33304  0.38247  1.0000
  C   C138      1.0  0.00508  0.45224  0.11438  1.0000
  H   H224      1.0  0.36222  0.59046  0.09915  1.0000
  H   H225      1.0  0.01675  0.54973  0.32317  1.0000
  H   H226      1.0  0.05988  0.52233  0.31836  1.0000
  S   S43       1.0  0.99804  0.41412  0.32077  1.0000
  H   H227      1.0  0.04908  0.49961  0.29980  1.0000
  H   H228      1.0  0.35677  0.34229  0.29473  1.0000
  H   H229      1.0  0.07939  0.49791  0.09779  1.0000
  H   H230      1.0  0.45902  0.63354  0.15485  1.0000
  C   C139      1.0  0.39432  0.59486  0.09802  1.0000
  C   C140      1.0  0.02538  0.47841  0.24646  1.0000
  H   H231      1.0  0.00189  0.63511  0.08806  1.0000
  C   C141      1.0  0.05082  0.34370  0.34178  1.0000
  H   H232      1.0  0.08019  0.35030  0.33524  1.0000
  H   H233      1.0  0.00411  0.50107  0.08787  1.0000
  C   C142      1.0  0.03108  0.50434  0.49621  1.0000
  H   H234      1.0  0.04817  0.32923  0.33003  1.0000
  H   H235      1.0  0.06717  0.48563  0.21283  1.0000
  C   C143      1.0  0.40595  0.61026  0.12101  1.0000
  C   C144      1.0  0.01944  0.55035  0.34670  1.0000
  H   H236      1.0  0.37032  0.33511  0.25966  1.0000
  H   H237      1.0  0.01623  0.44435  0.15875  1.0000
  H   H238      1.0  0.02058  0.35782  0.30588  1.0000
  H   H239      1.0  0.01541  0.47076  0.15407  1.0000
  H   H240      1.0  0.28958  0.61270  0.14517  1.0000
  H   H241      1.0  0.05238  0.49745  0.38635  1.0000
  C   C145      1.0  0.32233  0.61535  0.14831  1.0000
  H   H242      1.0  0.99786  0.63490  0.19486  1.0000
  C   C146      1.0  0.39392  0.64229  0.09471  1.0000
  C   C147      1.0  0.06056  0.48531  0.08982  1.0000
  H   H243      1.0  0.07632  0.48933  0.47096  1.0000
  H   H244      1.0  0.06973  0.51962  0.37041  1.0000
  H   H245      1.0  0.33654  0.60039  0.15097  1.0000
  H   H246      1.0  0.43878  0.61289  0.11845  1.0000
  H   H247      1.0  0.32506  0.62432  0.16808  1.0000
  H   H248      1.0  0.40263  0.60271  0.14198  1.0000
  H   H249      1.0  0.38045  0.64852  0.05021  1.0000
  H   H250      1.0  0.40177  0.60038  0.07650  1.0000
  H   H251      1.0  0.01156  0.61403  0.17324  1.0000
  H   H252      1.0  0.07204  0.35501  0.43039  1.0000
  H   H253      1.0  0.02838  0.44406  0.10190  1.0000
  H   H254      1.0  0.07257  0.52254  0.42156  1.0000
  H   H255      1.0  0.07420  0.47116  0.09766  1.0000
  C   C148      1.0  0.01695  0.48826  0.10017  1.0000
  N   N10       1.0  0.05027  0.34017  0.37352  1.0000
  C   C149      1.0  0.02064  0.32393  0.38125  1.0000
  H   H256      1.0  0.01191  0.56582  0.35388  1.0000
  S   S44       1.0  0.99731  0.56984  0.14732  1.0000
  H   H257      1.0  0.32681  0.61859  0.10334  1.0000
  C   C150      1.0  0.02452  0.45657  0.14375  1.0000
  C   C151      1.0  0.01147  0.50171  0.20675  1.0000
  H   H258      1.0  0.00756  0.48714  0.33926  1.0000
  N   N11       1.0  0.38329  0.62991  0.12070  1.0000
  H   H259      1.0  0.05447  0.65093  0.18391  1.0000
  H   H260      1.0  0.01877  0.49397  0.12214  1.0000
  C   C152      1.0  0.33842  0.62679  0.12220  1.0000
  C   C153      1.0  0.04307  0.52466  0.41080  1.0000
  S   S45       1.0  0.24577  0.64044  0.09658  1.0000
  S   S46       1.0  0.02875  0.51377  0.17478  1.0000
  N   N12       1.0  0.00539  0.51416  0.36495  1.0000
  C   C154      1.0  0.04234  0.35971  0.38886  1.0000
  H   H261      1.0  0.04444  0.63491  0.13795  1.0000
  C   C155      1.0  0.05143  0.50642  0.32131  1.0000
  C   C156      1.0  0.36395  0.32909  0.28114  1.0000
  C   C157      1.0  0.04377  0.51338  0.38213  1.0000
  C   C158      1.0  0.01089  0.50369  0.33669  1.0000
  H   H262      1.0  0.02013  0.51874  0.42556  1.0000
  H   H263      1.0  0.03342  0.37356  0.43010  1.0000
  C   C159      1.0  0.36694  0.63998  0.06809  1.0000
  H   H264      1.0  0.05119  0.54818  0.35293  1.0000
  H   H265      1.0  0.03869  0.54106  0.40789  1.0000
  C   C160      1.0  0.00848  0.54610  0.83164  1.0000
  Fe  Fe24      1.0  0.04766  0.41885  0.84903  1.0000
  S   S47       1.0  0.10409  0.40214  0.83379  1.0000
  H   H266      1.0  0.03158  0.54043  0.81663  1.0000
  C   C161      1.0  0.01701  0.53344  0.89420  1.0000
  S   S48       1.0  0.04590  0.45241  0.85533  1.0000
  Fe  Fe25      1.0  0.04998  0.56403  0.60739  1.0000
  S   S49       1.0  0.11488  0.57513  0.61299  1.0000
  H   H267      1.0  0.40601  0.40268  0.91730  1.0000
  C   C162      1.0  0.38946  0.38820  0.91891  1.0000
  S   S50       1.0  0.03823  0.53066  0.60174  1.0000
  C   C163      1.0  0.06194  0.48507  0.56274  1.0000
  S   S51       1.0  0.21221  0.33707  0.89882  1.0000
  H   H268      1.0  0.27947  0.35845  0.87144  1.0000
  C   C164      1.0  0.13716  0.59872  0.60427  1.0000
  C   C165      1.0  0.17875  0.60137  0.60860  1.0000
  C   C166      1.0  0.19778  0.61981  0.60214  1.0000
  C   C167      1.0  0.17535  0.63591  0.59141  1.0000
  C   C168      1.0  0.13377  0.63325  0.58699  1.0000
  C   C169      1.0  0.11475  0.61483  0.59345  1.0000
  H   H269      1.0  0.19649  0.58897  0.61670  1.0000
  H   H270      1.0  0.22990  0.62136  0.60491  1.0000
  H   H271      1.0  0.04400  0.50067  0.84020  1.0000
  H   H272      1.0  0.08277  0.61304  0.58997  1.0000
  C   C170      1.0  0.13367  0.38412  0.85239  1.0000
  C   C171      1.0  0.16628  0.37499  0.83836  1.0000
  C   C172      1.0  0.19032  0.36042  0.85210  1.0000
  C   C173      1.0  0.18223  0.35492  0.88020  1.0000
  C   C174      1.0  0.14991  0.36418  0.89432  1.0000
  C   C175      1.0  0.12556  0.37858  0.88047  1.0000
  H   H273      1.0  0.17289  0.37924  0.81668  1.0000
  H   H274      1.0  0.21532  0.35363  0.84103  1.0000
  H   H275      1.0  0.14352  0.36017  0.91613  1.0000
  H   H276      1.0  0.10069  0.38550  0.89158  1.0000
  C   C176      1.0  0.07878  0.50077  0.87900  1.0000
  H   H277      1.0  0.29059  0.40478  0.86828  1.0000
  H   H278      1.0  0.07603  0.35891  0.81192  1.0000
  H   H279      1.0  0.02005  0.45829  0.63897  1.0000
  H   H280      1.0  0.28235  0.38706  0.83941  1.0000
  C   C177      1.0  0.34316  0.35210  0.90320  1.0000
  H   H281      1.0  0.04395  0.51296  0.92671  1.0000
  S   S52       1.0  0.00532  0.57313  0.57362  1.0000
  H   H282      1.0  0.41064  0.37636  0.91210  1.0000
  C   C178      1.0  0.02118  0.52499  0.92469  1.0000
  H   H283      1.0  0.32496  0.36504  0.94472  1.0000
  C   C179      1.0  0.04239  0.47186  0.58582  1.0000
  C   C180      1.0  0.29118  0.37258  0.88117  1.0000
  H   H284      1.0  0.09260  0.51176  0.89382  1.0000
  H   H285      1.0  0.17897  0.62491  0.66124  1.0000
  H   H286      1.0  0.34867  0.38189  0.84366  1.0000
  H   H287      1.0  0.35397  0.40234  0.88589  1.0000
  H   H288      1.0  0.04450  0.49895  0.55857  1.0000
  H   H289      1.0  0.48242  0.32669  0.89139  1.0000
  N   N13       1.0  0.18080  0.65320  0.68409  1.0000
  H   H290      1.0  0.09831  0.65191  0.66187  1.0000
  H   H291      1.0  0.06928  0.32849  0.84167  1.0000
  H   H292      1.0  0.06576  0.47672  0.54250  1.0000
  H   H293      1.0  0.28926  0.34755  0.92949  1.0000
  C   C181      1.0  0.08515  0.34381  0.80398  1.0000
  H   H294      1.0  0.00042  0.49264  0.89791  1.0000
  C   C182      1.0  0.35580  0.36885  0.85757  1.0000
  C   C183      1.0  0.32170  0.35103  0.93219  1.0000
  N   N14       1.0  0.99826  0.46728  0.58164  1.0000
  H   H295      1.0  0.38269  0.38636  0.94186  1.0000
  H   H296      1.0  0.06478  0.48833  0.89099  1.0000
  C   C184      1.0  0.00880  0.47915  0.96324  1.0000
  H   H297      1.0  0.24897  0.61561  0.66296  1.0000
  C   C185      1.0  0.40200  0.36739  0.85731  1.0000
  C   C186      1.0  0.03668  0.48709  0.98293  1.0000
  H   H298      1.0  0.41201  0.36434  0.83522  1.0000
  H   H299      1.0  0.41609  0.38181  0.86375  1.0000
  H   H300      1.0  0.34396  0.35529  0.84634  1.0000
  H   H301      1.0  0.04441  0.54257  0.88997  1.0000
  H   H302      1.0  0.21362  0.32390  0.79868  1.0000
  H   H303      1.0  0.24387  0.39204  0.86464  1.0000
  H   H304      1.0  0.06720  0.52389  0.84930  1.0000
  H   H305      1.0  0.11601  0.64554  0.57868  1.0000
  H   H306      1.0  0.05276  0.51177  0.50978  1.0000
  N   N15       1.0  0.01020  0.51844  0.87048  1.0000
  S   S53       1.0  0.02666  0.46319  0.93516  1.0000
  H   H307      1.0  0.24552  0.64002  0.64768  1.0000
  H   H308      1.0  0.26285  0.63690  0.68387  1.0000
  H   H309      1.0  0.06818  0.48334  0.98076  1.0000
  H   H310      1.0  0.33336  0.33873  0.89075  1.0000
  N   N16       1.0  0.33600  0.37103  0.88623  1.0000
  H   H311      1.0  0.41372  0.35484  0.87038  1.0000
  H   H312      1.0  0.19472  0.62253  0.69691  1.0000
  S   S54       1.0  0.01281  0.41311  0.88885  1.0000
  H   H313      1.0  0.17138  0.34019  0.79723  1.0000
  C   C187      1.0  0.18029  0.32419  0.79697  1.0000
  H   H314      1.0  0.32659  0.39495  0.91658  1.0000
  H   H315      1.0  0.23305  0.63980  0.72943  1.0000
  H   H316      1.0  0.03047  0.53730  0.93927  1.0000
  H   H317      1.0  0.27468  0.37431  0.90158  1.0000
  C   C188      1.0  0.35009  0.38980  0.90135  1.0000
  H   H318      1.0  0.09240  0.48974  0.56990  1.0000
  C   C189      1.0  0.04959  0.51122  0.85827  1.0000
  C   C190      1.0  0.27691  0.39021  0.86224  1.0000
  H   H319      1.0  0.00694  0.43644  0.59505  1.0000
  H   H320      1.0  0.10936  0.34624  0.78839  1.0000
  H   H321      1.0  0.37546  0.34930  0.90725  1.0000
  H   H322      1.0  0.10380  0.49401  0.86664  1.0000
  Fe  Fe26      1.0  0.00686  0.44681  0.89375  1.0000
  H   H323      1.0  0.04748  0.47974  0.60645  1.0000
  H   H324      1.0  0.04126  0.44132  0.54871  1.0000
  H   H325      1.0  0.06065  0.45788  0.58753  1.0000
  C   C191      1.0  0.14054  0.65099  0.69839  1.0000
  H   H326      1.0  0.33479  0.33852  0.94486  1.0000
  H   H327      1.0  0.05860  0.33735  0.79293  1.0000
  H   H328      1.0  0.07918  0.64018  0.69305  1.0000
  C   C192      1.0  0.19718  0.63247  0.67797  1.0000
  H   H329      1.0  0.11431  0.62683  0.67154  1.0000
  C   C193      1.0  0.24115  0.63153  0.66765  1.0000
  C   C194      1.0  0.09773  0.33062  0.82955  1.0000
  H   H330      1.0  0.19193  0.65346  0.74583  1.0000
  H   H331      1.0  0.14310  0.64106  0.71736  1.0000
  H   H332      1.0  0.01833  0.44712  0.51568  1.0000
  H   H333      1.0  0.02221  0.55687  0.84681  1.0000
  S   S55       1.0  0.00626  0.56650  0.64370  1.0000
  C   C195      1.0  0.01182  0.44413  0.53848  1.0000
  H   H334      1.0  0.11702  0.33996  0.84363  1.0000
  C   C196      1.0  0.10659  0.64196  0.67987  1.0000
  C   C197      1.0  0.38615  0.94863  0.42300  1.0000
  H   H335      1.0  0.01589  0.77346  0.41132  1.0000
  C   C198      1.0  0.38433  0.93684  0.47326  1.0000
  H   H336      1.0  0.44222  0.71648  0.19771  1.0000
  H   H337      1.0  0.04327  0.77863  0.21787  1.0000
  S   S56       1.0  0.40918  0.91005  0.35331  1.0000
  Fe  Fe27      1.0  0.26553  0.67319  0.10372  1.0000
  S   S57       1.0  0.22507  0.69994  0.10898  1.0000
  Fe  Fe28      1.0  0.34289  0.69811  0.11646  1.0000
  S   S58       1.0  0.30654  0.72649  0.12269  1.0000
  H   H338      1.0  0.35007  0.81792  0.44907  1.0000
  Fe  Fe29      1.0  0.26275  0.70770  0.14733  1.0000
  S   S59       1.0  0.23508  0.71216  0.19128  1.0000
  Fe  Fe30      1.0  0.27196  0.71670  0.08358  1.0000
  S   S60       1.0  0.25104  0.74121  0.05266  1.0000
  S   S61       1.0  0.30066  0.67992  0.14351  1.0000
  S   S62       1.0  0.31089  0.68935  0.07580  1.0000
  Fe  Fe31      1.0  0.26477  0.81335  0.37779  1.0000
  S   S63       1.0  0.28829  0.78306  0.36473  1.0000
  S   S64       1.0  0.31300  0.83329  0.39858  1.0000
  Fe  Fe32      1.0  0.17672  0.80052  0.36337  1.0000
  S   S65       1.0  0.19599  0.76942  0.34994  1.0000
  S   S66       1.0  0.11293  0.81205  0.35335  1.0000
  Fe  Fe33      1.0  0.23593  0.77047  0.38901  1.0000
  S   S67       1.0  0.24833  0.74333  0.41748  1.0000
  Fe  Fe34      1.0  0.24666  0.78491  0.32721  1.0000
  S   S68       1.0  0.26846  0.78172  0.28141  1.0000
  S   S69       1.0  0.21367  0.80059  0.40394  1.0000
  S   S70       1.0  0.22608  0.81613  0.33874  1.0000
  C   C199      1.0  0.25556  0.74249  0.01512  1.0000
  H   H339      1.0  0.35537  0.95501  0.42454  1.0000
  C   C200      1.0  0.24018  0.76088  0.47076  1.0000
  C   C201      1.0  0.25397  0.74446  0.45494  1.0000
  C   C202      1.0  0.27222  0.72826  0.46925  1.0000
  H   H340      1.0  0.28943  0.71514  0.01016  1.0000
  C   C203      1.0  0.37570  0.76056  0.23826  1.0000
  H   H341      1.0  0.22568  0.77334  0.46007  1.0000
  H   H342      1.0  0.28298  0.71549  0.45720  1.0000
  H   H343      1.0  0.38289  0.92445  0.28162  1.0000
  C   C204      1.0  0.24500  0.73160  0.21603  1.0000
  C   C205      1.0  0.23520  0.72858  0.24478  1.0000
  C   C206      1.0  0.24189  0.74380  0.26512  1.0000
  C   C207      1.0  0.25855  0.76217  0.25682  1.0000
  C   C208      1.0  0.26813  0.76521  0.22806  1.0000
  C   C209      1.0  0.26133  0.75003  0.20773  1.0000
  H   H344      1.0  0.22235  0.71438  0.25135  1.0000
  H   H345      1.0  0.23449  0.74125  0.28720  1.0000
  H   H346      1.0  0.28067  0.77948  0.22144  1.0000
  H   H347      1.0  0.26819  0.75269  0.18558  1.0000
  C   C210      1.0  0.03060  0.80893  0.34712  1.0000
  C   C211      1.0  0.06459  0.80254  0.36267  1.0000
  C   C212      1.0  0.05899  0.78938  0.38549  1.0000
  H   H348      1.0  0.03452  0.81912  0.32943  1.0000
  H   H349      1.0  0.08469  0.78437  0.39773  1.0000
  H   H350      1.0  0.22216  0.77024  0.01269  1.0000
  C   C213      1.0  0.45821  0.69505  0.11713  1.0000
  C   C214      1.0  0.46491  0.68717  0.08994  1.0000
  C   C215      1.0  0.36196  0.76317  0.41349  1.0000
  C   C216      1.0  0.37104  0.75084  0.48021  1.0000
  C   C217      1.0  0.38520  0.88735  0.36405  1.0000
  C   C218      1.0  0.40052  0.87536  0.38599  1.0000
  C   C219      1.0  0.37827  0.85874  0.39601  1.0000
  C   C220      1.0  0.34117  0.85344  0.38359  1.0000
  C   C221      1.0  0.32648  0.86507  0.36106  1.0000
  C   C222      1.0  0.34811  0.88207  0.35164  1.0000
  H   H351      1.0  0.42905  0.87915  0.39567  1.0000
  H   H352      1.0  0.38984  0.84997  0.41353  1.0000
  H   H353      1.0  0.29785  0.86131  0.35145  1.0000
  H   H354      1.0  0.33581  0.89127  0.33477  1.0000
  H   H355      1.0  0.45237  0.70994  0.24927  1.0000
  H   H356      1.0  0.35401  0.76386  0.22105  1.0000
  C   C223      1.0  0.40679  0.78900  0.45386  1.0000
  C   C224      1.0  0.44468  0.96228  0.25623  1.0000
  H   H357      1.0  0.35860  0.75794  0.25819  1.0000
  C   C225      1.0  0.44442  0.91797  0.27352  1.0000
  H   H358      1.0  0.15005  0.74630  0.27639  1.0000
  H   H359      1.0  0.16473  0.66820  0.48860  1.0000
  H   H360      1.0  0.17822  0.70709  0.45587  1.0000
  H   H361      1.0  0.43135  0.74830  0.22087  1.0000
  C   C226      1.0  0.44147  0.90264  0.45565  1.0000
  H   H362      1.0  0.37518  0.92345  0.48592  1.0000
  H   H363      1.0  0.14864  0.72924  0.46282  1.0000
  H   H364      1.0  0.29289  0.80009  0.49351  1.0000
  H   H365      1.0  0.31889  0.70002  0.20004  1.0000
  H   H366      1.0  0.45104  0.80198  0.42506  1.0000
  H   H367      1.0  0.42149  0.79383  0.47406  1.0000
  H   H368      1.0  0.45681  0.93213  0.44108  1.0000
  H   H369      1.0  0.37866  0.65619  0.14777  1.0000
  H   H370      1.0  0.02970  0.78158  0.25476  1.0000
  C   C227      1.0  0.40671  0.93099  0.26785  1.0000
  H   H371      1.0  0.30785  0.93240  0.41810  1.0000
  H   H372      1.0  0.14572  0.81670  0.25924  1.0000
  H   H373      1.0  0.42471  0.88927  0.44795  1.0000
  C   C228      1.0  0.01986  0.78321  0.39314  1.0000
  C   C229      1.0  0.43182  0.92146  0.43766  1.0000
  S   S71       1.0  0.40895  0.69822  0.13170  1.0000
  N   N17       1.0  0.12017  0.77463  0.26780  1.0000
  C   C230      1.0  0.16076  0.78484  0.26789  1.0000
  C   C231      1.0  0.12750  0.75268  0.26127  1.0000
  C   C232      1.0  0.10220  0.77718  0.29711  1.0000
  C   C233      1.0  0.09419  0.78470  0.24572  1.0000
  C   C234      1.0  0.16102  0.80742  0.27557  1.0000
  C   C235      1.0  0.14173  0.74792  0.23077  1.0000
  C   C236      1.0  0.07096  0.76152  0.30692  1.0000
  C   C237      1.0  0.05258  0.77528  0.24007  1.0000
  H   H374      1.0  0.18141  0.77720  0.28315  1.0000
  H   H375      1.0  0.17562  0.78379  0.24684  1.0000
  H   H376      1.0  0.12608  0.77684  0.31374  1.0000
  H   H377      1.0  0.08781  0.79224  0.29927  1.0000
  H   H378      1.0  0.08790  0.80056  0.25190  1.0000
  H   H379      1.0  0.11025  0.78624  0.22508  1.0000
  H   H380      1.0  0.28147  0.80146  0.45573  1.0000
  C   C238      1.0  0.42029  0.95617  0.30452  1.0000
  C   C239      1.0  0.30014  0.80768  0.47318  1.0000
  H   H381      1.0  0.17060  0.75523  0.22542  1.0000
  H   H382      1.0  0.14686  0.73145  0.22883  1.0000
  H   H383      1.0  0.35996  0.71910  0.17382  1.0000
  H   H384      1.0  0.08543  0.74680  0.31144  1.0000
  H   H385      1.0  0.02058  0.65669  0.12388  1.0000
  H   H386      1.0  0.05232  0.75869  0.24153  1.0000
  C   C240      1.0  0.27577  0.72780  0.99936  1.0000
  H   H387      1.0  0.30763  0.92864  0.45642  1.0000
  H   H388      1.0  0.36554  0.90997  0.41219  1.0000
  H   H389      1.0  0.38068  0.74862  0.14840  1.0000
  H   H390      1.0  0.40483  0.69778  0.19526  1.0000
  H   H391      1.0  0.45057  0.94999  0.30974  1.0000
  H   H392      1.0  0.39574  0.92798  0.24588  1.0000
  H   H393      1.0  0.12103  0.69401  0.47784  1.0000
  H   H394      1.0  0.05750  0.76664  0.32726  1.0000
  C   C241      1.0  0.33479  0.95762  0.28240  1.0000
  H   H395      1.0  0.47396  0.89904  0.45345  1.0000
  H   H396      1.0  0.41742  0.96030  0.21336  1.0000
  H   H397      1.0  0.33858  0.96022  0.30551  1.0000
  H   H398      1.0  0.30907  0.96708  0.27536  1.0000
  H   H399      1.0  0.02124  0.67172  0.17481  1.0000
  H   H400      1.0  0.33458  0.79220  0.41748  1.0000
  H   H401      1.0  0.45683  0.68773  0.22841  1.0000
  H   H402      1.0  0.45301  0.94036  0.22153  1.0000
  C   C242      1.0  0.41420  0.96670  0.42803  1.0000
  H   H403      1.0  0.22663  0.69189  0.48246  1.0000
  H   H404      1.0  0.19275  0.81264  0.27644  1.0000
  H   H405      1.0  0.42179  0.77465  0.44848  1.0000
  H   H406      1.0  0.46195  0.98073  0.10591  1.0000
  H   H407      1.0  0.43559  0.90495  0.47855  1.0000
  H   H408      1.0  0.35866  0.94756  0.47475  1.0000
  C   C243      1.0  0.35503  0.77248  0.48296  1.0000
  H   H409      1.0  0.40392  0.75014  0.47681  1.0000
  C   C244      1.0  0.39549  0.74575  0.16920  1.0000
  H   H410      1.0  0.40740  0.97441  0.44837  1.0000
  C   C245      1.0  0.13686  0.70466  0.49224  1.0000
  H   H411      1.0  0.33883  0.74031  0.19001  1.0000
  H   H412      1.0  0.43962  0.68372  0.07631  1.0000
  H   H413      1.0  0.44595  0.90561  0.25766  1.0000
  H   H414      1.0  0.06819  0.66830  0.15694  1.0000
  H   H415      1.0  0.14790  0.81042  0.29674  1.0000
  C   C246      1.0  0.41987  0.97820  0.31495  1.0000
  C   C247      1.0  0.31569  0.92194  0.43564  1.0000
  H   H416      1.0  0.16564  0.65894  0.10054  1.0000
  H   H417      1.0  0.40062  0.76061  0.17925  1.0000
  H   H418      1.0  0.40101  0.80266  0.41093  1.0000
  H   H419      1.0  0.37483  0.77018  0.39412  1.0000
  H   H420      1.0  0.41234  0.69139  0.24878  1.0000
  H   H421      1.0  0.31040  0.77326  0.43744  1.0000
  N   N18       1.0  0.41103  0.95321  0.27343  1.0000
  H   H422      1.0  0.35217  0.68472  0.22152  1.0000
  H   H423      1.0  0.44303  0.91118  0.29506  1.0000
  H   H424      1.0  0.44539  0.65837  0.16577  1.0000
  N   N19       1.0  0.36217  0.78646  0.45824  1.0000
  H   H425      1.0  0.38945  0.98496  0.31392  1.0000
  H   H426      1.0  0.11875  0.75199  0.21464  1.0000
  H   H427      1.0  0.36161  0.71385  0.25534  1.0000
  N   N20       1.0  0.39117  0.93088  0.44267  1.0000
  C   C248      1.0  0.33133  0.69773  0.22163  1.0000
  H   H428      1.0  0.32597  0.94175  0.27861  1.0000
  H   H429      1.0  0.38997  0.94377  0.40044  1.0000
  H   H430      1.0  0.18992  0.72419  0.48466  1.0000
  H   H431      1.0  0.43480  0.91704  0.41491  1.0000
  H   H432      1.0  0.29636  0.90846  0.43263  1.0000
  C   C249      1.0  0.41895  0.80427  0.43069  1.0000
  H   H433      1.0  0.33914  0.75226  0.40566  1.0000
  H   H434      1.0  0.41619  0.81994  0.43860  1.0000
  H   H435      1.0  0.38532  0.75421  0.42432  1.0000
  C   C250      1.0  0.34554  0.80682  0.46643  1.0000
  H   H436      1.0  0.41494  0.73742  0.25257  1.0000
  H   H437      1.0  0.29107  0.82368  0.47565  1.0000
  H   H438      1.0  0.04591  0.75952  0.29173  1.0000
  C   C251      1.0  0.34056  0.77925  0.43189  1.0000
  H   H439      1.0  0.36189  0.81300  0.48521  1.0000
  H   H440      1.0  0.42466  0.73842  0.16451  1.0000
  H   H441      1.0  0.10024  0.74339  0.26438  1.0000
  H   H442      1.0  0.32692  0.72829  0.23578  1.0000
  N   N21       1.0  0.38489  0.72543  0.21545  1.0000
  C   C252      1.0  0.41665  0.70977  0.20956  1.0000
  C   C253      1.0  0.36783  0.73226  0.18732  1.0000
  C   C254      1.0  0.35132  0.71697  0.23326  1.0000
  C   C255      1.0  0.40374  0.74262  0.23153  1.0000
  H   H443      1.0  0.35464  0.74238  0.46352  1.0000
  H   H444      1.0  0.30557  0.69369  0.23550  1.0000
  H   H445      1.0  0.36240  0.90176  0.44802  1.0000
  H   H446      1.0  0.39388  0.77447  0.24060  1.0000
  C   C256      1.0  0.36016  0.91533  0.43427  1.0000
  Fe  Fe35      1.0  0.47399  0.91984  0.36235  1.0000
  H   H447      1.0  0.39930  0.94741  0.31811  1.0000
  H   H448      1.0  0.36488  0.96041  0.24250  1.0000
  C   C257      1.0  0.37237  0.96354  0.26511  1.0000
  H   H449      1.0  0.47448  0.95844  0.26542  1.0000
  C   C258      1.0  0.16546  0.71668  0.47295  1.0000
  C   C259      1.0  0.43512  0.69931  0.23580  1.0000
  H   H450      1.0  0.23624  0.66584  0.48844  1.0000
  S   S72       1.0  0.48334  0.95266  0.37191  1.0000
  C   C260      1.0  0.42023  0.94642  0.48945  1.0000
  C   C261      1.0  0.04214  0.66022  0.16632  1.0000
  H   H451      1.0  0.99678  0.85244  0.37684  1.0000
  H   H452      1.0  0.47312  0.92621  0.27173  1.0000
  H   H453      1.0  0.32243  0.77074  0.48700  1.0000
  H   H454      1.0  0.44530  0.95165  0.47613  1.0000
  C   C262      1.0  0.44579  0.95652  0.22451  1.0000
  H   H455      1.0  0.44640  0.96263  0.42714  1.0000
  H   H456      1.0  0.47016  0.96521  0.21403  1.0000
  H   H457      1.0  0.44362  0.97902  0.25706  1.0000
  C   C263      1.0  0.49306  0.97582  0.11115  1.0000
  H   H458      1.0  0.42937  0.97864  0.33756  1.0000
  H   H459      1.0  0.49053  0.96083  0.12132  1.0000
  H   H460      1.0  0.48724  0.70552  0.15541  1.0000
  C   C264      1.0  0.23796  0.75884  0.00068  1.0000
  C   C265      1.0  0.49180  0.69951  0.13432  1.0000
  H   H461      1.0  0.40914  0.97794  0.41092  1.0000
  H   H462      1.0  0.37555  0.98020  0.26632  1.0000
  H   H463      1.0  0.16386  0.73088  0.00223  1.0000
  H   H464      1.0  0.39271  0.65871  0.09963  1.0000
  H   H465      1.0  0.01055  0.84913  0.41325  1.0000
  H   H466      1.0  0.37879  0.86006  0.94627  1.0000
  S   S73       1.0  0.45091  0.94391  0.86958  1.0000
  H   H467      1.0  0.13295  0.67978  0.55575  1.0000
  S   S74       1.0  0.40584  0.67582  0.61059  1.0000
  Fe  Fe36      1.0  0.46715  0.91095  0.86608  1.0000
  S   S75       1.0  0.42989  0.88276  0.85490  1.0000
  Fe  Fe37      1.0  0.25299  0.67775  0.59681  1.0000
  S   S76       1.0  0.23297  0.70889  0.60894  1.0000
  Fe  Fe38      1.0  0.34269  0.68965  0.60622  1.0000
  S   S77       1.0  0.32710  0.72139  0.61907  1.0000
  H   H468      1.0  0.06959  0.75440  0.92496  1.0000
  Fe  Fe39      1.0  0.27720  0.70754  0.64493  1.0000
  S   S78       1.0  0.25641  0.71043  0.69113  1.0000
  Fe  Fe40      1.0  0.28375  0.71997  0.58176  1.0000
  S   S79       1.0  0.26974  0.74638  0.55222  1.0000
  S   S80       1.0  0.29492  0.67573  0.63422  1.0000
  S   S81       1.0  0.30185  0.68902  0.56747  1.0000
  Fe  Fe41      1.0  0.23131  0.81494  0.87305  1.0000
  S   S82       1.0  0.27247  0.79011  0.85964  1.0000
  S   S83       1.0  0.25729  0.84569  0.88565  1.0000
  Fe  Fe42      1.0  0.15496  0.78788  0.86759  1.0000
  S   S84       1.0  0.19289  0.76162  0.85300  1.0000
  S   S85       1.0  0.08934  0.77807  0.87506  1.0000
  Fe  Fe43      1.0  0.23522  0.77044  0.88834  1.0000
  S   S86       1.0  0.26357  0.74689  0.91746  1.0000
  Fe  Fe44      1.0  0.22620  0.78374  0.82568  1.0000
  S   S87       1.0  0.24604  0.78357  0.77915  1.0000
  S   S88       1.0  0.19656  0.79559  0.90408  1.0000
  S   S89       1.0  0.18585  0.80964  0.83798  1.0000
  H   H469      1.0  0.36801  0.77892  0.50286  1.0000
  C   C266      1.0  0.02468  0.78744  0.78274  1.0000
  C   C267      1.0  0.24017  0.76042  0.97087  1.0000
  C   C268      1.0  0.26045  0.74575  0.95511  1.0000
  C   C269      1.0  0.27832  0.72949  0.96953  1.0000
  H   H470      1.0  0.19233  0.69829  0.55422  1.0000
  C   C270      1.0  0.29128  0.80663  0.94161  1.0000
  H   H471      1.0  0.22579  0.77284  0.96010  1.0000
  H   H472      1.0  0.29397  0.71802  0.95755  1.0000
  H   H473      1.0  0.05237  0.74033  0.95462  1.0000
  C   C271      1.0  0.25421  0.73106  0.71516  1.0000
  C   C272      1.0  0.24058  0.72760  0.74303  1.0000
  C   C273      1.0  0.23795  0.74344  0.76291  1.0000
  C   C274      1.0  0.24886  0.76298  0.75508  1.0000
  C   C275      1.0  0.26248  0.76645  0.72720  1.0000
  C   C276      1.0  0.26520  0.75059  0.70733  1.0000
  H   H474      1.0  0.23207  0.71256  0.74933  1.0000
  H   H475      1.0  0.22745  0.74054  0.78425  1.0000
  H   H476      1.0  0.27087  0.78149  0.72088  1.0000
  H   H477      1.0  0.27566  0.75347  0.68597  1.0000
  C   C277      1.0  0.26215  0.81496  0.96432  1.0000
  C   C278      1.0  0.04006  0.78862  0.87258  1.0000
  C   C279      1.0  0.03309  0.80857  0.86445  1.0000
  H   H478      1.0  0.02406  0.78601  0.75929  1.0000
  H   H479      1.0  0.05827  0.81826  0.85961  1.0000
  H   H480      1.0  0.46470  0.70470  0.66043  1.0000
  C   C280      1.0  0.45488  0.68470  0.60164  1.0000
  H   H481      1.0  0.48410  0.65859  0.61940  1.0000
  H   H482      1.0  0.26282  0.83161  0.96560  1.0000
  H   H483      1.0  0.43573  0.71230  0.58201  1.0000
  C   C281      1.0  0.38231  0.87273  0.86511  1.0000
  C   C282      1.0  0.37276  0.85288  0.85707  1.0000
  C   C283      1.0  0.33488  0.84441  0.86334  1.0000
  C   C284      1.0  0.30577  0.85569  0.87762  1.0000
  C   C285      1.0  0.31557  0.87539  0.88622  1.0000
  C   C286      1.0  0.35357  0.88387  0.88006  1.0000
  H   H484      1.0  0.39485  0.84405  0.84574  1.0000
  H   H485      1.0  0.32810  0.82917  0.85701  1.0000
  H   H486      1.0  0.29346  0.88427  0.89748  1.0000
  H   H487      1.0  0.36034  0.89914  0.88645  1.0000
  C   C287      1.0  0.07513  0.74040  0.93727  1.0000
  H   H488      1.0  0.24265  0.68304  0.51706  1.0000
  H   H489      1.0  0.15970  0.65549  0.64065  1.0000
  H   H490      1.0  0.33114  0.83929  0.97024  1.0000
  H   H491      1.0  0.09999  0.69791  0.54088  1.0000
  C   C288      1.0  0.14832  0.74182  0.92643  1.0000
  H   H492      1.0  0.12586  0.78097  0.93469  1.0000
  C   C289      1.0  0.16177  0.72203  0.91187  1.0000
  C   C290      1.0  0.12128  0.68565  0.53515  1.0000
  H   H493      1.0  0.13796  0.75225  0.90945  1.0000
  H   H494      1.0  0.17627  0.74869  0.93503  1.0000
  C   C291      1.0  0.26325  0.74495  0.51485  1.0000
  H   H495      1.0  0.13507  0.72215  0.56234  1.0000
  H   H496      1.0  0.43235  0.93584  0.50563  1.0000
  C   C292      1.0  0.18060  0.70696  0.53573  1.0000
  H   H497      1.0  0.16762  0.72514  0.88906  1.0000
  H   H498      1.0  0.13988  0.70959  0.91244  1.0000
  H   H499      1.0  0.19113  0.71689  0.92056  1.0000
  C   C293      1.0  0.37972  0.84378  0.94089  1.0000
  C   C294      1.0  0.00672  0.77633  0.87886  1.0000
  H   H500      1.0  0.36874  0.77274  0.93344  1.0000
  H   H501      1.0  0.24073  0.66441  0.74351  1.0000
  H   H502      1.0  0.28644  0.79009  0.94106  1.0000
  H   H503      1.0  0.03219  0.72484  0.91049  1.0000
  H   H504      1.0  0.07096  0.66482  0.53695  1.0000
  H   H505      1.0  0.26770  0.80826  0.98554  1.0000
  C   C295      1.0  0.35679  0.78124  0.91500  1.0000
  C   C296      1.0  0.15702  0.68543  0.65808  1.0000
  H   H506      1.0  0.15409  0.69147  0.63615  1.0000
  H   H507      1.0  0.12638  0.68501  0.66715  1.0000
  H   H508      1.0  0.17589  0.69629  0.67003  1.0000
  N   N22       1.0  0.33520  0.81159  0.94584  1.0000
  C   C297      1.0  0.35727  0.80418  0.91988  1.0000
  C   C298      1.0  0.34905  0.80133  0.97272  1.0000
  H   H509      1.0  0.41135  0.97514  0.90585  1.0000
  C   C299      1.0  0.46124  0.70304  0.58776  1.0000
  H   H510      1.0  0.05279  0.78017  0.79046  1.0000
  H   H511      1.0  0.34457  0.81136  0.90047  1.0000
  H   H512      1.0  0.33924  0.78529  0.97346  1.0000
  H   H513      1.0  0.11895  0.70764  0.95564  1.0000
  H   H514      1.0  0.23394  0.77385  0.51261  1.0000
  H   H515      1.0  0.37620  0.77760  0.89652  1.0000
  H   H516      1.0  0.06793  0.70818  0.92603  1.0000
  C   C300      1.0  0.17686  0.66446  0.65644  1.0000
  H   H517      1.0  0.48798  0.70174  0.69419  1.0000
  N   N23       1.0  0.31471  0.84013  0.76406  1.0000
  C   C301      1.0  0.31529  0.84628  0.73316  1.0000
  C   C302      1.0  0.33887  0.85555  0.78031  1.0000
  C   C303      1.0  0.27138  0.84045  0.77378  1.0000
  C   C304      1.0  0.33217  0.81920  0.76612  1.0000
  C   C305      1.0  0.28883  0.83359  0.71289  1.0000
  C   C306      1.0  0.38398  0.85671  0.77300  1.0000
  C   C307      1.0  0.26358  0.84242  0.80592  1.0000
  C   C308      1.0  0.34176  0.81099  0.79599  1.0000
  H   H518      1.0  0.30561  0.86227  0.73076  1.0000
  H   H519      1.0  0.34627  0.84549  0.72439  1.0000
  H   H520      1.0  0.33742  0.85308  0.80350  1.0000
  H   H521      1.0  0.32577  0.87085  0.77725  1.0000
  H   H522      1.0  0.25492  0.85332  0.76394  1.0000
  H   H523      1.0  0.25525  0.82666  0.76660  1.0000
  H   H524      1.0  0.31129  0.80804  0.75647  1.0000
  H   H525      1.0  0.35982  0.81762  0.75300  1.0000
  H   H526      1.0  0.25650  0.83420  0.71856  1.0000
  H   H527      1.0  0.29145  0.83975  0.69103  1.0000
  H   H528      1.0  0.29886  0.81769  0.71188  1.0000
  H   H529      1.0  0.39884  0.86727  0.78809  1.0000
  H   H530      1.0  0.39925  0.84198  0.77542  1.0000
  H   H531      1.0  0.38909  0.86280  0.75138  1.0000
  H   H532      1.0  0.27264  0.85737  0.81428  1.0000
  H   H533      1.0  0.27800  0.83034  0.81838  1.0000
  H   H534      1.0  0.23075  0.84130  0.80968  1.0000
  H   H535      1.0  0.31512  0.80360  0.80546  1.0000
  H   H536      1.0  0.35384  0.82236  0.81072  1.0000
  H   H537      1.0  0.36602  0.79956  0.79428  1.0000
  H   H538      1.0  0.14819  0.73572  0.53003  1.0000
  C   C309      1.0  0.39434  0.80220  0.97966  1.0000
  C   C310      1.0  0.33882  0.83422  0.94836  1.0000
  C   C311      1.0  0.20853  0.66482  0.70340  1.0000
  H   H539      1.0  0.15201  0.75953  0.97751  1.0000
  C   C312      1.0  0.12089  0.75827  0.96897  1.0000
  H   H540      1.0  0.09790  0.72097  0.98410  1.0000
  H   H541      1.0  0.02688  0.80351  0.78901  1.0000
  H   H542      1.0  0.08172  0.72465  0.89652  1.0000
  C   C313      1.0  0.17971  0.67572  0.50694  1.0000
  H   H543      1.0  0.38562  0.84297  0.91771  1.0000
  H   H544      1.0  0.18876  0.72280  0.97007  1.0000
  C   C314      1.0  0.48859  0.67285  0.60880  1.0000
  H   H545      1.0  0.07832  0.78122  0.95319  1.0000
  H   H546      1.0  0.18187  0.73492  0.55954  1.0000
  H   H547      1.0  0.31666  0.84183  0.93415  1.0000
  H   H548      1.0  0.41547  0.98639  0.87150  1.0000
  H   H549      1.0  0.23732  0.66835  0.69245  1.0000
  H   H550      1.0  0.36507  0.74277  0.50047  1.0000
  C   C315      1.0  0.11124  0.77893  0.95556  1.0000
  S   S90       1.0  0.19732  0.65964  0.58300  1.0000
  H   H551      1.0  0.38934  0.80863  0.91996  1.0000
  H   H552      1.0  0.19536  0.67972  0.70884  1.0000
  H   H553      1.0  0.28058  0.81229  0.92065  1.0000
  C   C316      1.0  0.15956  0.72592  0.54734  1.0000
  H   H554      1.0  0.32637  0.77574  0.90949  1.0000
  N   N24       1.0  0.11709  0.74021  0.94958  1.0000
  H   H555      1.0  0.12236  0.79106  0.96979  1.0000
  H   H556      1.0  0.40513  0.83709  0.95272  1.0000
  C   C317      1.0  0.06438  0.72332  0.91655  1.0000
  H   H557      1.0  0.12985  0.66571  0.70676  1.0000
  H   H558      1.0  0.20683  0.66693  0.64669  1.0000
  H   H559      1.0  0.16584  0.70489  0.99319  1.0000
  C   C318      1.0  0.09547  0.66871  0.52193  1.0000
  N   N25       1.0  0.15526  0.69353  0.51703  1.0000
  H   H560      1.0  0.11251  0.71505  0.49922  1.0000
  C   C319      1.0  0.16260  0.72023  0.98407  1.0000
  H   H561      1.0  0.08100  0.67337  0.50175  1.0000
  C   C320      1.0  0.12226  0.72174  0.96790  1.0000
  H   H562      1.0  0.29157  0.71607  0.50973  1.0000
  H   H563      1.0  0.01158  0.76087  0.88512  1.0000
  H   H564      1.0  0.10106  0.75662  0.98790  1.0000
  H   H565      1.0  0.18171  0.66404  0.52387  1.0000
  H   H566      1.0  0.23091  0.81086  0.95834  1.0000
  H   H567      1.0  0.41395  0.80132  0.96081  1.0000
  C   C321      1.0  0.24471  0.76108  0.50055  1.0000
  S   S91       1.0  0.47402  0.96214  0.94781  1.0000
  H   H568      1.0  0.20800  0.71230  0.52487  1.0000
  H   H569      1.0  0.40964  0.95979  0.50149  1.0000
  C   C322      1.0  0.47140  0.98684  0.99518  1.0000
  Fe  Fe45      1.0  0.49365  0.94498  0.90726  1.0000
  H   H570      1.0  0.48768  0.95572  0.75986  1.0000
  C   C323      1.0  0.27696  0.72851  0.49904  1.0000
  H   H571      1.0  0.44055  0.98182  0.99685  1.0000
  H   H572      1.0  0.40169  0.81595  0.99204  1.0000
  H   H573      1.0  0.33387  0.80802  0.99152  1.0000
  H   H574      1.0  0.48390  0.96637  0.70918  1.0000
  C   C324      1.0  0.22365  0.67970  0.49820  1.0000
  H   H575      1.0  0.40256  0.78882  0.99261  1.0000
  C   C325      1.0  0.49260  0.97717  0.72526  1.0000
  C   C326      1.0  0.49428  0.70262  0.67114  1.0000
  C   C327      1.0  0.21877  0.65474  0.73204  1.0000
  H   H576      1.0  0.11307  0.65471  0.51864  1.0000
  Fe  Fe46      1.0  0.87638  0.20010  0.12160  1.0000
  S   S92       1.0  0.83723  0.22696  0.11076  1.0000
  S   S93       1.0  0.94319  0.20832  0.12896  1.0000
  Fe  Fe47      1.0  0.80142  0.17176  0.12192  1.0000
  S   S94       1.0  0.75937  0.19694  0.11184  1.0000
  S   S95       1.0  0.77739  0.13934  0.12421  1.0000
  Fe  Fe48      1.0  0.80528  0.20670  0.07959  1.0000
  S   S96       1.0  0.78863  0.20832  0.03231  1.0000
  Fe  Fe49      1.0  0.79499  0.21476  0.14408  1.0000
  S   S97       1.0  0.75875  0.23387  0.17534  1.0000
  S   S98       1.0  0.84678  0.18059  0.08852  1.0000
  S   S99       1.0  0.83486  0.18887  0.15634  1.0000
  Fe  Fe50      1.0  0.74897  0.26558  0.33939  1.0000
  H   H577      1.0  0.69352  0.05645  0.48385  1.0000
  S   S100      1.0  0.78439  0.24538  0.30905  1.0000
  Fe  Fe51      1.0  0.74018  0.27701  0.40297  1.0000
  H   H578      1.0  0.65560  0.17279  0.21180  1.0000
  S   S101      1.0  0.75866  0.27475  0.44981  1.0000
  Fe  Fe52      1.0  0.66772  0.28074  0.36255  1.0000
  C   C328      1.0  0.77362  0.22882  0.01037  1.0000
  C   C329      1.0  0.85984  0.30009  0.25850  1.0000
  S   S102      1.0  0.70855  0.25482  0.37468  1.0000
  S   S103      1.0  0.78473  0.28543  0.36902  1.0000
  C   C330      1.0  0.49758  0.98939  0.46417  1.0000
  S   S104      1.0  0.58371  0.04205  0.11418  1.0000
  H   H579      1.0  0.50602  0.26875  0.43664  1.0000
  S   S105      1.0  0.55051  0.00565  0.17655  1.0000
  Fe  Fe53      1.0  0.56475  0.07430  0.12140  1.0000
  S   S106      1.0  0.59674  0.10508  0.12575  1.0000
  H   H580      1.0  0.69592  0.12776  0.00681  1.0000
  C   C331      1.0  0.54396  0.99874  0.21319  1.0000
  H   H581      1.0  0.84875  0.26970  0.27634  1.0000
  H   H582      1.0  0.52670  0.28217  0.46605  1.0000
  H   H583      1.0  0.61996  0.01813  0.46381  1.0000
  H   H584      1.0  0.71550  0.18902  0.27211  1.0000
  Fe  Fe54      1.0  0.74106  0.30949  0.35661  1.0000
  C   C332      1.0  0.55204  0.28095  0.36594  1.0000
  C   C333      1.0  0.54501  0.30142  0.37079  1.0000
  H   H585      1.0  0.88060  0.23045  0.47953  1.0000
  C   C334      1.0  0.52695  0.01168  0.23336  1.0000
  H   H586      1.0  0.95779  0.31956  0.39249  1.0000
  C   C335      1.0  0.72687  0.13014  0.12434  1.0000
  C   C336      1.0  0.69358  0.14298  0.12607  1.0000
  C   C337      1.0  0.65421  0.13500  0.12641  1.0000
  C   C338      1.0  0.64736  0.11409  0.12488  1.0000
  C   C339      1.0  0.68063  0.10127  0.12299  1.0000
  C   C340      1.0  0.72004  0.10925  0.12283  1.0000
  H   H587      1.0  0.69816  0.15907  0.12720  1.0000
  H   H588      1.0  0.62885  0.14513  0.12768  1.0000
  H   H589      1.0  0.67604  0.08517  0.12188  1.0000
  H   H590      1.0  0.74547  0.09912  0.12157  1.0000
  C   C341      1.0  0.51879  0.26782  0.36492  1.0000
  H   H591      1.0  0.50270  0.16913  0.16112  1.0000
  H   H592      1.0  0.72051  0.15752  0.07475  1.0000
  H   H593      1.0  0.52377  0.25194  0.36128  1.0000
  C   C342      1.0  0.58914  0.01760  0.47262  1.0000
  C   C343      1.0  0.75781  0.25451  0.47452  1.0000
  S   S107      1.0  0.52222  0.06539  0.15663  1.0000
  H   H594      1.0  0.75391  0.27917  0.01093  1.0000
  H   H595      1.0  0.78596  0.30096  0.23100  1.0000
  N   N26       1.0  0.72005  0.16678  0.21322  1.0000
  C   C344      1.0  0.74636  0.23503  0.46674  1.0000
  H   H596      1.0  0.54882  0.13100  0.18113  1.0000
  H   H597      1.0  0.97197  0.16965  0.10559  1.0000
  H   H598      1.0  0.77551  0.25144  0.04303  1.0000
  H   H599      1.0  0.73826  0.23188  0.44493  1.0000
  C   C345      1.0  0.77712  0.24274  0.27179  1.0000
  C   C346      1.0  0.74606  0.25262  0.25731  1.0000
  C   C347      1.0  0.74144  0.25006  0.22772  1.0000
  C   C348      1.0  0.76778  0.23766  0.21222  1.0000
  C   C349      1.0  0.79922  0.22802  0.22663  1.0000
  C   C350      1.0  0.80367  0.23048  0.25625  1.0000
  H   H600      1.0  0.72532  0.26206  0.26895  1.0000
  H   H601      1.0  0.71698  0.25756  0.21681  1.0000
  H   H602      1.0  0.81981  0.21850  0.21500  1.0000
  H   H603      1.0  0.82794  0.22286  0.26721  1.0000
  C   C351      1.0  0.89182  0.29860  0.31621  1.0000
  S   S108      1.0  0.51704  0.07290  0.08712  1.0000
  C   C352      1.0  0.54613  0.14700  0.17471  1.0000
  H   H604      1.0  0.83136  0.28863  0.31700  1.0000
  C   C353      1.0  0.53274  0.27734  0.44403  1.0000
  C   C354      1.0  0.75719  0.26411  0.00256  1.0000
  H   H605      1.0  0.71422  0.21139  0.25048  1.0000
  C   C355      1.0  0.80275  0.13477  0.04733  1.0000
  H   H606      1.0  0.64490  0.26962  0.49213  1.0000
  H   H607      1.0  0.56274  0.24915  0.45114  1.0000
  C   C356      1.0  0.61404  0.29401  0.44682  1.0000
  H   H608      1.0  0.51130  0.13801  0.07137  1.0000
  C   C357      1.0  0.68189  0.17190  0.19729  1.0000
  S   S109      1.0  0.70671  0.28993  0.32540  1.0000
  S   S110      1.0  0.60131  0.27075  0.36119  1.0000
  C   C358      1.0  0.66662  0.13135  0.04700  1.0000
  H   H609      1.0  0.64959  0.30452  0.48371  1.0000
  N   N27       1.0  0.83445  0.30950  0.28133  1.0000
  C   C359      1.0  0.76941  0.24840  0.02085  1.0000
  C   C360      1.0  0.74585  0.21953  0.48721  1.0000
  C   C361      1.0  0.52644  0.00744  0.01368  1.0000
  H   H610      1.0  0.74738  0.19645  0.21293  1.0000
  H   H611      1.0  0.60827  0.25100  0.48843  1.0000
  C   C362      1.0  0.79085  0.15181  0.20420  1.0000
  H   H612      1.0  0.83280  0.27282  0.24004  1.0000
  H   H613      1.0  0.67673  0.19288  0.24596  1.0000
  H   H614      1.0  0.67015  0.13162  0.20948  1.0000
  H   H615      1.0  0.68654  0.15600  0.24949  1.0000
  H   H616      1.0  0.68398  0.20506  0.19379  1.0000
  C   C363      1.0  0.65106  0.30441  0.46018  1.0000
  H   H617      1.0  0.78701  0.28696  0.28116  1.0000
  C   C364      1.0  0.84674  0.30288  0.31089  1.0000
  H   H618      1.0  0.68086  0.11799  0.05697  1.0000
  H   H619      1.0  0.65485  0.19276  0.16704  1.0000
  H   H620      1.0  0.57009  0.31175  0.37165  1.0000
  C   C365      1.0  0.70910  0.19489  0.25046  1.0000
  H   H621      1.0  0.53863  0.13688  0.11964  1.0000
  C   C366      1.0  0.68282  0.19158  0.17988  1.0000
  H   H622      1.0  0.75805  0.17148  0.17653  1.0000
  H   H623      1.0  0.70840  0.19207  0.16490  1.0000
  H   H624      1.0  0.57733  0.29393  0.49770  1.0000
  Fe  Fe55      1.0  0.53743  0.03302  0.14721  1.0000
  C   C367      1.0  0.72920  0.16406  0.05397  1.0000
  H   H625      1.0  0.51016  0.29534  0.30946  1.0000
  H   H626      1.0  0.72168  0.12281  0.21076  1.0000
  H   H627      1.0  0.56995  0.99056  0.12254  1.0000
  H   H628      1.0  0.64413  0.26562  0.41519  1.0000
  C   C368      1.0  0.75742  0.13081  0.04375  1.0000
  C   C369      1.0  0.77094  0.30850  0.24910  1.0000
  H   H629      1.0  0.56810  0.01822  0.45425  1.0000
  H   H630      1.0  0.61477  0.23168  0.42894  1.0000
  H   H631      1.0  0.61487  0.29653  0.42338  1.0000
  H   H632      1.0  0.73787  0.14707  0.17881  1.0000
  H   H633      1.0  0.57492  0.00209  0.08942  1.0000
  H   H634      1.0  0.58060  0.04906  0.47871  1.0000
  N   N28       1.0  0.60963  0.27185  0.45317  1.0000
  H   H635      1.0  0.89212  0.30398  0.26095  1.0000
  H   H636      1.0  0.66798  0.23210  0.42598  1.0000
  H   H637      1.0  0.65994  0.14264  0.06364  1.0000
  H   H638      1.0  0.66773  0.17589  0.04610  1.0000
  C   C370      1.0  0.64345  0.26115  0.43798  1.0000
  C   C371      1.0  0.73695  0.18488  0.22830  1.0000
  H   H639      1.0  0.67393  0.15969  0.18210  1.0000
  H   H640      1.0  0.68982  0.12015  0.24090  1.0000
  H   H641      1.0  0.90125  0.28440  0.30575  1.0000
  H   H642      1.0  0.77234  0.31056  0.29471  1.0000
  H   H643      1.0  0.58784  0.30288  0.45410  1.0000
  S   S111      1.0  0.54828  0.02442  0.03911  1.0000
  C   C372      1.0  0.69744  0.13031  0.22296  1.0000
  H   H644      1.0  0.57319  0.26080  0.41813  1.0000
  N   N29       1.0  0.73308  0.14797  0.03155  1.0000
  H   H645      1.0  0.73950  0.30284  0.24945  1.0000
  H   H646      1.0  0.73698  0.20451  0.48096  1.0000
  C   C373      1.0  0.57038  0.26389  0.44132  1.0000
  H   H647      1.0  0.53472  0.29070  0.42996  1.0000
  H   H648      1.0  0.80852  0.16409  0.21413  1.0000
  H   H649      1.0  0.63729  0.12630  0.03817  1.0000
  H   H650      1.0  0.76480  0.18089  0.24017  1.0000
  H   H651      1.0  0.70027  0.19237  0.06501  1.0000
  C   C374      1.0  0.69253  0.14004  0.02272  1.0000
  H   H652      1.0  0.67319  0.26547  0.44685  1.0000
  S   S112      1.0  0.69799  0.30258  0.39236  1.0000
  C   C375      1.0  0.71090  0.15085  0.23501  1.0000
  C   C376      1.0  0.52277  0.00547  0.26201  1.0000
  H   H653      1.0  0.55588  0.15615  0.19323  1.0000
  H   H654      1.0  0.56754  0.15029  0.15733  1.0000
  H   H655      1.0  0.64281  0.98990  0.08318  1.0000
  H   H656      1.0  0.67989  0.29762  0.45346  1.0000
  C   C377      1.0  0.64243  0.23792  0.43872  1.0000
  Fe  Fe56      1.0  0.53294  0.03993  0.08198  1.0000
  C   C378      1.0  0.69920  0.18125  0.04743  1.0000
  H   H657      1.0  0.78702  0.13921  0.21935  1.0000
  H   H658      1.0  0.89664  0.29650  0.33940  1.0000
  H   H659      1.0  0.75396  0.11684  0.03098  1.0000
  H   H660      1.0  0.74613  0.12660  0.06517  1.0000
  H   H661      1.0  0.80939  0.14593  0.18640  1.0000
  C   C379      1.0  0.75052  0.15942  0.19196  1.0000
  H   H662      1.0  0.73720  0.14823  0.24923  1.0000
  H   H663      1.0  0.51307  0.11239  0.15132  1.0000
  C   C380      1.0  0.85622  0.27700  0.25586  1.0000
  H   H664      1.0  0.80838  0.14835  0.06026  1.0000
  H   H665      1.0  0.75882  0.17126  0.05805  1.0000
  H   H666      1.0  0.81666  0.12191  0.05883  1.0000
  H   H667      1.0  0.91198  0.31082  0.30932  1.0000
  H   H668      1.0  0.88545  0.27048  0.24916  1.0000
  H   H669      1.0  0.64654  0.23197  0.46054  1.0000
  H   H670      1.0  0.51303  0.15986  0.11251  1.0000
  C   C381      1.0  0.50526  0.30862  0.37414  1.0000
  H   H671      1.0  0.67470  0.15184  0.01158  1.0000
  H   H672      1.0  0.70702  0.18963  0.02788  1.0000
  H   H673      1.0  0.49535  0.30995  0.27931  1.0000
  C   C382      1.0  0.61349  0.26727  0.48442  1.0000
  H   H674      1.0  0.58377  0.00291  0.48301  1.0000
  C   C383      1.0  0.50255  0.15285  0.16682  1.0000
  H   H675      1.0  0.63837  0.99843  0.11896  1.0000
  H   H676      1.0  0.64503  0.05492  0.46779  1.0000
  C   C384      1.0  0.66076  0.05676  0.48842  1.0000
  H   H677      1.0  0.51728  0.02655  0.22695  1.0000
  H   H678      1.0  0.81825  0.13614  0.02659  1.0000
  C   C385      1.0  0.50823  0.14355  0.11688  1.0000
  H   H679      1.0  0.78191  0.16480  0.01179  1.0000
  H   H680      1.0  0.85703  0.20665  0.48081  1.0000
  H   H681      1.0  0.50976  0.01574  0.27729  1.0000
  H   H682      1.0  0.83631  0.31399  0.32698  1.0000
  C   C386      1.0  0.75326  0.15709  0.00599  1.0000
  C   C387      1.0  0.79096  0.30340  0.27782  1.0000
  H   H683      1.0  0.85241  0.30657  0.23733  1.0000
  C   C388      1.0  0.87174  0.21822  0.49433  1.0000
  C   C389      1.0  0.58013  0.03554  0.49249  1.0000
  C   C390      1.0  0.58188  0.98791  0.10103  1.0000
  C   C391      1.0  0.99178  0.19867  0.12011  1.0000
  H   H684      1.0  0.51297  0.98920  0.07197  1.0000
  H   H685      1.0  0.91922  0.19649  0.49553  1.0000
  H   H686      1.0  0.65176  0.32036  0.45313  1.0000
  H   H687      1.0  0.65414  0.07171  0.49766  1.0000
  Fe  Fe57      1.0  0.84220  0.18775  0.62674  1.0000
  S   S113      1.0  0.82049  0.21826  0.61227  1.0000
  S   S114      1.0  0.90696  0.17548  0.62473  1.0000
  Fe  Fe58      1.0  0.75480  0.17220  0.63709  1.0000
  S   S115      1.0  0.72848  0.20163  0.62296  1.0000
  S   S116      1.0  0.71173  0.14917  0.65707  1.0000
  Fe  Fe59      1.0  0.77349  0.20120  0.58737  1.0000
  S   S117      1.0  0.75560  0.20306  0.54038  1.0000
  Fe  Fe60      1.0  0.77716  0.21612  0.64937  1.0000
  S   S118      1.0  0.75541  0.24212  0.67738  1.0000
  S   S119      1.0  0.79704  0.17064  0.60003  1.0000
  S   S120      1.0  0.80172  0.18672  0.66534  1.0000
  Fe  Fe61      1.0  0.73025  0.27014  0.84143  1.0000
  C   C392      1.0  0.60004  0.16476  0.63674  1.0000
  S   S121      1.0  0.76599  0.24914  0.81254  1.0000
  Fe  Fe62      1.0  0.71841  0.28207  0.90422  1.0000
  S   S122      1.0  0.51175  0.06352  0.65375  1.0000
  S   S123      1.0  0.73376  0.28092  0.95170  1.0000
  Fe  Fe63      1.0  0.64825  0.28619  0.86140  1.0000
  H   H688      1.0  0.84914  0.22480  0.50871  1.0000
  H   H689      1.0  0.66771  0.21223  0.70337  1.0000
  S   S124      1.0  0.68706  0.25999  0.87546  1.0000
  S   S125      1.0  0.76524  0.28995  0.87158  1.0000
  H   H690      1.0  0.68177  0.19140  0.80077  1.0000
  S   S126      1.0  0.54352  0.02790  0.61036  1.0000
  H   H691      1.0  0.73533  0.14280  0.96576  1.0000
  C   C393      1.0  0.76546  0.22518  0.98144  1.0000
  Fe  Fe64      1.0  0.55146  0.06150  0.61515  1.0000
  S   S127      1.0  0.60977  0.07736  0.60210  1.0000
  H   H692      1.0  0.93463  0.18141  0.56755  1.0000
  H   H693      1.0  0.76245  0.14916  0.75148  1.0000
  C   C394      1.0  0.76112  0.14268  0.98083  1.0000
  H   H694      1.0  0.78393  0.28888  0.75221  1.0000
  C   C395      1.0  0.49572  0.03094  0.93734  1.0000
  H   H695      1.0  0.77781  0.29688  0.80080  1.0000
  H   H696      1.0  0.58983  0.07925  0.50199  1.0000
  C   C396      1.0  0.53269  0.28758  0.86059  1.0000
  H   H697      1.0  0.51182  0.16857  0.64090  1.0000
  Fe  Fe65      1.0  0.49980  0.03024  0.64731  1.0000
  H   H698      1.0  0.56814  0.12447  0.66263  1.0000
  H   H699      1.0  0.87461  0.16112  0.53795  1.0000
  C   C397      1.0  0.68458  0.12893  0.64140  1.0000
  C   C398      1.0  0.68783  0.12409  0.61257  1.0000
  C   C399      1.0  0.66507  0.10811  0.60106  1.0000
  C   C400      1.0  0.63835  0.09697  0.61805  1.0000
  C   C401      1.0  0.63518  0.10175  0.64690  1.0000
  C   C402      1.0  0.65827  0.11759  0.65849  1.0000
  H   H700      1.0  0.70802  0.13260  0.59918  1.0000
  H   H701      1.0  0.66804  0.10446  0.57876  1.0000
  H   H702      1.0  0.61526  0.09311  0.66032  1.0000
  H   H703      1.0  0.65576  0.12105  0.68086  1.0000
  C   C403      1.0  0.95738  0.18498  0.62429  1.0000
  H   H704      1.0  0.62735  0.17037  0.62570  1.0000
  H   H705      1.0  0.76870  0.21011  0.97307  1.0000
  C   C404      1.0  0.49882  0.27664  0.85124  1.0000
  H   H706      1.0  0.94219  0.21626  0.62913  1.0000
  C   C405      1.0  0.74904  0.26046  0.97362  1.0000
  C   C406      1.0  0.76853  0.24271  0.52340  1.0000
  H   H707      1.0  0.54922  0.14856  0.67229  1.0000
  C   C407      1.0  0.75688  0.22326  0.51565  1.0000
  H   H708      1.0  0.51786  0.11137  0.56800  1.0000
  Fe  Fe66      1.0  0.72316  0.31428  0.85771  1.0000
  H   H709      1.0  0.60272  0.13515  0.61858  1.0000
  S   S128      1.0  0.69033  0.29490  0.82568  1.0000
  C   C408      1.0  0.75329  0.24089  0.96314  1.0000
  H   H710      1.0  0.74718  0.23785  0.94096  1.0000
  C   C409      1.0  0.76316  0.24803  0.77493  1.0000
  C   C410      1.0  0.73354  0.25829  0.75950  1.0000
  C   C411      1.0  0.73199  0.25657  0.72961  1.0000
  C   C412      1.0  0.75927  0.24418  0.71492  1.0000
  C   C413      1.0  0.78890  0.23397  0.73037  1.0000
  C   C414      1.0  0.79096  0.23601  0.76017  1.0000
  H   H711      1.0  0.71175  0.26749  0.77056  1.0000
  H   H712      1.0  0.70904  0.26460  0.71784  1.0000
  H   H713      1.0  0.81040  0.22458  0.71932  1.0000
  H   H714      1.0  0.81406  0.22806  0.77190  1.0000
  S   S129      1.0  0.67746  0.30787  0.89202  1.0000
  H   H715      1.0  0.83853  0.27586  0.79181  1.0000
  C   C415      1.0  0.58097  0.14780  0.61880  1.0000
  H   H716      1.0  0.69039  0.16245  0.77364  1.0000
  H   H717      1.0  0.93447  0.22092  0.50640  1.0000
  H   H718      1.0  0.86263  0.17568  0.50645  1.0000
  H   H719      1.0  0.57092  0.01723  0.54222  1.0000
  H   H720      1.0  0.71160  0.14731  0.71999  1.0000
  C   C416      1.0  0.96627  0.20553  0.62622  1.0000
  H   H721      1.0  0.83272  0.28225  0.82825  1.0000
  H   H722      1.0  0.87016  0.29496  0.80802  1.0000
  C   C417      1.0  0.76898  0.25822  0.50293  1.0000
  C   C418      1.0  0.91245  0.22088  0.55928  1.0000
  H   H723      1.0  0.54839  0.03413  0.49954  1.0000
  H   H724      1.0  0.56415  0.12472  0.57100  1.0000
  N   N30       1.0  0.53990  0.14058  0.62801  1.0000
  H   H725      1.0  0.86633  0.31782  0.92884  1.0000
  H   H726      1.0  0.55190  0.31422  0.88269  1.0000
  S   S130      1.0  0.58180  0.27804  0.85290  1.0000
  C   C419      1.0  0.52632  0.30561  0.87532  1.0000
  H   H727      1.0  0.77256  0.19520  0.75251  1.0000
  H   H728      1.0  0.50326  0.26271  0.83975  1.0000
  C   C420      1.0  0.60302  0.01939  0.53619  1.0000
  H   H729      1.0  0.73639  0.20164  0.70891  1.0000
  H   H730      1.0  0.56967  0.08610  0.53580  1.0000
  H   H731      1.0  0.80361  0.29493  0.70257  1.0000
  H   H732      1.0  0.81914  0.30835  0.91471  1.0000
  H   H733      1.0  0.61194  0.00556  0.52452  1.0000
  H   H734      1.0  0.73477  0.16953  0.99707  1.0000
  C   C421      1.0  0.58468  0.27847  0.50460  1.0000
  H   H735      1.0  0.61052  0.15910  0.65769  1.0000
  C   C422      1.0  0.68315  0.15019  0.73129  1.0000
  H   H736      1.0  0.54790  0.02136  0.88699  1.0000
  H   H737      1.0  0.86539  0.18951  0.56923  1.0000
  C   C423      1.0  0.71391  0.18962  0.71327  1.0000
  H   H738      1.0  0.64843  0.18672  0.70541  1.0000
  C   C424      1.0  0.86672  0.19345  0.54623  1.0000
  H   H739      1.0  0.62112  0.06245  0.54706  1.0000
  H   H740      1.0  0.72522  0.17652  0.70133  1.0000
  H   H741      1.0  0.54231  0.06895  0.51391  1.0000
  H   H742      1.0  0.80728  0.16367  0.75273  1.0000
  C   C425      1.0  0.67424  0.19614  0.69892  1.0000
  H   H743      1.0  0.88933  0.24981  0.57296  1.0000
  H   H744      1.0  0.84643  0.29440  0.94067  1.0000
  H   H745      1.0  0.66400  0.20742  0.75209  1.0000
  H   H746      1.0  0.57941  0.17770  0.63960  1.0000
  C   C426      1.0  0.80320  0.30774  0.71779  1.0000
  H   H747      1.0  0.67632  0.13629  0.74345  1.0000
  C   C427      1.0  0.75328  0.18177  0.75616  1.0000
  N   N31       1.0  0.71147  0.18551  0.74475  1.0000
  H   H748      1.0  0.75282  0.17940  0.77953  1.0000
  H   H749      1.0  0.71286  0.21774  0.75126  1.0000
  H   H750      1.0  0.67742  0.19470  0.67552  1.0000
  H   H751      1.0  0.65197  0.17379  0.75269  1.0000
  C   C428      1.0  0.68364  0.16831  0.75197  1.0000
  H   H752      1.0  0.93684  0.17491  0.53116  1.0000
  H   H753      1.0  0.77884  0.16371  0.72078  1.0000
  N   N32       1.0  0.90644  0.20325  0.53951  1.0000
  C   C429      1.0  0.77607  0.16348  0.74422  1.0000
  H   H754      1.0  0.73304  0.30715  0.76590  1.0000
  H   H755      1.0  0.65834  0.15171  0.71559  1.0000
  H   H756      1.0  0.67876  0.21827  0.79873  1.0000
  C   C430      1.0  0.69565  0.20444  0.75858  1.0000
  H   H757      1.0  0.66050  0.01698  0.55957  1.0000
  H   H758      1.0  0.62394  0.03296  0.57692  1.0000
  C   C431      1.0  0.69598  0.20491  0.79138  1.0000
  H   H759      1.0  0.72693  0.20684  0.79987  1.0000
  H   H760      1.0  0.59954  0.28032  0.52563  1.0000
  H   H761      1.0  0.79379  0.30871  0.96658  1.0000
  H   H762      1.0  0.77693  0.24585  0.54518  1.0000
  H   H763      1.0  0.82766  0.31815  0.71161  1.0000
  H   H764      1.0  0.83606  0.28964  0.74753  1.0000
  C   C432      1.0  0.55047  0.00015  0.99125  1.0000
  H   H765      1.0  0.91058  0.21577  0.58180  1.0000
  C   C433      1.0  0.50078  0.99718  0.71701  1.0000
  H   H766      1.0  0.84110  0.20377  0.54306  1.0000
  H   H767      1.0  0.58130  0.00518  0.98956  1.0000
  H   H768      1.0  0.87745  0.31331  0.76699  1.0000
  C   C434      1.0  0.83940  0.28864  0.80697  1.0000
  H   H769      1.0  0.74864  0.32039  0.93262  1.0000
  H   H770      1.0  0.50382  0.04560  0.94714  1.0000
  N   N33       1.0  0.60740  0.03795  0.51796  1.0000
  C   C435      1.0  0.93883  0.18792  0.54599  1.0000
  C   C436      1.0  0.88337  0.23875  0.55574  1.0000
  H   H771      1.0  0.85138  0.23442  0.55765  1.0000
  H   H772      1.0  0.55636  0.99636  0.87491  1.0000
  H   H773      1.0  0.94284  0.22754  0.55673  1.0000
  C   C437      1.0  0.65087  0.03973  0.50939  1.0000
  H   H774      1.0  0.61825  0.00627  0.57721  1.0000
  H   H775      1.0  0.57352  0.05139  0.55285  1.0000
  C   C438      1.0  0.54268  0.13508  0.65907  1.0000
  H   H776      1.0  0.88854  0.24674  0.53538  1.0000
  C   C439      1.0  0.85717  0.17406  0.52952  1.0000
  H   H777      1.0  0.58026  0.15345  0.59653  1.0000
  C   C440      1.0  0.80740  0.30466  0.79972  1.0000
  N   N34       1.0  0.81248  0.31497  0.77145  1.0000
  H   H778      1.0  0.67030  0.04240  0.52832  1.0000
  H   H779      1.0  0.80649  0.31580  0.81737  1.0000
  H   H780      1.0  0.55643  0.26983  0.50757  1.0000
  H   H781      1.0  0.77793  0.27324  0.50916  1.0000
  H   H782      1.0  0.76687  0.12698  0.98742  1.0000
  C   C441      1.0  0.91004  0.20959  0.50880  1.0000
  C   C442      1.0  0.59479  0.05592  0.53572  1.0000
  H   H783      1.0  0.77363  0.31524  0.71519  1.0000
  C   C443      1.0  0.80893  0.29947  0.74813  1.0000
  H   H784      1.0  0.82484  0.17032  0.53234  1.0000
  C   C444      1.0  0.83795  0.30989  0.93401  1.0000
  H   H785      1.0  0.78864  0.14758  0.96943  1.0000
  C   C445      1.0  0.57313  0.07345  0.52053  1.0000
  C   C446      1.0  0.62804  0.01919  0.56394  1.0000
  C   C447      1.0  0.98273  0.19536  0.54436  1.0000
  H   H786      1.0  0.52402  0.02223  0.93552  1.0000
  C   C448      1.0  0.81524  0.32019  0.95863  1.0000
  C   C449      1.0  0.51170  0.01091  0.73830  1.0000
  C   C450      1.0  0.53245  0.12449  0.57836  1.0000
  H   H787      1.0  0.52863  0.01307  0.85279  1.0000
  H   H788      1.0  0.51788  0.16586  0.60359  1.0000
  H   H789      1.0  0.51282  0.12100  0.69479  1.0000
  H   H790      1.0  0.66181  0.02536  0.50004  1.0000
  C   C451      1.0  0.50533  0.12541  0.67263  1.0000
  H   H791      1.0  0.98319  0.15541  0.61944  1.0000
  H   H792      1.0  0.55137  0.10951  0.61673  1.0000
  C   C452      1.0  0.53393  0.00872  0.87525  1.0000
  H   H793      1.0  0.50323  0.99474  0.91062  1.0000
  C   C453      1.0  0.51443  0.00471  0.76709  1.0000
  C   C454      1.0  0.53040  0.12195  0.61090  1.0000
  H   H794      1.0  0.51810  0.02633  0.73255  1.0000
  H   H795      1.0  0.52297  0.01556  0.78312  1.0000
  C   C455      1.0  0.51007  0.15742  0.62327  1.0000
  H   H796      1.0  0.49742  0.04377  0.89528  1.0000
  H   H797      1.0  0.99072  0.20483  0.56297  1.0000
  H   H798      1.0  0.98911  0.20356  0.52439  1.0000
  C   C456      1.0  0.49512  0.00338  0.51268  1.0000
  H   H799      1.0  0.51662  0.13821  0.57101  1.0000
  S   S131      1.0  0.50127  0.06839  0.58473  1.0000
  C   C457      1.0  0.98951  0.17134  0.62094  1.0000
  H   H800      1.0  0.50028  0.11580  0.61570  1.0000
  H   H801      1.0  0.49587  0.11140  0.66177  1.0000
  S   S132      1.0  0.49718  0.00392  0.67997  1.0000
  C   C458      1.0  0.49506  0.00110  0.88952  1.0000
  S   S133      1.0  0.95710  0.44580  0.36569  1.0000
  H   H802      1.0  0.93596  0.49135  0.34585  1.0000
  H   H803      1.0  0.97950  0.47793  0.05350  1.0000
  Fe  Fe67      1.0  0.96622  0.41202  0.36275  1.0000
  S   S134      1.0  0.92948  0.38407  0.37552  1.0000
  H   H804      1.0  0.93128  0.49769  0.25170  1.0000
  C   C459      1.0  0.96999  0.62446  0.12603  1.0000
  S   S135      1.0  0.94771  0.53350  0.11625  1.0000
  H   H805      1.0  0.93592  0.60477  0.17157  1.0000
  H   H806      1.0  0.90181  0.33635  0.27565  1.0000
  Fe  Fe68      1.0  0.94183  0.56727  0.11985  1.0000
  S   S136      1.0  0.88365  0.58253  0.13505  1.0000
  S   S137      1.0  0.76385  0.34034  0.34197  1.0000
  H   H807      1.0  0.78324  0.63684  0.14253  1.0000
  C   C460      1.0  0.85785  0.60419  0.12204  1.0000
  C   C461      1.0  0.86681  0.61285  0.09573  1.0000
  C   C462      1.0  0.84582  0.63010  0.08638  1.0000
  C   C463      1.0  0.81558  0.63897  0.10313  1.0000
  C   C464      1.0  0.80647  0.63029  0.12941  1.0000
  C   C465      1.0  0.82738  0.61297  0.13871  1.0000
  H   H808      1.0  0.88961  0.60609  0.08244  1.0000
  H   H809      1.0  0.85294  0.63656  0.06590  1.0000
  H   H810      1.0  0.67021  0.64117  0.00134  1.0000
  H   H811      1.0  0.82006  0.60637  0.15907  1.0000
  C   C466      1.0  0.88327  0.37231  0.36549  1.0000
  C   C467      1.0  0.87267  0.35398  0.37850  1.0000
  C   C468      1.0  0.83641  0.34404  0.37160  1.0000
  C   C469      1.0  0.80991  0.35238  0.35168  1.0000
  C   C470      1.0  0.82054  0.37067  0.33855  1.0000
  C   C471      1.0  0.85702  0.38054  0.34528  1.0000
  H   H812      1.0  0.89236  0.34754  0.39440  1.0000
  C   C472      1.0  0.87573  0.34232  0.28758  1.0000
  H   H813      1.0  0.80033  0.37731  0.32313  1.0000
  H   H814      1.0  0.86456  0.39463  0.33511  1.0000
  C   C473      1.0  0.93302  0.49959  0.36625  1.0000
  C   C474      1.0  0.97588  0.48532  0.45974  1.0000
  H   H815      1.0  0.95257  0.51508  0.20738  1.0000
  H   H816      1.0  0.59802  0.60909  0.04603  1.0000
  S   S138      1.0  0.97462  0.57287  0.07907  1.0000
  H   H817      1.0  0.95427  0.47812  0.44585  1.0000
  H   H818      1.0  0.93963  0.61804  0.12915  1.0000
  H   H819      1.0  0.95975  0.60411  0.20526  1.0000
  H   H820      1.0  0.92822  0.62495  0.19719  1.0000
  H   H821      1.0  0.93063  0.50027  0.48508  1.0000
  C   C475      1.0  0.96254  0.49797  0.48206  1.0000
  H   H822      1.0  0.96309  0.53535  0.34697  1.0000
  S   S139      1.0  0.96577  0.52036  0.03729  1.0000
  H   H823      1.0  0.76706  0.59870  0.08586  1.0000
  H   H824      1.0  0.61670  0.63049  0.02646  1.0000
  C   C476      1.0  0.99033  0.53533  0.36074  1.0000
  H   H825      1.0  0.92658  0.46335  0.10294  1.0000
  C   C477      1.0  0.63403  0.62965  0.10135  1.0000
  H   H826      1.0  0.96592  0.44301  0.03572  1.0000
  H   H827      1.0  0.77205  0.61606  0.05747  1.0000
  H   H828      1.0  0.82870  0.33007  0.38205  1.0000
  H   H829      1.0  0.87363  0.35866  0.28276  1.0000
  C   C478      1.0  0.90755  0.65052  0.14889  1.0000
  H   H830      1.0  0.50020  0.32453  0.37745  1.0000
  H   H831      1.0  0.65920  0.59728  0.06013  1.0000
  H   H832      1.0  0.98028  0.44125  0.11778  1.0000
  C   C479      1.0  0.98839  0.46464  0.06649  1.0000
  H   H833      1.0  0.60946  0.63968  0.10882  1.0000
  C   C480      1.0  0.97064  0.63410  0.09620  1.0000
  C   C481      1.0  0.75014  0.60614  0.06835  1.0000
  H   H834      1.0  0.81199  0.33928  0.29168  1.0000
  H   H835      1.0  0.97939  0.54200  0.38103  1.0000
  H   H836      1.0  0.61914  0.60592  0.01186  1.0000
  H   H837      1.0  0.72835  0.63036  0.09464  1.0000
  C   C482      1.0  0.94797  0.47592  0.10656  1.0000
  H   H838      1.0  0.89628  0.63687  0.15960  1.0000
  H   H839      1.0  0.88078  0.34124  0.31085  1.0000
  C   C483      1.0  0.65677  0.64019  0.07703  1.0000
  C   C484      1.0  0.70831  0.63997  0.03962  1.0000
  C   C485      1.0  0.96105  0.49500  0.24332  1.0000
  H   H840      1.0  0.73970  0.59417  0.05370  1.0000
  H   H841      1.0  0.91349  0.49023  0.38007  1.0000
  N   N35       1.0  0.98997  0.47012  0.09766  1.0000
  C   C486      1.0  0.97305  0.50491  0.21805  1.0000
  H   H842      1.0  0.94602  0.46850  0.15219  1.0000
  C   C487      1.0  0.66414  0.61000  0.04511  1.0000
  H   H843      1.0  0.91061  0.48696  0.14096  1.0000
  H   H844      1.0  0.62027  0.61527  0.09457  1.0000
  C   C488      1.0  0.94201  0.48166  0.13798  1.0000
  C   C489      1.0  0.62239  0.61459  0.03193  1.0000
  H   H845      1.0  0.65407  0.62706  0.11991  1.0000
  C   C490      1.0  0.71501  0.61829  0.08117  1.0000
  H   H846      1.0  0.91693  0.51399  0.36275  1.0000
  H   H847      1.0  0.98689  0.50820  0.32138  1.0000
  C   C491      1.0  0.98756  0.62553  0.17671  1.0000
  H   H848      1.0  0.96162  0.49416  0.14493  1.0000
  N   N36       1.0  0.68514  0.62706  0.06027  1.0000
  C   C492      1.0  0.97558  0.32865  0.37722  1.0000
  H   H849      1.0  0.83021  0.33692  0.25650  1.0000
  H   H850      1.0  0.72656  0.65129  0.05135  1.0000
  H   H851      1.0  0.69993  0.60790  0.09629  1.0000
  H   H852      1.0  0.63378  0.64746  0.06348  1.0000
  H   H853      1.0  0.98523  0.48743  0.38714  1.0000
  H   H854      1.0  0.90173  0.64913  0.12578  1.0000
  C   C493      1.0  0.97387  0.50268  0.38140  1.0000
  C   C494      1.0  0.68378  0.65152  0.01713  1.0000
  H   H855      1.0  0.93684  0.48873  0.09334  1.0000
  C   C495      1.0  0.95030  0.61437  0.18784  1.0000
  H   H856      1.0  0.95662  0.64922  0.09585  1.0000
  H   H857      1.0  0.95395  0.62432  0.08111  1.0000
  H   H858      1.0  0.73013  0.63081  0.02729  1.0000
  H   H859      1.0  0.96680  0.51019  0.40188  1.0000
  C   C496      1.0  0.83611  0.33213  0.27877  1.0000
  H   H860      1.0  0.72897  0.34186  0.01007  1.0000
  H   H861      1.0  0.96747  0.34435  0.38219  1.0000
  N   N37       1.0  0.98201  0.63808  0.15025  1.0000
  Fe  Fe69      1.0  0.98470  0.53917  0.07675  1.0000
  H   H862      1.0  0.96544  0.32492  0.35535  1.0000
  C   C497      1.0  0.98702  0.48166  0.25783  1.0000
  S   S140      1.0  0.96990  0.46979  0.29000  1.0000
  H   H863      1.0  0.67348  0.65299  0.08664  1.0000
  H   H864      1.0  0.99008  0.61111  0.12515  1.0000
  H   H865      1.0  0.68365  0.60387  0.02795  1.0000
  H   H866      1.0  0.92786  0.45218  0.05872  1.0000
  H   H867      1.0  0.98779  0.35433  0.33547  1.0000
  H   H868      1.0  0.76914  0.32495  0.24544  1.0000
  H   H869      1.0  0.96425  0.43374  0.07137  1.0000
  C   C498      1.0  0.95979  0.44734  0.05812  1.0000
  Fe  Fe70      1.0  0.99353  0.44790  0.32481  1.0000
  C   C499      1.0  0.98374  0.50494  0.00862  1.0000
  H   H870      1.0  0.76184  0.32095  0.00514  1.0000
  S   S141      1.0  0.94925  0.44814  0.86815  1.0000
  H   H871      1.0  0.84421  0.35164  0.79639  1.0000
  C   C500      1.0  0.74600  0.33329  0.99380  1.0000
  H   H872      1.0  0.95624  0.44415  0.59491  1.0000
  S   S142      1.0  0.91865  0.38619  0.86770  1.0000
  H   H873      1.0  0.79406  0.38332  0.94850  1.0000
  H   H874      1.0  0.83610  0.38433  0.92514  1.0000
  S   S143      1.0  0.94259  0.54162  0.60400  1.0000
  H   H875      1.0  0.93037  0.49164  0.90041  1.0000
  C   C501      1.0  0.98993  0.50756  0.50060  1.0000
  Fe  Fe71      1.0  0.96049  0.57412  0.60959  1.0000
  S   S144      1.0  0.92387  0.60255  0.62031  1.0000
  S   S145      1.0  0.74624  0.34572  0.84591  1.0000
  N   N38       1.0  0.79369  0.33960  0.95154  1.0000
  C   C502      1.0  0.87658  0.61361  0.61121  1.0000
  C   C503      1.0  0.86820  0.63329  0.62066  1.0000
  H   H876      1.0  0.89522  0.34561  0.78899  1.0000
  C   C504      1.0  0.80016  0.63178  0.60137  1.0000
  C   C505      1.0  0.80861  0.61215  0.59172  1.0000
  C   C506      1.0  0.84657  0.60314  0.59647  1.0000
  H   H877      1.0  0.77606  0.33472  0.90771  1.0000
  S   S146      1.0  0.97081  0.52279  0.52913  1.0000
  H   H878      1.0  0.78550  0.60381  0.58059  1.0000
  H   H879      1.0  0.85233  0.58799  0.58912  1.0000
  C   C507      1.0  0.87071  0.37531  0.86031  1.0000
  C   C508      1.0  0.86456  0.35489  0.86697  1.0000
  C   C509      1.0  0.82690  0.34558  0.86258  1.0000
  C   C510      1.0  0.79464  0.35662  0.85150  1.0000
  C   C511      1.0  0.80088  0.37696  0.84444  1.0000
  C   C512      1.0  0.83863  0.38627  0.84878  1.0000
  H   H880      1.0  0.88920  0.34621  0.87572  1.0000
  C   C513      1.0  0.78066  0.33103  0.76881  1.0000
  H   H881      1.0  0.77626  0.38567  0.83573  1.0000
  H   H882      1.0  0.84278  0.40197  0.84351  1.0000
  C   C514      1.0  0.94213  0.50462  0.88808  1.0000
  S   S147      1.0  0.98270  0.48081  0.80003  1.0000
  H   H883      1.0  0.89451  0.52026  0.65579  1.0000
  H   H884      1.0  0.98620  0.55451  0.81861  1.0000
  C   C515      1.0  0.83949  0.64135  0.52899  1.0000
  H   H885      1.0  0.78266  0.34178  0.78689  1.0000
  C   C516      1.0  0.95585  0.49697  0.98897  1.0000
  H   H886      1.0  0.92929  0.58692  0.67721  1.0000
  H   H887      1.0  0.83707  0.54872  0.71191  1.0000
  H   H888      1.0  0.82364  0.59894  0.69639  1.0000
  H   H889      1.0  0.91744  0.48258  0.56656  1.0000
  Fe  Fe72      1.0  0.95757  0.41455  0.86066  1.0000
  C   C517      1.0  0.86236  0.55890  0.71764  1.0000
  H   H890      1.0  0.81382  0.60027  0.65929  1.0000
  C   C518      1.0  0.85234  0.57501  0.67031  1.0000
  C   C519      1.0  0.83038  0.64234  0.61573  1.0000
  H   H891      1.0  0.82296  0.32986  0.86773  1.0000
  H   H892      1.0  0.86372  0.64088  0.54529  1.0000
  C   C520      1.0  0.96819  0.48425  0.96645  1.0000
  H   H893      1.0  0.95820  0.53488  0.85486  1.0000
  C   C521      1.0  0.92848  0.48385  0.58876  1.0000
  H   H894      1.0  0.96811  0.58840  0.72247  1.0000
  H   H895      1.0  0.91696  0.47126  0.60179  1.0000
  H   H896      1.0  0.94622  0.47826  0.95174  1.0000
  H   H897      1.0  0.85986  0.58922  0.73840  1.0000
  H   H898      1.0  0.82511  0.56530  0.66925  1.0000
  H   H899      1.0  0.92367  0.54101  0.69223  1.0000
  H   H900      1.0  0.81013  0.63924  0.53943  1.0000
  H   H901      1.0  0.93667  0.56971  0.73825  1.0000
  H   H902      1.0  0.92280  0.55425  0.65956  1.0000
  H   H903      1.0  0.80055  0.35074  0.99450  1.0000
  H   H904      1.0  0.84435  0.62779  0.51561  1.0000
  H   H905      1.0  0.93898  0.51830  0.90135  1.0000
  H   H906      1.0  0.86170  0.60788  0.67199  1.0000
  H   H907      1.0  0.99114  0.53021  0.72151  1.0000
  H   H908      1.0  0.79059  0.37391  0.91209  1.0000
  H   H909      1.0  0.86509  0.57505  0.64840  1.0000
  H   H910      1.0  0.88277  0.54898  0.73020  1.0000
  H   H911      1.0  0.85603  0.52555  0.68087  1.0000
  N   N39       1.0  0.88265  0.56658  0.69116  1.0000
  C   C522      1.0  0.98382  0.48767  0.76295  1.0000
  C   C523      1.0  0.90326  0.54893  0.67713  1.0000
  H   H912      1.0  0.92432  0.50061  0.99125  1.0000
  C   C524      1.0  0.94850  0.57529  0.71773  1.0000
  H   H913      1.0  0.85510  0.33392  0.74932  1.0000
  H   H914      1.0  0.69939  0.34389  0.93798  1.0000
  H   H915      1.0  0.96683  0.46395  0.63969  1.0000
  H   H916      1.0  0.73197  0.36563  0.93515  1.0000
  C   C525      1.0  0.72621  0.35028  0.92727  1.0000
  H   H917      1.0  0.90218  0.59611  0.70629  1.0000
  C   C526      1.0  0.87550  0.53253  0.66457  1.0000
  H   H918      1.0  0.84665  0.56888  0.76026  1.0000
  H   H919      1.0  0.72103  0.32811  0.78811  1.0000
  C   C527      1.0  0.82487  0.35423  0.94091  1.0000
  H   H920      1.0  0.92292  0.50608  0.86884  1.0000
  H   H921      1.0  0.86870  0.33070  0.81403  1.0000
  C   C528      1.0  0.76215  0.33547  0.92911  1.0000
  H   H922      1.0  0.84066  0.34810  0.92211  1.0000
  H   H923      1.0  0.95636  0.45853  0.54857  1.0000
  C   C529      1.0  0.80975  0.37505  0.93137  1.0000
  H   H924      1.0  0.81187  0.57709  0.73333  1.0000
  H   H925      1.0  0.89100  0.64152  0.63227  1.0000
  H   H926      1.0  0.85704  0.53827  0.64666  1.0000
  C   C530      1.0  0.83740  0.59671  0.67533  1.0000
  H   H927      1.0  0.97835  0.51745  0.83016  1.0000
  H   H928      1.0  0.71722  0.35193  0.90464  1.0000
  C   C531      1.0  0.77612  0.34747  0.97890  1.0000
  C   C532      1.0  0.84422  0.57459  0.73812  1.0000
  C   C533      1.0  0.91471  0.58205  0.69736  1.0000
  S   S148      1.0  0.75140  0.64220  0.59521  1.0000
  H   H929      1.0  0.84861  0.35665  0.95733  1.0000
  C   C534      1.0  0.86538  0.33891  0.79369  1.0000
  H   H930      1.0  0.76373  0.64381  0.50398  1.0000
  H   H931      1.0  0.76080  0.36210  0.97598  1.0000
  H   H932      1.0  0.72016  0.33071  0.75024  1.0000
  C   C535      1.0  0.97468  0.48573  0.58997  1.0000
  C   C536      1.0  0.98617  0.50039  0.87973  1.0000
  H   H933      1.0  0.91506  0.49784  0.59751  1.0000
  S   S149      1.0  0.98096  0.50747  0.66762  1.0000
  Fe  Fe73      1.0  0.99066  0.53986  0.56999  1.0000
  H   H934      1.0  0.78580  0.34059  0.74973  1.0000
  H   H935      1.0  0.96809  0.56376  0.70781  1.0000
  H   H936      1.0  0.72389  0.32659  0.97889  1.0000
  H   H937      1.0  0.98540  0.48890  0.86251  1.0000
  Fe  Fe74      1.0  0.98899  0.45257  0.82914  1.0000
  C   C537      1.0  0.98316  0.50043  0.70462  1.0000
  C   C538      1.0  0.98700  0.52857  0.84681  1.0000
  Fe  Fe75      1.0  0.99120  0.53391  0.63603  1.0000
  H   H938      1.0  0.97682  0.45783  0.74606  1.0000
  C   C539      1.0  0.97990  0.47361  0.74092  1.0000
  H   H939      1.0  0.97565  0.46885  0.69555  1.0000
  H   H940      1.0  0.98260  0.49859  0.57615  1.0000
  C   C540      1.0  0.97921  0.47997  0.71213  1.0000
  C   C541      1.0  0.98877  0.46222  0.55115  1.0000
  H   H941      1.0  0.99283  0.47547  0.53704  1.0000
  H   H942      1.0  0.99215  0.51926  0.93285  1.0000
  H   H943      1.0  0.99360  0.43017  0.54005  1.0000
  H   H944      1.0  0.99198  0.54457  0.89527  1.0000
  H   H945      1.0  0.99070  0.51928  0.77209  1.0000
  C   C542      1.0  0.98766  0.51448  0.72664  1.0000
  C   C543      1.0  0.98756  0.50817  0.75545  1.0000
  H   H946      1.0  0.83729  0.32251  0.97622  1.0000
  C   C544      1.0  0.85323  0.32478  0.76908  1.0000
  H   H947      1.0  0.98295  0.49084  0.61169  1.0000
  S   S150      1.0  0.99320  0.41915  0.82027  1.0000
  H   H948      1.0  0.98392  0.43866  0.64347  1.0000
  C   C545      1.0  0.98716  0.44953  0.59988  1.0000
  C   C546      1.0  0.73655  0.32360  0.76822  1.0000
  C   C547      1.0  0.98982  0.45306  0.63226  1.0000
  Fe  Fe76      1.0  0.56508  0.91138  0.36158  1.0000
  S   S151      1.0  0.60161  0.88251  0.35262  1.0000
  H   H949      1.0  0.80808  0.70326  0.46474  1.0000
  H   H950      1.0  0.70510  0.72452  0.45401  1.0000
  S   S152      1.0  0.58055  0.94401  0.37083  1.0000
  H   H951      1.0  0.77773  0.67558  0.48096  1.0000
  Fe  Fe77      1.0  0.74006  0.68227  0.10404  1.0000
  S   S153      1.0  0.75752  0.71359  0.11791  1.0000
  Fe  Fe78      1.0  0.64920  0.69353  0.10058  1.0000
  S   S154      1.0  0.66159  0.72537  0.11365  1.0000
  S   S155      1.0  0.58757  0.68185  0.08525  1.0000
  Fe  Fe79      1.0  0.71470  0.72448  0.08404  1.0000
  S   S156      1.0  0.73101  0.75188  0.05699  1.0000
  Fe  Fe80      1.0  0.70343  0.71202  0.14642  1.0000
  S   S157      1.0  0.69494  0.72478  0.19109  1.0000
  S   S158      1.0  0.69988  0.69352  0.06859  1.0000
  S   S159      1.0  0.68824  0.67980  0.13493  1.0000
  Fe  Fe81      1.0  0.79607  0.81029  0.36389  1.0000
  S   S160      1.0  0.75938  0.78398  0.34861  1.0000
  S   S161      1.0  0.77479  0.84232  0.37453  1.0000
  Fe  Fe82      1.0  0.87323  0.78438  0.37149  1.0000
  S   S162      1.0  0.84102  0.75622  0.35757  1.0000
  S   S163      1.0  0.93716  0.78262  0.39005  1.0000
  Fe  Fe83      1.0  0.81398  0.77538  0.32284  1.0000
  S   S164      1.0  0.82048  0.76527  0.27651  1.0000
  Fe  Fe84      1.0  0.78929  0.76682  0.38450  1.0000
  S   S165      1.0  0.75091  0.74674  0.41306  1.0000
  S   S166      1.0  0.84911  0.80313  0.33559  1.0000
  S   S167      1.0  0.82295  0.79348  0.40092  1.0000
  H   H952      1.0  0.63692  0.78009  0.45332  1.0000
  C   C548      1.0  0.56908  0.95094  0.13451  1.0000
  H   H953      1.0  0.74630  0.82958  0.16008  1.0000
  H   H954      1.0  0.96575  0.80743  0.34224  1.0000
  C   C549      1.0  0.57956  0.96903  0.05696  1.0000
  C   C550      1.0  0.53820  0.68794  0.09768  1.0000
  C   C551      1.0  0.53146  0.69620  0.12462  1.0000
  Fe  Fe85      1.0  0.53027  0.94291  0.40338  1.0000
  H   H955      1.0  0.73834  0.80037  0.22607  1.0000
  H   H956      1.0  0.50503  0.98694  0.12648  1.0000
  H   H957      1.0  0.65995  0.81018  0.38950  1.0000
  H   H958      1.0  0.71343  0.81274  0.19731  1.0000
  C   C552      1.0  0.66037  0.77804  0.38931  1.0000
  C   C553      1.0  0.75624  0.74427  0.45046  1.0000
  C   C554      1.0  0.78668  0.75414  0.46554  1.0000
  C   C555      1.0  0.72881  0.73219  0.46547  1.0000
  H   H959      1.0  0.85693  0.84453  0.34998  1.0000
  S   S168      1.0  0.53455  0.95256  0.45062  1.0000
  H   H960      1.0  0.80811  0.76340  0.45430  1.0000
  H   H961      1.0  0.67198  0.82231  0.46783  1.0000
  C   C556      1.0  0.73089  0.73419  0.21572  1.0000
  C   C557      1.0  0.77224  0.73376  0.21032  1.0000
  C   C558      1.0  0.79928  0.74303  0.22944  1.0000
  C   C559      1.0  0.78546  0.75241  0.25442  1.0000
  C   C560      1.0  0.74424  0.75231  0.26018  1.0000
  C   C561      1.0  0.71715  0.74334  0.24086  1.0000
  H   H962      1.0  0.78330  0.72666  0.19119  1.0000
  H   H963      1.0  0.83112  0.74301  0.22482  1.0000
  H   H964      1.0  0.73316  0.75950  0.27925  1.0000
  H   H965      1.0  0.68526  0.74368  0.24530  1.0000
  C   C562      1.0  0.65004  0.87176  0.35935  1.0000
  C   C563      1.0  0.68049  0.88199  0.37402  1.0000
  C   C564      1.0  0.71839  0.87279  0.37839  1.0000
  C   C565      1.0  0.72642  0.85322  0.36832  1.0000
  C   C566      1.0  0.69586  0.84290  0.35395  1.0000
  C   C567      1.0  0.65805  0.85213  0.34948  1.0000
  H   H966      1.0  0.67493  0.89705  0.38177  1.0000
  H   H967      1.0  0.74167  0.88095  0.38958  1.0000
  H   H968      1.0  0.70145  0.82790  0.34595  1.0000
  H   H969      1.0  0.63485  0.84405  0.33805  1.0000
  H   H970      1.0  0.63840  0.97196  0.11202  1.0000
  H   H971      1.0  0.88988  0.88657  0.39360  1.0000
  C   C568      1.0  0.51890  0.97252  0.47379  1.0000
  N   N40       1.0  0.67659  0.80115  0.43239  1.0000
  C   C569      1.0  0.65930  0.81962  0.44646  1.0000
  C   C570      1.0  0.72048  0.80336  0.42495  1.0000
  C   C571      1.0  0.66431  0.83945  0.42979  1.0000
  C   C572      1.0  0.74879  0.81245  0.44780  1.0000
  H   H972      1.0  0.64594  0.83966  0.41009  1.0000
  H   H973      1.0  0.56956  0.96925  0.20702  1.0000
  S   S169      1.0  0.78929  0.66027  0.08943  1.0000
  C   C573      1.0  0.73625  0.73213  0.00502  1.0000
  H   H974      1.0  0.72407  0.81269  0.40546  1.0000
  H   H975      1.0  0.69618  0.84254  0.42456  1.0000
  H   H976      1.0  0.60034  0.95066  0.14288  1.0000
  H   H977      1.0  0.65355  0.85219  0.44304  1.0000
  H   H978      1.0  0.84879  0.88674  0.43522  1.0000
  C   C574      1.0  0.56898  0.95057  0.10154  1.0000
  Fe  Fe86      1.0  0.53207  0.95200  0.33844  1.0000
  H   H979      1.0  0.76443  0.82584  0.43899  1.0000
  C   C575      1.0  0.66977  0.78295  0.45095  1.0000
  S   S170      1.0  0.51985  0.91967  0.32736  1.0000
  H   H980      1.0  0.68256  0.76921  0.44091  1.0000
  C   C576      1.0  0.90407  0.82650  0.43023  1.0000
  H   H981      1.0  0.57916  0.95212  0.01734  1.0000
  N   N41       1.0  0.73719  0.78338  0.15489  1.0000
  C   C577      1.0  0.75772  0.76475  0.14351  1.0000
  C   C578      1.0  0.69246  0.77962  0.15325  1.0000
  C   C579      1.0  0.75057  0.78623  0.18540  1.0000
  C   C580      1.0  0.74998  0.80096  0.13688  1.0000
  C   C581      1.0  0.80399  0.76405  0.14649  1.0000
  C   C582      1.0  0.67441  0.77869  0.12302  1.0000
  C   C583      1.0  0.72240  0.79785  0.20557  1.0000
  C   C584      1.0  0.72972  0.82133  0.14318  1.0000
  H   H982      1.0  0.74591  0.75104  0.15426  1.0000
  H   H983      1.0  0.75136  0.76260  0.12049  1.0000
  H   H984      1.0  0.67487  0.79131  0.16447  1.0000
  H   H985      1.0  0.68472  0.76533  0.16440  1.0000
  H   H986      1.0  0.75479  0.77147  0.19592  1.0000
  H   H987      1.0  0.78054  0.79367  0.18643  1.0000
  H   H988      1.0  0.78278  0.80371  0.13930  1.0000
  H   H989      1.0  0.74659  0.79764  0.11375  1.0000
  H   H990      1.0  0.81408  0.76480  0.16895  1.0000
  H   H991      1.0  0.81487  0.74943  0.13801  1.0000
  H   H992      1.0  0.81887  0.77595  0.13384  1.0000
  H   H993      1.0  0.64206  0.77468  0.12454  1.0000
  H   H994      1.0  0.67618  0.79344  0.11210  1.0000
  H   H995      1.0  0.68868  0.76708  0.10957  1.0000
  H   H996      1.0  0.50931  0.67705  0.05961  1.0000
  H   H997      1.0  0.72962  0.83060  0.12353  1.0000
  H   H998      1.0  0.69532  0.78878  0.21070  1.0000
  H   H999      1.0  0.89441  0.87517  0.44652  1.0000
  H   H1000     1.0  0.69775  0.82000  0.14919  1.0000
  C   C585      1.0  0.74270  0.74994  0.02017  1.0000
  N   N42       1.0  0.90977  0.85554  0.39308  1.0000
  C   C586      1.0  0.91664  0.85676  0.36138  1.0000
  C   C587      1.0  0.94922  0.86030  0.40750  1.0000
  C   C588      1.0  0.87933  0.87149  0.40078  1.0000
  C   C589      1.0  0.89419  0.83478  0.40027  1.0000
  C   C590      1.0  0.87859  0.85598  0.34257  1.0000
  H   H1001     1.0  0.61196  0.96487  0.05791  1.0000
  H   H1002     1.0  0.67639  0.79580  0.49438  1.0000
  H   H1003     1.0  0.55486  0.93692  0.14248  1.0000
  H   H1004     1.0  0.97792  0.83124  0.39659  1.0000
  C   C591      1.0  0.78969  0.75185  0.49527  1.0000
  H   H1005     1.0  0.77248  0.80135  0.45349  1.0000
  S   S171      1.0  0.52789  0.97917  0.30762  1.0000
  C   C592      1.0  0.75817  0.76677  0.00565  1.0000
  H   H1006     1.0  0.85016  0.86885  0.38969  1.0000
  H   H1007     1.0  0.86092  0.83419  0.39766  1.0000
  H   H1008     1.0  0.90578  0.82330  0.38512  1.0000
  H   H1009     1.0  0.88706  0.85212  0.32040  1.0000
  H   H1010     1.0  0.55629  0.93872  0.04605  1.0000
  H   H1011     1.0  0.86331  0.87084  0.34188  1.0000
  H   H1012     1.0  0.50219  0.96302  0.07061  1.0000
  C   C593      1.0  0.83799  0.69919  0.47365  1.0000
  C   C594      1.0  0.55982  0.95382  0.03642  1.0000
  C   C595      1.0  0.53530  0.98624  0.27111  1.0000
  C   C596      1.0  0.55627  0.97944  0.22224  1.0000
  H   H1013     1.0  0.72124  0.78337  0.48066  1.0000
  H   H1014     1.0  0.94717  0.85877  0.43091  1.0000
  H   H1015     1.0  0.70460  0.66145  0.00513  1.0000
  H   H1016     1.0  0.84962  0.68544  0.46319  1.0000
  C   C597      1.0  0.98540  0.84744  0.39784  1.0000
  H   H1017     1.0  0.69267  0.77482  0.38626  1.0000
  H   H1018     1.0  0.64645  0.77888  0.36785  1.0000
  S   S172      1.0  0.51782  0.90983  0.39581  1.0000
  H   H1019     1.0  0.85840  0.71181  0.46808  1.0000
  H   H1020     1.0  0.64607  0.76519  0.40045  1.0000
  H   H1021     1.0  0.84952  0.86020  0.43911  1.0000
  H   H1022     1.0  0.95416  0.66039  0.17750  1.0000
  H   H1023     1.0  0.62016  0.79904  0.40902  1.0000
  H   H1024     1.0  0.62654  0.81754  0.45045  1.0000
  C   C598      1.0  0.98584  0.78968  0.37775  1.0000
  H   H1025     1.0  0.73335  0.78854  0.41895  1.0000
  C   C599      1.0  0.68798  0.78335  0.48109  1.0000
  H   H1026     1.0  0.53039  0.95938  0.02846  1.0000
  H   H1027     1.0  0.93632  0.82258  0.43244  1.0000
  C   C600      1.0  0.65315  0.79807  0.40511  1.0000
  C   C601      1.0  0.55194  0.97321  0.25088  1.0000
  H   H1028     1.0  0.76349  0.78059  0.01716  1.0000
  H   H1029     1.0  0.55682  0.69965  0.13822  1.0000
  H   H1030     1.0  0.88745  0.81223  0.43355  1.0000
  H   H1031     1.0  0.59876  0.94426  0.09534  1.0000
  C   C602      1.0  0.50459  0.68342  0.08049  1.0000
  C   C603      1.0  0.51756  0.97473  0.08349  1.0000
  H   H1032     1.0  0.55266  0.96352  0.14449  1.0000
  H   H1033     1.0  0.89547  0.83675  0.44763  1.0000
  H   H1034     1.0  0.73445  0.81705  0.46784  1.0000
  H   H1035     1.0  0.93622  0.84417  0.35407  1.0000
  H   H1036     1.0  0.88892  0.66332  0.15644  1.0000
  H   H1037     1.0  0.95754  0.87635  0.40389  1.0000
  H   H1038     1.0  0.54632  0.93925  0.09456  1.0000
  C   C604      1.0  0.86806  0.87322  0.43237  1.0000
  H   H1039     1.0  0.56177  0.95838  0.25732  1.0000
  H   H1040     1.0  0.66077  0.66158  0.02648  1.0000
  N   N43       1.0  0.56190  0.97033  0.08648  1.0000
  H   H1041     1.0  0.95983  0.66833  0.14187  1.0000
  H   H1042     1.0  0.72439  0.71908  0.01581  1.0000
  C   C605      1.0  0.73176  0.72995  0.49521  1.0000
  C   C606      1.0  0.99152  0.80234  0.35433  1.0000
  H   H1043     1.0  0.93295  0.87085  0.35575  1.0000
  H   H1044     1.0  0.57877  0.98397  0.04631  1.0000
  H   H1045     1.0  0.83779  0.65577  0.48769  1.0000
  H   H1046     1.0  0.67946  0.76920  0.49214  1.0000
  C   C607      1.0  0.95232  0.65497  0.15514  1.0000
  C   C608      1.0  0.62803  0.98668  0.10380  1.0000
  Fe  Fe87      1.0  0.55648  0.91903  0.87559  1.0000
  S   S173      1.0  0.62127  0.90774  0.88033  1.0000
  H   H1047     1.0  0.71039  0.72064  0.50645  1.0000
  Fe  Fe88      1.0  0.50517  0.95021  0.84210  1.0000
  S   S174      1.0  0.54674  0.95250  0.88008  1.0000
  H   H1048     1.0  0.86221  0.70096  0.56212  1.0000
  C   C609      1.0  0.58309  0.74609  0.63646  1.0000
  S   S175      1.0  0.76271  0.70138  0.61443  1.0000
  Fe  Fe89      1.0  0.64837  0.69932  0.59226  1.0000
  S   S176      1.0  0.68111  0.72781  0.60385  1.0000
  S   S177      1.0  0.58326  0.70600  0.57829  1.0000
  Fe  Fe90      1.0  0.73203  0.71654  0.57709  1.0000
  S   S178      1.0  0.76893  0.73659  0.54751  1.0000
  Fe  Fe91      1.0  0.70821  0.71038  0.64009  1.0000
  S   S179      1.0  0.69756  0.72466  0.68383  1.0000
  S   S180      1.0  0.69819  0.68918  0.56295  1.0000
  S   S181      1.0  0.67348  0.68209  0.62953  1.0000
  Fe  Fe92      1.0  0.75768  0.80463  0.85638  1.0000
  S   S182      1.0  0.74702  0.77117  0.85266  1.0000
  S   S183      1.0  0.69822  0.82188  0.85081  1.0000
  Fe  Fe93      1.0  0.84925  0.79789  0.86450  1.0000
  S   S184      1.0  0.84297  0.76436  0.86232  1.0000
  S   S185      1.0  0.91050  0.81395  0.86535  1.0000
  Fe  Fe94      1.0  0.80168  0.76996  0.82496  1.0000
  S   S186      1.0  0.81565  0.75251  0.78410  1.0000
  Fe  Fe95      1.0  0.78861  0.76857  0.89034  1.0000
  S   S187      1.0  0.77014  0.74567  0.92416  1.0000
  S   S188      1.0  0.80998  0.80350  0.82599  1.0000
  S   S189      1.0  0.79726  0.80199  0.89529  1.0000
  C   C610      1.0  0.96001  0.80377  0.86889  1.0000
  C   C611      1.0  0.96700  0.78380  0.87697  1.0000
  C   C612      1.0  0.60158  0.72106  0.72366  1.0000
  H   H1049     1.0  0.94178  0.77412  0.88182  1.0000
  H   H1050     1.0  0.96110  0.76025  0.75287  1.0000
  C   C613      1.0  0.53436  0.69739  0.58803  1.0000
  C   C614      1.0  0.52807  0.67921  0.60230  1.0000
  C   C615      1.0  0.66263  0.94283  0.77655  1.0000
  C   C616      1.0  0.53526  0.98625  0.97108  1.0000
  C   C617      1.0  0.58483  0.68276  0.67635  1.0000
  H   H1051     1.0  0.50622  0.68819  0.66306  1.0000
  H   H1052     1.0  0.58080  0.81982  0.93330  1.0000
  H   H1053     1.0  0.65937  0.95927  0.77268  1.0000
  C   C618      1.0  0.76050  0.74792  0.96120  1.0000
  S   S190      1.0  0.51889  0.91719  0.83589  1.0000
  H   H1054     1.0  0.55266  0.74962  0.62812  1.0000
  C   C619      1.0  0.99336  0.81609  0.86276  1.0000
  Fe  Fe96      1.0  0.72650  0.67425  0.60140  1.0000
  H   H1055     1.0  0.77985  0.77863  0.96558  1.0000
  C   C620      1.0  0.71704  0.81332  0.95421  1.0000
  C   C621      1.0  0.73136  0.73265  0.71103  1.0000
  C   C622      1.0  0.77278  0.72910  0.70971  1.0000
  C   C623      1.0  0.79808  0.73533  0.73221  1.0000
  C   C624      1.0  0.78239  0.74525  0.75620  1.0000
  C   C625      1.0  0.74104  0.74895  0.75740  1.0000
  C   C626      1.0  0.71574  0.74263  0.73499  1.0000
  H   H1056     1.0  0.78526  0.72141  0.69149  1.0000
  H   H1057     1.0  0.82999  0.73233  0.73107  1.0000
  H   H1058     1.0  0.72852  0.75656  0.77567  1.0000
  H   H1059     1.0  0.68384  0.74553  0.73627  1.0000
  C   C627      1.0  0.64146  0.88340  0.87330  1.0000
  C   C628      1.0  0.61888  0.86827  0.86012  1.0000
  C   C629      1.0  0.63687  0.84961  0.85348  1.0000
  C   C630      1.0  0.67750  0.84573  0.86006  1.0000
  C   C631      1.0  0.69992  0.86073  0.87362  1.0000
  C   C632      1.0  0.68201  0.87947  0.88005  1.0000
  H   H1060     1.0  0.58773  0.87104  0.85469  1.0000
  H   H1061     1.0  0.61922  0.83812  0.84299  1.0000
  H   H1062     1.0  0.73117  0.85802  0.87879  1.0000
  H   H1063     1.0  0.69985  0.89107  0.89013  1.0000
  H   H1064     1.0  0.58341  0.70271  0.64015  1.0000
  H   H1065     1.0  0.79166  0.69368  0.55386  1.0000
  H   H1066     1.0  0.68380  0.77110  0.97049  1.0000
  N   N44       1.0  0.62768  0.93510  0.79366  1.0000
  H   H1067     1.0  0.86790  0.69852  0.51389  1.0000
  C   C633      1.0  0.62934  0.91256  0.79791  1.0000
  C   C634      1.0  0.58820  0.94136  0.78015  1.0000
  H   H1068     1.0  0.50511  0.73441  0.66918  1.0000
  H   H1069     1.0  0.72019  0.65939  0.50344  1.0000
  C   C635      1.0  0.57040  0.92740  0.75713  1.0000
  C   C636      1.0  0.62628  0.96773  0.82387  1.0000
  H   H1070     1.0  0.59690  0.73404  0.62355  1.0000
  H   H1071     1.0  0.62281  0.90417  0.77810  1.0000
  H   H1072     1.0  0.60549  0.90768  0.81303  1.0000
  H   H1073     1.0  0.56416  0.94281  0.79645  1.0000
  H   H1074     1.0  0.59057  0.95664  0.77053  1.0000
  C   C637      1.0  0.62973  0.94456  0.82282  1.0000
  S   S191      1.0  0.50602  0.91149  0.90552  1.0000
  C   C638      1.0  0.52162  0.72043  0.66324  1.0000
  H   H1075     1.0  0.61256  0.67877  0.68834  1.0000
  H   H1076     1.0  0.56688  0.75323  0.67951  1.0000
  H   H1077     1.0  0.52294  0.72031  0.63962  1.0000
  H   H1078     1.0  0.66710  0.88744  0.81084  1.0000
  H   H1079     1.0  0.99005  0.78085  0.81997  1.0000
  H   H1080     1.0  0.54501  0.93520  0.74643  1.0000
  C   C639      1.0  0.56097  0.71978  0.70782  1.0000
  H   H1081     1.0  0.61452  0.73642  0.72253  1.0000
  H   H1082     1.0  0.61430  0.74122  0.67544  1.0000
  H   H1083     1.0  0.54607  0.70595  0.71545  1.0000
  H   H1084     1.0  0.54164  0.73223  0.71589  1.0000
  H   H1085     1.0  0.62134  0.70807  0.66522  1.0000
  H   H1086     1.0  0.75762  0.68999  0.50943  1.0000
  C   C640      1.0  0.62436  0.80316  0.90653  1.0000
  C   C641      1.0  0.74499  0.73117  0.97576  1.0000
  C   C642      1.0  0.58235  0.74064  0.66832  1.0000
  H   H1087     1.0  0.65834  0.94079  0.83385  1.0000
  N   N45       1.0  0.94733  0.78231  0.78514  1.0000
  C   C643      1.0  0.68260  0.78216  0.91608  1.0000
  C   C644      1.0  0.91674  0.77270  0.80446  1.0000
  C   C645      1.0  0.94285  0.80489  0.78642  1.0000
  C   C646      1.0  0.94463  0.77479  0.75489  1.0000
  C   C647      1.0  0.67799  0.81614  0.93694  1.0000
  C   C648      1.0  0.92044  0.74967  0.80791  1.0000
  C   C649      1.0  0.90269  0.81372  0.77600  1.0000
  C   C650      1.0  0.90196  0.77069  0.74287  1.0000
  C   C651      1.0  0.50066  0.70922  0.58080  1.0000
  H   H1088     1.0  0.70115  0.93455  0.74114  1.0000
  H   H1089     1.0  0.88553  0.77584  0.79769  1.0000
  H   H1090     1.0  0.91853  0.77936  0.82611  1.0000
  H   H1091     1.0  0.94764  0.81032  0.80857  1.0000
  H   H1092     1.0  0.58259  0.67157  0.65885  1.0000
  H   H1093     1.0  0.67800  0.90975  0.83009  1.0000
  H   H1094     1.0  0.68690  0.82441  0.91728  1.0000
  H   H1095     1.0  0.55349  0.66979  0.60769  1.0000
  H   H1096     1.0  0.61498  0.83574  0.91332  1.0000
  C   C652      1.0  0.58894  0.70408  0.66338  1.0000
  H   H1097     1.0  0.92412  0.74184  0.78732  1.0000
  H   H1098     1.0  0.94561  0.74571  0.82241  1.0000
  H   H1099     1.0  0.89257  0.74374  0.81777  1.0000
  H   H1100     1.0  0.90247  0.83014  0.78049  1.0000
  H   H1101     1.0  0.87648  0.80738  0.78722  1.0000
  H   H1102     1.0  0.89919  0.81202  0.75269  1.0000
  H   H1103     1.0  0.90164  0.77416  0.71978  1.0000
  H   H1104     1.0  0.87740  0.77958  0.75241  1.0000
  H   H1105     1.0  0.89442  0.75445  0.74439  1.0000
  H   H1106     1.0  0.69750  0.78873  0.89705  1.0000
  H   H1107     1.0  0.60177  0.75977  0.63344  1.0000
  H   H1108     1.0  0.50507  0.72327  0.56966  1.0000
  C   C653      1.0  0.76731  0.76574  0.97636  1.0000
  N   N46       1.0  0.56342  0.72065  0.67583  1.0000
  H   H1109     1.0  0.69141  0.94174  0.78865  1.0000
  H   H1110     1.0  0.60364  0.79045  0.90183  1.0000
  H   H1111     1.0  0.63954  0.80643  0.88603  1.0000
  H   H1112     1.0  0.55861  0.68026  0.69015  1.0000
  H   H1113     1.0  0.64767  0.75460  0.92494  1.0000
  H   H1114     1.0  0.62384  0.71007  0.71556  1.0000
  H   H1115     1.0  0.60716  0.77904  0.94731  1.0000
  H   H1116     1.0  0.71255  0.80512  0.97430  1.0000
  H   H1117     1.0  0.84591  0.68403  0.58898  1.0000
  C   C654      1.0  0.59744  0.82152  0.91310  1.0000
  H   H1118     1.0  0.81359  0.75940  0.50670  1.0000
  H   H1119     1.0  0.59854  0.97340  0.81351  1.0000
  H   H1120     1.0  0.59688  0.71772  0.74654  1.0000
  C   C655      1.0  0.66886  0.93345  0.74693  1.0000
  H   H1121     1.0  0.65893  0.82671  0.94938  1.0000
  H   H1122     1.0  0.55436  0.98079  0.95418  1.0000
  H   H1123     1.0  0.72909  0.82838  0.95990  1.0000
  H   H1124     1.0  0.73976  0.71730  0.96430  1.0000
  H   H1125     1.0  0.74073  0.80588  0.94152  1.0000
  C   C656      1.0  0.85181  0.68532  0.56583  1.0000
  C   C657      1.0  0.77585  0.67635  0.50450  1.0000
  H   H1126     1.0  0.57480  0.82317  0.89584  1.0000
  C   C658      1.0  0.63173  0.78931  0.95432  1.0000
  C   C659      1.0  0.50611  0.98471  0.77530  1.0000
  H   H1127     1.0  0.69470  0.90691  0.79369  1.0000
  H   H1128     1.0  0.95987  0.78544  0.74020  1.0000
  H   H1129     1.0  0.99424  0.76068  0.79552  1.0000
  C   C660      1.0  0.81257  0.68098  0.54939  1.0000
  H   H1130     1.0  0.61551  0.80170  0.96531  1.0000
  H   H1131     1.0  0.55784  0.91353  0.76681  1.0000
  H   H1132     1.0  0.66202  0.91720  0.74604  1.0000
  C   C661      1.0  0.65558  0.77807  0.97769  1.0000
  C   C662      1.0  0.66980  0.90404  0.80875  1.0000
  H   H1133     1.0  0.68686  0.75175  0.89950  1.0000
  H   H1134     1.0  0.65077  0.94152  0.73062  1.0000
  H   H1135     1.0  0.96605  0.81245  0.77329  1.0000
  C   C663      1.0  0.66296  0.76216  0.90699  1.0000
  H   H1136     1.0  0.59216  0.92338  0.74040  1.0000
  H   H1137     1.0  0.60548  0.93844  0.83659  1.0000
  C   C664      1.0  0.76235  0.73972  0.51028  1.0000
  H   H1138     1.0  0.64192  0.76421  0.88891  1.0000
  C   C665      1.0  0.83631  0.69709  0.50629  1.0000
  H   H1139     1.0  0.87608  0.67455  0.56054  1.0000
  N   N47       1.0  0.65468  0.79743  0.92917  1.0000
  H   H1140     1.0  0.63734  0.76530  0.98578  1.0000
  H   H1141     1.0  0.54440  0.95827  0.51085  1.0000
  H   H1142     1.0  0.70795  0.77817  0.93024  1.0000
  C   C666      1.0  0.98838  0.77714  0.79697  1.0000
  H   H1143     1.0  0.82431  0.65733  0.62359  1.0000
  H   H1144     1.0  0.74647  0.65641  0.53602  1.0000
  H   H1145     1.0  0.65297  0.97514  0.81449  1.0000
  N   N48       1.0  0.81707  0.67815  0.51775  1.0000
  C   C667      1.0  0.52805  0.97122  0.50302  1.0000
  H   H1146     1.0  0.82064  0.71068  0.51447  1.0000
  C   C668      1.0  0.51645  0.98652  0.52229  1.0000
  H   H1147     1.0  0.79834  0.66790  0.55972  1.0000
  C   C669      1.0  0.75074  0.65784  0.51282  1.0000
  H   H1148     1.0  0.52392  0.98521  0.54460  1.0000
  C   C670      1.0  0.84326  0.66038  0.51013  1.0000
  H   H1149     1.0  0.98842  0.83157  0.85657  1.0000
  S   S192      1.0  0.51032  0.97785  0.81222  1.0000
  H   H1150     1.0  0.62491  0.97253  0.84647  1.0000
  H   H1151     1.0  0.66219  0.78811  0.99598  1.0000
  H   H1152     1.0  0.87557  0.66474  0.51131  1.0000
  C   C671      1.0  0.49496  0.97101  0.75408  1.0000
  C   C672      1.0  0.49548  0.97947  0.97285  1.0000
