data_image0
_chemical_formula_structural       SHFeCFeS2H3CH6C3H3CH2C3H4NCH7C3H2SC2H2NH3CHCH3CHCH2CH2SHCHSCH3CH4CH4SCH5CH4C2HC2HCHC2SHC3SHCH4CHFeH2FeCFeS2FeHFeCFeS3FeS2FeSHFeSFeS3HFeS2FeS2H2CHSH2C2HC6H3C2H3NCHCHC4HCH3CH5C6H3SNC7H14CHCH4CH7C3H2C2H8CHCH4C2HNHCH2CH6CH6CH2CHC2NCH2C2HCSCHC2H8SH5C2H3CFeS2FeS2FeSFeS3FeSCFeS2FeHFeSCSHFeS2HFeS2H2C6H7CHC7H4CH2CH5C6H9C3H4C2HC2HC2HNH3CH2NHCFeCH4CHC2H5CHCH3SNCH2NC8H8CHCHCH6CH8NCH2C2H5SHCH3CHCHSC3H6NH2CSCH4C4H2C4HCHSCFeSHSH2FeH2NCH2CH5CH4C2HC3H8SH6CFeH2CH3CNSCHCHCHCHCH2CHFeHSHC2H3CH6CH2CH5NC10H2SC2HFeS2FeHFeHFeS3FeS2FeSCFeSFeS2C3H2SH3SH2CHC6H10C3H2C3H3CH2CHCNC5HC2H12CH2C2H2CNC8H25CHCH6C4H2SH2C2SH2NSC2NH3CHCHCNH5CH4CFeSFe2CH2CHCSNHSHFeS2HFeS2HCH2CHFeS2HSC2H2CHCHCHSCNSH5C3FeHC3H3CHCH2C3H2SCSHCH2CSHSCH2C2H4SHCHCH2NC8H20CFeHC2H2FeCHCH2CHCHNCH2CH2CHCSHCHSHC2HSC3H3CHCNSCFeCH5C2H2SH5C2FeHSCFeCSC2HC2FeCSCHCHCHCFeHSCFeSC2FeS2H5SH3SC2SCH3C2HCH2C2HC4HCH2FeH2C3FeH10SH2SHCH2FeNC8H20NC7H19NC4H7SH5C2HC2H2CHCH2SHC2HSCHSFeSH3SC2H4C2H3C3H2CHC2HFeSCFeS2FeHFeS3FeS2FeSHFeSFeHSH2SH4C2HCH2C2NC6H10C2HC2H3C2HCH2SH3C3HC4H2CHSH2NC6H18CH5NCH2CHSHCNH2CHC2HCH2CH2C2H2CHCHC2H2CH6CH3C2H2FeCSH3SHSCHCFeH5C3H2CH4CH3C2HCH3CHSHCHCH2CH4NCHCHCH3CSCHC3H3C3HCH2SH4CNCH3CH3CH2CH3C3NH2CHSHSH2SHCHCH2CHNH4CH4CHFe2H2CHFeCHFeS2Fe3S3FeS2FeS2FeSFeHS2FeS2FeS2C2HCH2C6H2NH2C2H2CHSC6H5FeS2HC6H6NC8H20NC4HC3H8C2H5CH5C2H5CSCH5CHCHCH3CH2CH4CH4C2SNHCH2C2HC2H3CHSHCH2C3HCH3CHCH2C2H5C2HSH2FeHSFeS2FeCFeS3FeH2FeS2FeSFeS3HFeS2FeS2H2C6SCSHC2H3C6H5CH5C6H5CHSH2C2H3C2FeNC8H21CH5CSH4C3H4NCH2C2SHC2NC8H7SH8C2HSHCH5C3HNH4CFeHC2H2SCFeS2H2C2H3CHC2H2SH5C2HCH5CH6CHCH3CH5C2HCNH2C2H2NH2CH4C3H2CSH5CSHNH3C2HCSHCH5CSH4CNHCHSC2H3C3H2CH2CHC2HCH6CHCH2CHCH6CHCFe2
_chemical_formula_sum              "S192 H1152 Fe96 C672 N48"
_cell_length_a       70.3392
_cell_length_b       38.5351
_cell_length_c       37.5917
_cell_angle_alpha    89.882
_cell_angle_beta     89.9726
_cell_angle_gamma    88.3516

_space_group_name_H-M_alt    "P 1"
_space_group_IT_number       1

loop_
  _space_group_symop_operation_xyz
  'x, y, z'

loop_
  _atom_site_type_symbol
  _atom_site_label
  _atom_site_symmetry_multiplicity
  _atom_site_fract_x
  _atom_site_fract_y
  _atom_site_fract_z
  _atom_site_occupancy
  S   S1        1.0  0.01652  0.07927  0.35542  1.0000
  H   H1        1.0  0.07920  0.18198  0.23990  1.0000
  Fe  Fe1       1.0  0.00813  0.04023  0.31451  1.0000
  C   C1        1.0  0.05444  0.12917  0.31218  1.0000
  Fe  Fe2       1.0  0.01929  0.44252  0.32341  1.0000
  S   S2        1.0  0.04965  0.44359  0.29989  1.0000
  S   S3        1.0  0.01455  0.41557  0.37644  1.0000
  H   H2        1.0  0.08087  0.05042  0.19974  1.0000
  H   H3        1.0  0.02724  0.34898  0.47848  1.0000
  H   H4        1.0  0.04874  0.05837  0.22431  1.0000
  C   C2        1.0  0.99357  0.31285  0.48016  1.0000
  H   H5        1.0  0.05327  0.07644  0.29296  1.0000
  H   H6        1.0  0.15937  0.43648  0.04038  1.0000
  H   H7        1.0  0.19463  0.05120  0.17677  1.0000
  H   H8        1.0  0.01922  0.36646  0.43592  1.0000
  H   H9        1.0  0.06082  0.12026  0.33776  1.0000
  H   H10       1.0  0.19740  0.06092  0.11850  1.0000
  C   C3        1.0  0.25186  0.04392  0.19892  1.0000
  C   C4        1.0  0.16339  0.03352  0.03328  1.0000
  C   C5        1.0  0.15937  0.46363  0.03299  1.0000
  H   H11       1.0  0.16568  0.05771  0.04695  1.0000
  H   H12       1.0  0.08139  0.05401  0.24669  1.0000
  H   H13       1.0  0.26418  0.03314  0.21432  1.0000
  C   C6        1.0  0.00465  0.24201  0.31079  1.0000
  H   H14       1.0  0.23878  0.03041  0.11980  1.0000
  H   H15       1.0  0.21772  0.03371  0.24471  1.0000
  C   C7        1.0  0.22655  0.04314  0.13386  1.0000
  C   C8        1.0  0.06550  0.00257  0.29769  1.0000
  C   C9        1.0  0.05882  0.10161  0.28336  1.0000
  H   H16       1.0  0.03646  0.38824  0.46140  1.0000
  H   H17       1.0  0.17793  0.46689  0.35397  1.0000
  H   H18       1.0  0.00312  0.11250  0.21999  1.0000
  H   H19       1.0  0.00733  0.42096  0.47048  1.0000
  N   N1        1.0  0.22153  0.02382  0.16739  1.0000
  C   C10       1.0  0.05983  0.00611  0.41692  1.0000
  H   H20       1.0  0.08613  0.14027  0.25488  1.0000
  H   H21       1.0  0.25771  0.05801  0.17581  1.0000
  H   H22       1.0  0.08855  0.08976  0.21887  1.0000
  H   H23       1.0  0.10870  0.46134  0.14303  1.0000
  H   H24       1.0  0.02145  0.48674  0.46444  1.0000
  H   H25       1.0  0.08429  0.14850  0.20770  1.0000
  H   H26       1.0  0.03769  0.04769  0.41437  1.0000
  C   C11       1.0  0.02968  0.10938  0.24937  1.0000
  C   C12       1.0  0.00805  0.39482  0.48326  1.0000
  C   C13       1.0  0.12131  0.47781  0.14155  1.0000
  H   H27       1.0  0.21506  0.06541  0.08475  1.0000
  H   H28       1.0  0.03900  0.13296  0.31708  1.0000
  S   S4        1.0  0.02774  0.01070  0.27496  1.0000
  C   C14       1.0  0.16204  0.00266  0.05323  1.0000
  C   C15       1.0  0.23951  0.01364  0.18707  1.0000
  H   H29       1.0  0.22072  0.44189  0.00210  1.0000
  H   H30       1.0  0.06070  0.15448  0.30566  1.0000
  N   N2        1.0  0.05111  0.10984  0.24673  1.0000
  H   H31       1.0  0.11210  0.48024  0.07392  1.0000
  H   H32       1.0  0.06091  0.01397  0.32259  1.0000
  H   H33       1.0  0.02146  0.13610  0.19917  1.0000
  C   C16       1.0  0.08231  0.46396  0.26556  1.0000
  H   H34       1.0  0.23156  0.06953  0.14033  1.0000
  C   C17       1.0  0.06467  0.47509  0.28012  1.0000
  H   H35       1.0  0.02406  0.13112  0.26603  1.0000
  H   H36       1.0  0.02512  0.08522  0.26281  1.0000
  H   H37       1.0  0.00206  0.31765  0.45604  1.0000
  C   C18       1.0  0.05734  0.08198  0.22061  1.0000
  H   H38       1.0  0.21462  0.07380  0.19175  1.0000
  C   C19       1.0  0.07827  0.06889  0.22201  1.0000
  H   H39       1.0  0.23629  0.99795  0.21107  1.0000
  H   H40       1.0  0.16215  0.48145  0.08740  1.0000
  C   C20       1.0  0.05643  0.14536  0.23383  1.0000
  H   H41       1.0  0.06551  0.99603  0.48852  1.0000
  H   H42       1.0  0.31082  0.08868  0.48720  1.0000
  S   S5        1.0  0.99794  0.40952  0.29511  1.0000
  H   H43       1.0  0.05461  0.09073  0.19277  1.0000
  C   C21       1.0  0.01860  0.11192  0.21395  1.0000
  H   H44       1.0  0.19464  0.05363  0.24082  1.0000
  S   S6        1.0  0.99784  0.48604  0.33457  1.0000
  C   C22       1.0  0.05109  0.04142  0.42866  1.0000
  H   H45       1.0  0.12888  0.47529  0.16739  1.0000
  H   H46       1.0  0.05163  0.14948  0.20592  1.0000
  H   H47       1.0  0.16286  0.44995  0.25742  1.0000
  C   C23       1.0  0.99650  0.02139  0.48481  1.0000
  H   H48       1.0  0.24406  0.06232  0.21665  1.0000
  H   H49       1.0  0.20631  0.02349  0.09419  1.0000
  H   H50       1.0  0.07866  0.48083  0.16530  1.0000
  H   H51       1.0  0.01409  0.23617  0.28876  1.0000
  C   C24       1.0  0.09490  0.48778  0.25026  1.0000
  H   H52       1.0  0.10821  0.47858  0.23891  1.0000
  H   H53       1.0  0.13119  0.46751  0.12083  1.0000
  H   H54       1.0  0.07381  0.00254  0.43051  1.0000
  H   H55       1.0  0.07446  0.09759  0.28344  1.0000
  S   S7        1.0  0.16460  0.00434  0.10058  1.0000
  C   C25       1.0  0.16095  0.48910  0.05979  1.0000
  H   H56       1.0  0.08339  0.47908  0.10512  1.0000
  H   H57       1.0  0.15959  0.43510  0.35177  1.0000
  H   H58       1.0  0.14645  0.44666  0.29370  1.0000
  H   H59       1.0  0.06113  0.06223  0.42215  1.0000
  H   H60       1.0  0.13475  0.47387  0.34645  1.0000
  C   C26       1.0  0.07773  0.15392  0.23408  1.0000
  H   H61       1.0  0.08621  0.43660  0.26609  1.0000
  H   H62       1.0  0.19746  0.45652  0.99102  1.0000
  H   H63       1.0  0.19796  0.00947  0.22831  1.0000
  H   H64       1.0  0.04856  0.16624  0.24876  1.0000
  C   C27       1.0  0.21027  0.04833  0.10664  1.0000
  C   C28       1.0  0.02334  0.37295  0.46346  1.0000
  H   H65       1.0  0.06342  0.00881  0.38821  1.0000
  C   C29       1.0  0.15786  0.47286  0.99675  1.0000
  C   C30       1.0  0.20879  0.04734  0.18967  1.0000
  H   H66       1.0  0.02137  0.08893  0.19680  1.0000
  C   C31       1.0  0.20477  0.03493  0.22792  1.0000
  H   H67       1.0  0.09485  0.99558  0.31400  1.0000
  C   C32       1.0  0.16333  0.46094  0.36230  1.0000
  C   C33       1.0  0.00123  0.27707  0.32080  1.0000
  S   S8        1.0  0.00050  0.05186  0.44987  1.0000
  H   H68       1.0  0.02011  0.99921  0.41017  1.0000
  C   C34       1.0  0.99615  0.21447  0.32914  1.0000
  C   C35       1.0  0.15250  0.46485  0.27417  1.0000
  C   C36       1.0  0.32510  0.08960  0.47516  1.0000
  S   S9        1.0  0.00126  0.17063  0.31515  1.0000
  H   H69       1.0  0.00809  0.29767  0.30657  1.0000
  C   C37       1.0  0.05226  0.99811  0.27045  1.0000
  H   H70       1.0  0.04847  0.04267  0.45772  1.0000
  H   H71       1.0  0.24881  0.99618  0.17067  1.0000
  H   H72       1.0  0.14110  0.47465  0.25607  1.0000
  H   H73       1.0  0.19651  0.99765  0.14912  1.0000
  C   C38       1.0  0.16162  0.03351  0.99577  1.0000
  H   H74       1.0  0.03105  0.99469  0.46751  1.0000
  Fe  Fe3       1.0  0.99353  0.05658  0.39003  1.0000
  H   H75       1.0  0.17700  0.48546  0.29982  1.0000
  H   H76       1.0  0.16374  0.45786  0.39169  1.0000
  Fe  Fe4       1.0  0.99348  0.11517  0.33312  1.0000
  C   C39       1.0  0.14777  0.48861  0.35250  1.0000
  Fe  Fe5       1.0  0.15196  0.37827  0.84449  1.0000
  S   S10       1.0  0.16205  0.41462  0.80189  1.0000
  S   S11       1.0  0.14184  0.32615  0.82324  1.0000
  Fe  Fe6       1.0  0.15624  0.43447  0.90296  1.0000
  H   H77       1.0  0.13160  0.25975  0.79574  1.0000
  Fe  Fe7       1.0  0.14238  0.45463  0.82780  1.0000
  C   C40       1.0  0.08041  0.01571  0.73579  1.0000
  Fe  Fe8       1.0  0.18464  0.43100  0.84033  1.0000
  S   S12       1.0  0.21739  0.43332  0.83683  1.0000
  S   S13       1.0  0.13149  0.41762  0.86896  1.0000
  S   S14       1.0  0.17568  0.39179  0.88128  1.0000
  Fe  Fe9       1.0  0.15226  0.11659  0.85881  1.0000
  S   S15       1.0  0.15167  0.10055  0.80147  1.0000
  S   S16       1.0  0.15662  0.17127  0.88077  1.0000
  Fe  Fe10      1.0  0.15466  0.04171  0.88579  1.0000
  S   S17       1.0  0.15471  0.02048  0.82969  1.0000
  H   H78       1.0  0.24013  0.14370  0.77284  1.0000
  Fe  Fe11      1.0  0.17516  0.06231  0.81584  1.0000
  S   S18       1.0  0.19827  0.05226  0.77361  1.0000
  Fe  Fe12      1.0  0.13107  0.05933  0.81804  1.0000
  S   S19       1.0  0.10924  0.04419  0.77516  1.0000
  S   S20       1.0  0.17709  0.08029  0.87248  1.0000
  S   S21       1.0  0.12973  0.07859  0.87509  1.0000
  H   H79       1.0  0.24396  0.33608  0.67556  1.0000
  Fe  Fe13      1.0  0.30979  0.44331  0.70199  1.0000
  S   S22       1.0  0.31100  0.40314  0.65847  1.0000
  S   S23       1.0  0.27921  0.46258  0.71493  1.0000
  Fe  Fe14      1.0  0.31076  0.07033  0.70987  1.0000
  S   S24       1.0  0.31115  0.08536  0.65148  1.0000
  S   S25       1.0  0.28751  0.07462  0.75295  1.0000
  H   H80       1.0  0.29143  0.33576  0.68465  1.0000
  H   H81       1.0  0.12007  0.38060  0.78506  1.0000
  C   C41       1.0  0.06264  0.00026  0.73022  1.0000
  H   H82       1.0  0.26809  0.40183  0.67343  1.0000
  S   S26       1.0  0.12413  0.48796  0.78902  1.0000
  H   H83       1.0  0.16738  0.15262  0.73563  1.0000
  H   H84       1.0  0.21386  0.45339  0.76112  1.0000
  C   C42       1.0  0.19901  0.21121  0.82333  1.0000
  C   C43       1.0  0.24274  0.45707  0.74145  1.0000
  H   H85       1.0  0.28828  0.27727  0.66056  1.0000
  C   C44       1.0  0.22315  0.05824  0.76863  1.0000
  C   C45       1.0  0.23462  0.06867  0.79678  1.0000
  C   C46       1.0  0.25424  0.07331  0.79143  1.0000
  C   C47       1.0  0.26271  0.06765  0.75786  1.0000
  C   C48       1.0  0.25124  0.05711  0.72971  1.0000
  C   C49       1.0  0.23161  0.05237  0.73514  1.0000
  H   H86       1.0  0.22840  0.07303  0.82264  1.0000
  H   H87       1.0  0.26298  0.08138  0.81341  1.0000
  H   H88       1.0  0.25751  0.05257  0.70378  1.0000
  C   C50       1.0  0.21822  0.18564  0.77504  1.0000
  C   C51       1.0  0.08681  0.02385  0.77026  1.0000
  H   H89       1.0  0.24195  0.47688  0.91551  1.0000
  H   H90       1.0  0.28551  0.32664  0.77791  1.0000
  H   H91       1.0  0.28587  0.37031  0.79262  1.0000
  N   N3        1.0  0.26569  0.33843  0.71652  1.0000
  C   C52       1.0  0.23559  0.45695  0.93298  1.0000
  H   H92       1.0  0.20425  0.25305  0.78426  1.0000
  C   C53       1.0  0.20634  0.41054  0.96363  1.0000
  H   H93       1.0  0.27238  0.36429  0.64518  1.0000
  C   C54       1.0  0.23424  0.44093  0.80215  1.0000
  C   C55       1.0  0.25383  0.43763  0.80990  1.0000
  C   C56       1.0  0.26777  0.44398  0.78370  1.0000
  C   C57       1.0  0.26232  0.45378  0.74918  1.0000
  H   H94       1.0  0.26369  0.29503  0.75349  1.0000
  C   C58       1.0  0.22881  0.45048  0.76759  1.0000
  H   H95       1.0  0.23203  0.31122  0.77918  1.0000
  H   H96       1.0  0.10651  0.43479  0.72972  1.0000
  H   H97       1.0  0.23099  0.43634  0.91435  1.0000
  C   C59       1.0  0.00085  0.00522  0.54773  1.0000
  H   H98       1.0  0.30195  0.12967  0.53343  1.0000
  H   H99       1.0  0.29377  0.01634  0.49856  1.0000
  H   H100      1.0  0.30382  0.02381  0.56151  1.0000
  H   H101      1.0  0.21496  0.20462  0.75335  1.0000
  H   H102      1.0  0.24884  0.34379  0.78834  1.0000
  C   C60       1.0  0.14586  0.28332  0.83997  1.0000
  C   C61       1.0  0.15553  0.27677  0.87187  1.0000
  C   C62       1.0  0.15828  0.24237  0.88416  1.0000
  C   C63       1.0  0.15159  0.21405  0.86466  1.0000
  C   C64       1.0  0.14203  0.22056  0.83259  1.0000
  C   C65       1.0  0.13912  0.25502  0.82044  1.0000
  H   H103      1.0  0.16074  0.29821  0.88723  1.0000
  H   H104      1.0  0.16573  0.23765  0.90895  1.0000
  H   H105      1.0  0.13675  0.19911  0.81733  1.0000
  S   S27       1.0  0.15613  0.43921  0.96427  1.0000
  N   N4        1.0  0.08972  0.38139  0.77513  1.0000
  C   C66       1.0  0.08632  0.36860  0.81262  1.0000
  C   C67       1.0  0.08957  0.35035  0.75074  1.0000
  C   C68       1.0  0.07375  0.40687  0.76541  1.0000
  C   C69       1.0  0.10871  0.39859  0.77479  1.0000
  C   C70       1.0  0.08158  0.39682  0.84076  1.0000
  C   C71       1.0  0.19458  0.24716  0.80659  1.0000
  C   C72       1.0  0.06837  0.41052  0.72569  1.0000
  H   H106      1.0  0.07441  0.35013  0.81320  1.0000
  H   H107      1.0  0.09904  0.35384  0.82294  1.0000
  H   H108      1.0  0.09173  0.35793  0.72258  1.0000
  H   H109      1.0  0.07535  0.33830  0.75157  1.0000
  H   H110      1.0  0.06021  0.39965  0.77855  1.0000
  H   H111      1.0  0.07684  0.43322  0.77539  1.0000
  H   H112      1.0  0.10864  0.42100  0.79321  1.0000
  H   H113      1.0  0.06738  0.40939  0.83645  1.0000
  H   H114      1.0  0.08125  0.38444  0.86747  1.0000
  H   H115      1.0  0.09234  0.41711  0.84192  1.0000
  H   H116      1.0  0.18082  0.20498  0.76077  1.0000
  H   H117      1.0  0.25829  0.43037  0.83649  1.0000
  H   H118      1.0  0.30297  0.35484  0.76021  1.0000
  H   H119      1.0  0.13008  0.42254  0.74216  1.0000
  C   C73       1.0  0.25239  0.35565  0.68990  1.0000
  H   H120      1.0  0.25048  0.38861  0.64298  1.0000
  C   C74       1.0  0.25209  0.44187  0.95579  1.0000
  H   H121      1.0  0.21902  0.39640  0.95295  1.0000
  H   H122      1.0  0.06050  0.38761  0.71654  1.0000
  H   H123      1.0  0.11652  0.39208  0.71813  1.0000
  H   H124      1.0  0.24757  0.42080  0.97372  1.0000
  C   C75       1.0  0.27532  0.29058  0.67152  1.0000
  H   H125      1.0  0.26749  0.30227  0.64868  1.0000
  H   H126      1.0  0.16256  0.05752  0.98100  1.0000
  H   H127      1.0  0.26672  0.27038  0.68429  1.0000
  H   H128      1.0  0.28291  0.38376  0.72211  1.0000
  H   H129      1.0  0.24170  0.37273  0.70366  1.0000
  H   H130      1.0  0.24532  0.29759  0.72187  1.0000
  H   H131      1.0  0.22977  0.19713  0.79108  1.0000
  C   C76       1.0  0.31362  0.01245  0.54234  1.0000
  C   C77       1.0  0.20202  0.14832  0.82038  1.0000
  C   C78       1.0  0.30794  0.00795  0.50666  1.0000
  H   H132      1.0  0.19985  0.45996  0.91019  1.0000
  H   H133      1.0  0.26321  0.38353  0.75048  1.0000
  C   C79       1.0  0.21841  0.14639  0.84764  1.0000
  C   C80       1.0  0.22734  0.15271  0.75775  1.0000
  H   H134      1.0  0.23267  0.15938  0.73083  1.0000
  H   H135      1.0  0.18783  0.20658  0.84354  1.0000
  H   H136      1.0  0.21234  0.21420  0.83883  1.0000
  H   H137      1.0  0.20317  0.12447  0.80413  1.0000
  H   H138      1.0  0.18856  0.14545  0.83562  1.0000
  H   H139      1.0  0.17954  0.24965  0.79780  1.0000
  H   H140      1.0  0.18406  0.12530  0.75843  1.0000
  H   H141      1.0  0.21780  0.13080  0.75406  1.0000
  C   C81       1.0  0.18187  0.15176  0.74746  1.0000
  H   H142      1.0  0.10287  0.30003  0.73894  1.0000
  C   C82       1.0  0.25431  0.31400  0.73899  1.0000
  H   H143      1.0  0.19632  0.26749  0.82719  1.0000
  H   H144      1.0  0.21585  0.16472  0.86998  1.0000
  H   H145      1.0  0.21905  0.12008  0.85972  1.0000
  H   H146      1.0  0.23239  0.15105  0.83519  1.0000
  C   C83       1.0  0.18296  0.18037  0.77586  1.0000
  C   C84       1.0  0.28153  0.31814  0.69844  1.0000
  H   H147      1.0  0.21792  0.05111  0.92499  1.0000
  N   N5        1.0  0.20085  0.18085  0.79798  1.0000
  H   H148      1.0  0.19196  0.15620  0.72535  1.0000
  C   C85       1.0  0.22236  0.03157  0.90468  1.0000
  H   H149      1.0  0.00581  0.01162  0.57409  1.0000
  H   H150      1.0  0.10289  0.30964  0.78520  1.0000
  C   C86       1.0  0.28791  0.35345  0.76890  1.0000
  H   H151      1.0  0.00941  0.05362  0.52435  1.0000
  H   H152      1.0  0.19529  0.41285  0.94286  1.0000
  H   H153      1.0  0.11928  0.33053  0.75521  1.0000
  H   H154      1.0  0.99925  0.34488  0.52609  1.0000
  H   H155      1.0  0.17026  0.17818  0.79347  1.0000
  H   H156      1.0  0.25903  0.46231  0.97143  1.0000
  C   C87       1.0  0.20808  0.00209  0.90521  1.0000
  H   H157      1.0  0.05800  0.99445  0.70352  1.0000
  H   H158      1.0  0.23830  0.46492  0.71501  1.0000
  H   H159      1.0  0.28272  0.44162  0.79028  1.0000
  H   H160      1.0  0.26311  0.43042  0.93776  1.0000
  H   H161      1.0  0.29959  0.08447  0.54417  1.0000
  H   H162      1.0  0.08063  0.41426  0.70791  1.0000
  C   C88       1.0  0.11554  0.41248  0.73878  1.0000
  H   H163      1.0  0.23092  0.35085  0.75440  1.0000
  H   H164      1.0  0.21958  0.00885  0.83502  1.0000
  C   C89       1.0  0.30562  0.10928  0.55306  1.0000
  H   H165      1.0  0.01412  0.39872  0.51019  1.0000
  C   C90       1.0  0.10459  0.32132  0.75844  1.0000
  C   C91       1.0  0.27439  0.36615  0.73885  1.0000
  N   N6        1.0  0.21887  0.47223  0.95330  1.0000
  C   C92       1.0  0.24083  0.33135  0.76660  1.0000
  H   H166      1.0  0.29054  0.30412  0.71848  1.0000
  H   H167      1.0  0.05864  0.43359  0.72242  1.0000
  C   C93       1.0  0.15863  0.00248  0.97756  1.0000
  C   C94       1.0  0.26167  0.37866  0.66151  1.0000
  H   H168      1.0  0.09125  0.48297  0.83750  1.0000
  C   C95       1.0  0.07512  0.01610  0.79920  1.0000
  S   S28       1.0  0.16588  0.47415  0.86329  1.0000
  C   C96       1.0  0.20356  0.48252  0.92696  1.0000
  H   H169      1.0  0.20038  0.39423  0.98509  1.0000
  C   C97       1.0  0.21097  0.44632  0.97913  1.0000
  C   C98       1.0  0.00283  0.02905  0.51941  1.0000
  H   H170      1.0  0.22290  0.04418  0.71314  1.0000
  H   H171      1.0  0.24658  0.99826  0.86050  1.0000
  H   H172      1.0  0.07971  0.02227  0.82585  1.0000
  H   H173      1.0  0.29804  0.11742  0.57777  1.0000
  H   H174      1.0  0.23681  0.02206  0.91233  1.0000
  H   H175      1.0  0.22258  0.04551  0.87894  1.0000
  H   H176      1.0  0.99518  0.43202  0.54340  1.0000
  H   H177      1.0  0.08924  0.02166  0.71314  1.0000
  S   S29       1.0  0.15684  0.00040  0.93012  1.0000
  H   H178      1.0  0.19008  0.49022  0.94072  1.0000
  H   H179      1.0  0.00187  0.29348  0.49620  1.0000
  H   H180      1.0  0.32269  0.25060  0.73593  1.0000
  H   H181      1.0  0.19361  0.01441  0.90310  1.0000
  H   H182      1.0  0.19497  0.00586  0.83933  1.0000
  C   C99       1.0  0.05725  0.00102  0.79361  1.0000
  C   C100      1.0  0.05084  0.99300  0.75912  1.0000
  H   H183      1.0  0.04831  0.99562  0.81625  1.0000
  H   H184      1.0  0.32463  0.17554  0.56482  1.0000
  H   H185      1.0  0.32359  0.15159  0.50198  1.0000
  C   C101      1.0  0.08613  0.49169  0.81178  1.0000
  Fe  Fe15      1.0  0.15997  0.62963  0.19500  1.0000
  S   S30       1.0  0.15640  0.59428  0.24185  1.0000
  S   S31       1.0  0.16246  0.68547  0.21479  1.0000
  Fe  Fe16      1.0  0.16185  0.56650  0.14422  1.0000
  S   S32       1.0  0.15898  0.52748  0.18905  1.0000
  S   S33       1.0  0.16183  0.55804  0.08338  1.0000
  Fe  Fe17      1.0  0.13581  0.56401  0.20967  1.0000
  S   S34       1.0  0.10570  0.55503  0.23189  1.0000
  Fe  Fe18      1.0  0.18001  0.56107  0.21841  1.0000
  S   S35       1.0  0.20120  0.54539  0.26265  1.0000
  S   S36       1.0  0.13779  0.60171  0.16393  1.0000
  S   S37       1.0  0.18440  0.59749  0.17247  1.0000
  Fe  Fe19      1.0  0.13754  0.94821  0.21277  1.0000
  S   S38       1.0  0.13429  0.93263  0.15537  1.0000
  C   C102      1.0  0.01840  0.94586  0.39529  1.0000
  Fe  Fe20      1.0  0.18152  0.93473  0.21094  1.0000
  S   S39       1.0  0.18124  0.91752  0.15352  1.0000
  S   S40       1.0  0.20530  0.94058  0.25236  1.0000
  Fe  Fe21      1.0  0.16067  0.96259  0.14366  1.0000
  H   H186      1.0  0.08949  0.56841  0.07816  1.0000
  Fe  Fe22      1.0  0.15501  0.88829  0.16848  1.0000
  S   S41       1.0  0.14831  0.83533  0.14500  1.0000
  C   C103      1.0  0.22086  0.96599  0.13230  1.0000
  S   S42       1.0  0.15673  0.90215  0.22636  1.0000
  H   H187      1.0  0.09708  0.77792  0.24203  1.0000
  Fe  Fe23      1.0  0.31629  0.93736  0.31192  1.0000
  S   S43       1.0  0.29635  0.93684  0.26355  1.0000
  S   S44       1.0  0.31058  0.91198  0.36470  1.0000
  H   H188      1.0  0.11290  0.57390  0.09477  1.0000
  Fe  Fe24      1.0  0.31343  0.55930  0.32064  1.0000
  S   S45       1.0  0.29195  0.53923  0.27994  1.0000
  S   S46       1.0  0.30736  0.59517  0.36663  1.0000
  H   H189      1.0  0.08529  0.89393  0.26116  1.0000
  H   H190      1.0  0.21587  0.54630  0.00780  1.0000
  C   C104      1.0  0.23064  0.93749  0.25503  1.0000
  C   C105      1.0  0.24213  0.92845  0.22589  1.0000
  C   C106      1.0  0.26215  0.92829  0.22903  1.0000
  C   C107      1.0  0.27101  0.93626  0.26153  1.0000
  C   C108      1.0  0.25951  0.94459  0.29085  1.0000
  C   C109      1.0  0.23949  0.94541  0.28751  1.0000
  H   H191      1.0  0.23561  0.92165  0.20097  1.0000
  H   H192      1.0  0.27088  0.92161  0.20621  1.0000
  H   H193      1.0  0.16570  0.56158  0.31212  1.0000
  H   H194      1.0  0.11056  0.81024  0.17176  1.0000
  H   H195      1.0  0.12122  0.78975  0.23026  1.0000
  H   H196      1.0  0.28372  0.72051  0.29921  1.0000
  H   H197      1.0  0.08399  0.89415  0.18263  1.0000
  C   C110      1.0  0.29067  0.88710  0.46176  1.0000
  H   H198      1.0  0.15518  0.55861  0.35500  1.0000
  C   C111      1.0  0.22649  0.54708  0.26637  1.0000
  C   C112      1.0  0.09006  0.58279  0.13232  1.0000
  C   C113      1.0  0.25468  0.54762  0.30507  1.0000
  C   C114      1.0  0.26673  0.54385  0.27561  1.0000
  C   C115      1.0  0.25849  0.54217  0.24150  1.0000
  C   C116      1.0  0.23854  0.54431  0.23682  1.0000
  C   C117      1.0  0.10710  0.78277  0.21999  1.0000
  H   H199      1.0  0.11246  0.87196  0.14445  1.0000
  H   H200      1.0  0.26762  0.53893  0.21850  1.0000
  H   H201      1.0  0.23250  0.54252  0.21045  1.0000
  H   H202      1.0  0.32453  0.91000  0.44413  1.0000
  C   C118      1.0  0.07794  0.97365  0.23281  1.0000
  H   H203      1.0  0.11177  0.52776  0.16056  1.0000
  H   H204      1.0  0.24931  0.61331  0.34210  1.0000
  C   C119      1.0  0.05980  0.51056  0.27890  1.0000
  H   H205      1.0  0.00543  0.95223  0.37951  1.0000
  H   H206      1.0  0.20111  0.50964  0.01157  1.0000
  H   H207      1.0  0.27184  0.70675  0.33928  1.0000
  H   H208      1.0  0.13478  0.84260  0.25312  1.0000
  H   H209      1.0  0.29471  0.61197  0.25865  1.0000
  C   C120      1.0  0.15844  0.72674  0.19452  1.0000
  C   C121      1.0  0.15095  0.73054  0.16022  1.0000
  C   C122      1.0  0.14796  0.76397  0.14550  1.0000
  C   C123      1.0  0.15255  0.79391  0.16472  1.0000
  C   C124      1.0  0.15992  0.79013  0.19908  1.0000
  C   C125      1.0  0.16277  0.75674  0.21389  1.0000
  H   H210      1.0  0.14754  0.70775  0.14502  1.0000
  H   H211      1.0  0.14225  0.76663  0.11889  1.0000
  H   H212      1.0  0.16354  0.81288  0.21416  1.0000
  H   H213      1.0  0.16857  0.75408  0.24044  1.0000
  H   H214      1.0  0.07156  0.85705  0.16863  1.0000
  H   H215      1.0  0.01353  0.93568  0.42123  1.0000
  H   H216      1.0  0.22346  0.94023  0.14494  1.0000
  H   H217      1.0  0.15805  0.94764  0.04978  1.0000
  H   H218      1.0  0.08345  0.82708  0.25680  1.0000
  C   C126      1.0  0.15944  0.53359  0.01454  1.0000
  C   C127      1.0  0.16093  0.52437  0.05076  1.0000
  C   C128      1.0  0.15908  0.97163  0.03501  1.0000
  H   H219      1.0  0.01367  0.65233  0.48641  1.0000
  H   H220      1.0  0.26593  0.63590  0.36982  1.0000
  H   H221      1.0  0.18106  0.52212  0.37808  1.0000
  H   H222      1.0  0.12443  0.50536  0.29801  1.0000
  C   C129      1.0  0.09740  0.86583  0.14028  1.0000
  C   C130      1.0  0.31392  0.84315  0.44205  1.0000
  H   H223      1.0  0.12091  0.87710  0.27261  1.0000
  C   C131      1.0  0.11212  0.86350  0.21854  1.0000
  C   C132      1.0  0.07933  0.84416  0.23431  1.0000
  H   H224      1.0  0.11202  0.83419  0.27079  1.0000
  C   C133      1.0  0.32161  0.75715  0.32727  1.0000
  C   C134      1.0  0.07311  0.87955  0.25045  1.0000
  H   H225      1.0  0.06616  0.94885  0.48781  1.0000
  N   N7        1.0  0.10145  0.52348  0.10607  1.0000
  H   H226      1.0  0.14434  0.50375  0.37701  1.0000
  H   H227      1.0  0.09656  0.84048  0.12648  1.0000
  H   H228      1.0  0.06637  0.83202  0.22344  1.0000
  C   C135      1.0  0.09937  0.80950  0.19269  1.0000
  H   H229      1.0  0.08669  0.79814  0.17990  1.0000
  H   H230      1.0  0.09799  0.57917  0.15750  1.0000
  N   N8        1.0  0.04755  0.97520  0.42273  1.0000
  H   H231      1.0  0.10977  0.89225  0.21858  1.0000
  C   C136      1.0  0.05862  0.98345  0.23808  1.0000
  Fe  Fe25      1.0  0.32526  0.95773  0.38903  1.0000
  C   C137      1.0  0.11608  0.51644  0.13471  1.0000
  H   H232      1.0  0.12656  0.57542  0.33583  1.0000
  H   H233      1.0  0.10660  0.55325  0.31945  1.0000
  H   H234      1.0  0.07221  0.94120  0.43035  1.0000
  H   H235      1.0  0.04634  0.51966  0.28986  1.0000
  C   C138      1.0  0.20938  0.52508  0.99241  1.0000
  H   H236      1.0  0.28624  0.82605  0.42193  1.0000
  C   C139      1.0  0.04108  0.97287  0.46091  1.0000
  C   C140      1.0  0.07247  0.53441  0.26384  1.0000
  H   H237      1.0  0.23464  0.97447  0.12182  1.0000
  H   H238      1.0  0.26603  0.95091  0.31598  1.0000
  H   H239      1.0  0.06854  0.56176  0.26344  1.0000
  H   H240      1.0  0.20868  0.97609  0.18390  1.0000
  H   H241      1.0  0.04854  0.97993  0.21674  1.0000
  C   C141      1.0  0.09017  0.52331  0.24969  1.0000
  H   H242      1.0  0.13604  0.54283  0.28279  1.0000
  C   C142      1.0  0.12004  0.85348  0.25578  1.0000
  H   H243      1.0  0.05621  0.95172  0.35523  1.0000
  H   H244      1.0  0.08018  0.95262  0.37165  1.0000
  H   H245      1.0  0.18980  0.56000  0.35720  1.0000
  S   S47       1.0  0.32069  0.68575  0.32848  1.0000
  N   N9        1.0  0.15206  0.51285  0.32210  1.0000
  C   C143      1.0  0.15748  0.97158  0.99749  1.0000
  H   H246      1.0  0.21125  0.96176  0.10932  1.0000
  H   H247      1.0  0.12389  0.85910  0.19926  1.0000
  N   N10       1.0  0.26353  0.65951  0.28070  1.0000
  C   C144      1.0  0.27923  0.66233  0.25357  1.0000
  C   C145      1.0  0.25630  0.69573  0.28954  1.0000
  C   C146      1.0  0.24724  0.63906  0.26662  1.0000
  C   C147      1.0  0.27143  0.64096  0.31301  1.0000
  C   C148      1.0  0.28719  0.62781  0.23813  1.0000
  C   C149      1.0  0.26973  0.71766  0.31219  1.0000
  C   C150      1.0  0.23844  0.65215  0.23134  1.0000
  C   C151      1.0  0.25763  0.63723  0.34469  1.0000
  H   H248      1.0  0.27465  0.67905  0.23078  1.0000
  H   H249      1.0  0.29167  0.67543  0.26528  1.0000
  H   H250      1.0  0.24230  0.69542  0.30330  1.0000
  H   H251      1.0  0.25342  0.71089  0.26478  1.0000
  H   H252      1.0  0.25155  0.61141  0.26298  1.0000
  H   H253      1.0  0.23543  0.63855  0.28634  1.0000
  H   H254      1.0  0.27612  0.61399  0.30612  1.0000
  H   H255      1.0  0.28475  0.65269  0.32261  1.0000
  C   C152      1.0  0.05914  0.94292  0.41374  1.0000
  H   H256      1.0  0.29795  0.63358  0.21747  1.0000
  C   C153      1.0  0.28324  0.91543  0.48746  1.0000
  H   H257      1.0  0.31103  0.75546  0.30658  1.0000
  C   C154      1.0  0.06624  0.94011  0.37485  1.0000
  H   H258      1.0  0.12377  0.51988  0.06647  1.0000
  H   H259      1.0  0.24878  0.65083  0.20909  1.0000
  H   H260      1.0  0.23229  0.67886  0.23375  1.0000
  H   H261      1.0  0.22657  0.63507  0.22407  1.0000
  H   H262      1.0  0.24759  0.65959  0.34783  1.0000
  H   H263      1.0  0.26336  0.74418  0.31542  1.0000
  C   C155      1.0  0.16322  0.54338  0.33464  1.0000
  H   H264      1.0  0.11847  0.53646  0.35807  1.0000
  H   H265      1.0  0.06524  0.89616  0.23096  1.0000
  H   H266      1.0  0.07491  0.57654  0.13617  1.0000
  H   H267      1.0  0.09129  0.88583  0.12191  1.0000
  H   H268      1.0  0.12956  0.52956  0.12805  1.0000
  H   H269      1.0  0.10948  0.75750  0.20620  1.0000
  H   H270      1.0  0.30531  0.79509  0.41754  1.0000
  H   H271      1.0  0.06323  0.87516  0.27297  1.0000
  N   N11       1.0  0.09453  0.84562  0.20605  1.0000
  C   C156      1.0  0.08600  0.86628  0.17537  1.0000
  H   H272      1.0  0.03362  0.98845  0.37237  1.0000
  H   H273      1.0  0.02635  0.92526  0.38047  1.0000
  C   C157      1.0  0.23473  0.54882  0.30048  1.0000
  C   C158      1.0  0.09117  0.97784  0.26015  1.0000
  H   H274      1.0  0.32166  0.81334  0.32565  1.0000
  H   H275      1.0  0.09039  0.61095  0.12598  1.0000
  H   H276      1.0  0.05157  0.91888  0.42091  1.0000
  H   H277      1.0  0.26074  0.54840  0.33150  1.0000
  H   H278      1.0  0.22562  0.55063  0.32362  1.0000
  S   S48       1.0  0.11568  0.96520  0.25573  1.0000
  H   H279      1.0  0.23079  0.95234  0.31029  1.0000
  C   C159      1.0  0.09894  0.56221  0.10110  1.0000
  H   H280      1.0  0.29496  0.80178  0.46052  1.0000
  H   H281      1.0  0.08259  0.96276  0.20766  1.0000
  H   H282      1.0  0.31609  0.85645  0.41613  1.0000
  C   C160      1.0  0.13348  0.52688  0.30694  1.0000
  H   H283      1.0  0.15930  0.56076  0.00714  1.0000
  C   C161      1.0  0.18267  0.53515  0.35197  1.0000
  H   H284      1.0  0.27911  0.86810  0.46047  1.0000
  S   S49       1.0  0.16245  0.98162  0.20042  1.0000
  C   C162      1.0  0.32487  0.89574  0.46994  1.0000
  C   C163      1.0  0.12080  0.54917  0.33204  1.0000
  C   C164      1.0  0.29905  0.81516  0.43566  1.0000
  H   H285      1.0  0.10398  0.49864  0.01613  1.0000
  H   H286      1.0  0.09796  0.54195  0.02859  1.0000
  H   H287      1.0  0.27617  0.61228  0.22513  1.0000
  H   H288      1.0  0.06781  0.91231  0.36732  1.0000
  H   H289      1.0  0.29141  0.89919  0.43483  1.0000
  H   H290      1.0  0.16550  0.51436  0.27045  1.0000
  N   N12       1.0  0.30944  0.86936  0.47095  1.0000
  H   H291      1.0  0.19243  0.51987  0.33456  1.0000
  H   H292      1.0  0.03282  0.94908  0.46540  1.0000
  C   C165      1.0  0.03009  0.97890  0.39950  1.0000
  S   S50       1.0  0.31180  0.98535  0.43745  1.0000
  C   C166      1.0  0.01188  0.49355  0.48602  1.0000
  H   H293      1.0  0.27022  0.92791  0.47587  1.0000
  H   H294      1.0  0.00407  0.60945  0.48263  1.0000
  H   H295      1.0  0.08145  0.52699  0.16996  1.0000
  H   H296      1.0  0.07118  0.51938  0.09723  1.0000
  C   C167      1.0  0.05684  0.97248  0.48944  1.0000
  C   C168      1.0  0.09761  0.51464  0.03792  1.0000
  C   C169      1.0  0.10963  0.50882  0.07188  1.0000
  C   C170      1.0  0.32022  0.99199  0.48158  1.0000
  H   H297      1.0  0.08272  0.50656  0.04123  1.0000
  H   H298      1.0  0.06005  0.51026  0.15328  1.0000
  C   C171      1.0  0.21108  0.99123  0.15918  1.0000
  C   C172      1.0  0.08267  0.50681  0.11354  1.0000
  C   C173      1.0  0.07577  0.50657  0.15275  1.0000
  C   C174      1.0  0.16267  0.49523  0.29192  1.0000
  H   H299      1.0  0.23529  0.49485  0.99567  1.0000
  C   C175      1.0  0.08475  0.99217  0.29267  1.0000
  H   H300      1.0  0.23360  0.52086  0.95700  1.0000
  S   S51       1.0  0.02086  0.57635  0.67796  1.0000
  C   C176      1.0  0.31191  0.87210  0.54019  1.0000
  Fe  Fe26      1.0  0.01465  0.54017  0.72360  1.0000
  S   S52       1.0  0.03453  0.52107  0.76892  1.0000
  H   H301      1.0  0.01475  0.69521  0.61977  1.0000
  S   S53       1.0  0.01758  0.91217  0.66688  1.0000
  H   H302      1.0  0.00760  0.72921  0.59008  1.0000
  H   H303      1.0  0.27902  0.90423  0.51337  1.0000
  Fe  Fe27      1.0  0.00914  0.94809  0.71197  1.0000
  H   H304      1.0  0.05001  0.97212  0.51612  1.0000
  H   H305      1.0  0.09371  0.89720  0.79928  1.0000
  N   N13       1.0  0.00661  0.64068  0.56827  1.0000
  C   C177      1.0  0.00759  0.71096  0.69925  1.0000
  H   H306      1.0  0.01740  0.69001  0.70651  1.0000
  H   H307      1.0  0.08845  0.85354  0.75862  1.0000
  C   C178      1.0  0.19322  0.93132  0.91888  1.0000
  H   H308      1.0  0.29432  0.83827  0.50913  1.0000
  H   H309      1.0  0.05672  0.49605  0.82843  1.0000
  H   H310      1.0  0.02541  0.68306  0.55686  1.0000
  H   H311      1.0  0.01022  0.63692  0.62559  1.0000
  H   H312      1.0  0.01426  0.59757  0.60272  1.0000
  C   C179      1.0  0.01031  0.67879  0.56408  1.0000
  H   H313      1.0  0.08129  0.80128  0.73435  1.0000
  H   H314      1.0  0.15669  0.51580  0.96011  1.0000
  H   H315      1.0  0.19950  0.53761  0.97299  1.0000
  H   H316      1.0  0.02739  0.87312  0.80686  1.0000
  C   C180      1.0  0.22531  0.50318  0.97412  1.0000
  C   C181      1.0  0.09206  0.50835  0.75096  1.0000
  H   H317      1.0  0.18207  0.91151  0.91766  1.0000
  C   C182      1.0  0.05949  0.51149  0.77355  1.0000
  C   C183      1.0  0.20840  0.96421  0.80962  1.0000
  C   C184      1.0  0.07243  0.51572  0.74567  1.0000
  H   H318      1.0  0.20671  0.91774  0.92656  1.0000
  H   H319      1.0  0.07914  0.86301  0.68999  1.0000
  H   H320      1.0  0.05840  0.88768  0.81607  1.0000
  H   H321      1.0  0.04589  0.61530  0.58190  1.0000
  H   H322      1.0  0.30860  0.90022  0.53808  1.0000
  H   H323      1.0  0.05915  0.92628  0.72537  1.0000
  H   H324      1.0  0.07204  0.90364  0.67081  1.0000
  H   H325      1.0  0.03887  0.83214  0.79454  1.0000
  S   S54       1.0  0.99983  0.50136  0.68912  1.0000
  H   H326      1.0  0.03778  0.85799  0.72940  1.0000
  H   H327      1.0  0.19557  0.92783  0.86252  1.0000
  H   H328      1.0  0.18052  0.96277  0.87709  1.0000
  H   H329      1.0  0.21970  0.94374  0.81197  1.0000
  H   H330      1.0  0.10189  0.51223  0.72928  1.0000
  H   H331      1.0  0.20902  0.99105  0.93250  1.0000
  C   C185      1.0  0.15795  0.50811  0.98772  1.0000
  Fe  Fe28      1.0  0.99702  0.87404  0.69014  1.0000
  H   H332      1.0  0.15519  0.94738  0.98384  1.0000
  H   H333      1.0  0.00195  0.68992  0.54140  1.0000
  C   C186      1.0  0.19453  0.94931  0.88220  1.0000
  H   H334      1.0  0.02964  0.62602  0.53261  1.0000
  H   H335      1.0  0.05959  0.79769  0.75756  1.0000
  H   H336      1.0  0.06050  0.82155  0.71625  1.0000
  C   C187      1.0  0.00060  0.77387  0.69347  1.0000
  N   N14       1.0  0.21061  0.97411  0.87744  1.0000
  S   S55       1.0  0.01725  0.52450  0.58943  1.0000
  C   C188      1.0  0.20858  0.51184  0.90072  1.0000
  H   H337      1.0  0.08278  0.91000  0.73200  1.0000
  C   C189      1.0  0.24704  0.96982  0.86426  1.0000
  H   H338      1.0  0.07262  0.83937  0.79214  1.0000
  C   C190      1.0  0.00706  0.51202  0.54806  1.0000
  H   H339      1.0  0.32265  0.91623  0.49011  1.0000
  C   C191      1.0  0.01651  0.62590  0.60073  1.0000
  H   H340      1.0  0.05410  0.87449  0.68337  1.0000
  C   C192      1.0  0.30838  0.85054  0.50616  1.0000
  H   H341      1.0  0.01653  0.84541  0.77536  1.0000
  H   H342      1.0  0.08197  0.92839  0.82757  1.0000
  C   C193      1.0  0.09909  0.49625  0.78398  1.0000
  H   H343      1.0  0.25001  0.95697  0.83833  1.0000
  Fe  Fe29      1.0  0.00443  0.53895  0.64405  1.0000
  H   H344      1.0  0.01343  0.59306  0.53905  1.0000
  S   S56       1.0  0.00851  0.81752  0.69854  1.0000
  H   H345      1.0  0.06736  0.52511  0.72015  1.0000
  C   C194      1.0  0.01921  0.50309  0.51950  1.0000
  C   C195      1.0  0.01306  0.74591  0.70264  1.0000
  H   H346      1.0  0.21980  0.50325  0.88166  1.0000
  H   H347      1.0  0.21085  0.97844  0.78435  1.0000
  H   H348      1.0  0.21276  0.53596  0.91418  1.0000
  C   C196      1.0  0.00540  0.70152  0.59677  1.0000
  H   H349      1.0  0.19433  0.95213  0.80704  1.0000
  H   H350      1.0  0.19587  0.51888  0.88453  1.0000
  H   H351      1.0  0.03445  0.50352  0.52331  1.0000
  H   H352      1.0  0.04218  0.65815  0.60142  1.0000
  H   H353      1.0  0.05217  0.92510  0.79095  1.0000
  H   H354      1.0  0.02710  0.75132  0.71257  1.0000
  C   C197      1.0  0.03821  0.63057  0.60265  1.0000
  H   H355      1.0  0.23255  0.95087  0.91101  1.0000
  H   H356      1.0  0.08550  0.93923  0.78224  1.0000
  C   C198      1.0  0.22931  0.95439  0.88220  1.0000
  H   H357      1.0  0.04350  0.62039  0.62859  1.0000
  H   H358      1.0  0.30284  0.86225  0.56199  1.0000
  H   H359      1.0  0.03208  0.89813  0.74871  1.0000
  H   H360      1.0  0.18865  0.94968  0.94011  1.0000
  H   H361      1.0  0.22822  0.92772  0.87108  1.0000
  N   N15       1.0  0.06106  0.88066  0.75890  1.0000
  C   C199      1.0  0.06246  0.90266  0.79203  1.0000
  C   C200      1.0  0.04029  0.87344  0.75356  1.0000
  C   C201      1.0  0.06792  0.90187  0.72790  1.0000
  C   C202      1.0  0.07324  0.84808  0.76388  1.0000
  C   C203      1.0  0.08217  0.91736  0.80027  1.0000
  C   C204      1.0  0.03046  0.85487  0.78464  1.0000
  C   C205      1.0  0.06814  0.88418  0.69122  1.0000
  C   C206      1.0  0.06802  0.81597  0.74149  1.0000
  C   C207      1.0  0.06652  0.49929  0.80657  1.0000
  C   C208      1.0  0.01416  0.62181  0.53591  1.0000
  H   H362      1.0  0.29339  0.93649  0.49132  1.0000
  H   H363      1.0  0.31918  0.82879  0.50686  1.0000
  S   S57       1.0  0.02825  0.97315  0.75412  1.0000
  C   C209      1.0  0.00500  0.63264  0.50005  1.0000
  C   C210      1.0  0.20843  0.99007  0.84092  1.0000
  H   H364      1.0  0.25972  0.96373  0.88100  1.0000
  Fe  Fe30      1.0  0.50309  0.38090  0.19014  1.0000
  S   S58       1.0  0.47729  0.40259  0.16170  1.0000
  S   S59       1.0  0.51403  0.32343  0.18706  1.0000
  Fe  Fe31      1.0  0.51506  0.45490  0.21229  1.0000
  H   H365      1.0  0.48225  0.03973  0.05503  1.0000
  Fe  Fe32      1.0  0.47248  0.43840  0.20868  1.0000
  H   H366      1.0  0.56778  0.11490  0.19245  1.0000
  Fe  Fe33      1.0  0.49602  0.44379  0.13910  1.0000
  S   S60       1.0  0.49172  0.45069  0.07855  1.0000
  S   S61       1.0  0.49731  0.41406  0.23899  1.0000
  S   S62       1.0  0.52238  0.42058  0.16525  1.0000
  Fe  Fe34      1.0  0.51670  0.04431  0.21792  1.0000
  S   S63       1.0  0.48914  0.07240  0.23302  1.0000
  S   S64       1.0  0.53661  0.02950  0.26456  1.0000
  Fe  Fe35      1.0  0.50661  0.04669  0.13859  1.0000
  S   S65       1.0  0.47873  0.07539  0.14820  1.0000
  C   C211      1.0  0.33635  0.48951  0.47864  1.0000
  Fe  Fe36      1.0  0.49470  0.10865  0.18707  1.0000
  S   S66       1.0  0.48583  0.16589  0.19895  1.0000
  Fe  Fe37      1.0  0.47472  0.03796  0.19394  1.0000
  S   S67       1.0  0.44526  0.01354  0.19870  1.0000
  S   S68       1.0  0.52306  0.08261  0.17438  1.0000
  C   C212      1.0  0.49294  0.48390  0.04549  1.0000
  C   C213      1.0  0.60039  0.43841  0.41691  1.0000
  C   C214      1.0  0.40766  0.46861  0.25785  1.0000
  H   H367      1.0  0.60109  0.46465  0.46885  1.0000
  H   H368      1.0  0.38752  0.43341  0.40457  1.0000
  S   S69       1.0  0.50177  0.00717  0.18189  1.0000
  H   H369      1.0  0.40861  0.45658  0.44413  1.0000
  H   H370      1.0  0.43844  0.40170  0.10579  1.0000
  H   H371      1.0  0.45140  0.43408  0.08368  1.0000
  S   S70       1.0  0.53395  0.49116  0.24538  1.0000
  H   H372      1.0  0.56047  0.09439  0.28737  1.0000
  H   H373      1.0  0.65307  0.42298  0.37639  1.0000
  C   C215      1.0  0.56298  0.11590  0.22061  1.0000
  H   H374      1.0  0.40191  0.44442  0.24883  1.0000
  C   C216      1.0  0.50520  0.28011  0.18837  1.0000
  C   C217      1.0  0.48741  0.27230  0.20264  1.0000
  C   C218      1.0  0.48169  0.23741  0.20506  1.0000
  C   C219      1.0  0.49344  0.20966  0.19278  1.0000
  C   C220      1.0  0.51105  0.21750  0.17776  1.0000
  C   C221      1.0  0.51692  0.25233  0.17599  1.0000
  H   H375      1.0  0.47822  0.29315  0.21244  1.0000
  H   H376      1.0  0.46807  0.23195  0.21678  1.0000
  H   H377      1.0  0.52027  0.19675  0.16790  1.0000
  H   H378      1.0  0.53068  0.25788  0.16478  1.0000
  H   H379      1.0  0.36887  0.48110  0.34754  1.0000
  H   H380      1.0  0.56397  0.00655  0.20937  1.0000
  H   H381      1.0  0.40754  0.47504  0.18118  1.0000
  H   H382      1.0  0.51687  0.13029  0.24272  1.0000
  H   H383      1.0  0.61127  0.42140  0.46866  1.0000
  H   H384      1.0  0.44812  0.01803  0.27689  1.0000
  C   C222      1.0  0.56873  0.00411  0.29929  1.0000
  C   C223      1.0  0.42701  0.47517  0.25155  1.0000
  C   C224      1.0  0.40854  0.48941  0.38042  1.0000
  H   H385      1.0  0.63202  0.47138  0.35520  1.0000
  H   H386      1.0  0.57766  0.11561  0.31319  1.0000
  C   C225      1.0  0.57641  0.44662  0.34827  1.0000
  C   C226      1.0  0.38014  0.45862  0.39800  1.0000
  C   C227      1.0  0.48668  0.47680  0.01069  1.0000
  H   H387      1.0  0.56909  0.45256  0.22448  1.0000
  H   H388      1.0  0.63564  0.47089  0.40135  1.0000
  H   H389      1.0  0.41645  0.46392  0.38032  1.0000
  C   C228      1.0  0.43739  0.42879  0.09560  1.0000
  H   H390      1.0  0.60452  0.45357  0.32756  1.0000
  H   H391      1.0  0.57200  0.43310  0.32363  1.0000
  C   C229      1.0  0.63738  0.42056  0.37796  1.0000
  H   H392      1.0  0.56874  0.43465  0.37072  1.0000
  C   C230      1.0  0.62811  0.45725  0.37996  1.0000
  N   N16       1.0  0.54207  0.15468  0.26242  1.0000
  C   C231      1.0  0.53224  0.19010  0.26295  1.0000
  C   C232      1.0  0.52671  0.12838  0.26592  1.0000
  C   C233      1.0  0.55161  0.15017  0.22668  1.0000
  C   C234      1.0  0.55643  0.15270  0.29227  1.0000
  C   C235      1.0  0.54471  0.22141  0.25466  1.0000
  H   H393      1.0  0.50613  0.10732  0.30272  1.0000
  C   C236      1.0  0.56009  0.01052  0.26598  1.0000
  C   C237      1.0  0.51435  0.13135  0.29974  1.0000
  H   H394      1.0  0.52016  0.19113  0.24387  1.0000
  H   H395      1.0  0.52574  0.19550  0.28944  1.0000
  H   H396      1.0  0.57601  0.11453  0.23721  1.0000
  H   H397      1.0  0.35470  0.08906  0.48717  1.0000
  H   H398      1.0  0.54088  0.15293  0.20491  1.0000
  H   H399      1.0  0.56208  0.17072  0.22197  1.0000
  H   H400      1.0  0.56966  0.16598  0.28438  1.0000
  H   H401      1.0  0.55084  0.16714  0.31590  1.0000
  H   H402      1.0  0.55794  0.22120  0.27067  1.0000
  H   H403      1.0  0.54814  0.22297  0.22588  1.0000
  H   H404      1.0  0.53654  0.24576  0.26100  1.0000
  H   H405      1.0  0.60156  0.41426  0.35105  1.0000
  C   C238      1.0  0.37374  0.45585  0.35881  1.0000
  H   H406      1.0  0.40403  0.48623  0.09647  1.0000
  H   H407      1.0  0.55475  0.11014  0.33134  1.0000
  C   C239      1.0  0.59823  0.44263  0.35219  1.0000
  C   C240      1.0  0.49134  0.02737  0.03527  1.0000
  H   H408      1.0  0.56099  0.01075  0.32332  1.0000
  H   H409      1.0  0.44234  0.44661  0.14886  1.0000
  C   C241      1.0  0.56231  0.11600  0.30618  1.0000
  N   N17       1.0  0.43001  0.13710  0.22590  1.0000
  C   C242      1.0  0.43067  0.17097  0.20560  1.0000
  C   C243      1.0  0.43855  0.10939  0.20205  1.0000
  C   C244      1.0  0.44233  0.14046  0.25851  1.0000
  C   C245      1.0  0.40962  0.13051  0.23597  1.0000
  C   C246      1.0  0.42475  0.20404  0.22642  1.0000
  C   C247      1.0  0.42866  0.10495  0.16577  1.0000
  C   C248      1.0  0.44446  0.10833  0.28276  1.0000
  C   C249      1.0  0.40438  0.09232  0.24318  1.0000
  H   H410      1.0  0.44523  0.17510  0.19491  1.0000
  H   H411      1.0  0.42121  0.17053  0.18189  1.0000
  H   H412      1.0  0.43896  0.08365  0.21492  1.0000
  H   H413      1.0  0.45374  0.11477  0.19658  1.0000
  H   H414      1.0  0.45694  0.14800  0.25069  1.0000
  H   H415      1.0  0.43674  0.16146  0.27619  1.0000
  H   H416      1.0  0.40545  0.14596  0.25988  1.0000
  H   H417      1.0  0.39991  0.13965  0.21425  1.0000
  H   H418      1.0  0.42328  0.22612  0.20745  1.0000
  H   H419      1.0  0.41089  0.20156  0.24007  1.0000
  H   H420      1.0  0.43587  0.21126  0.24576  1.0000
  H   H421      1.0  0.43368  0.08002  0.15367  1.0000
  H   H422      1.0  0.41300  0.10406  0.16814  1.0000
  H   H423      1.0  0.43254  0.12586  0.14699  1.0000
  H   H424      1.0  0.45003  0.08500  0.26864  1.0000
  H   H425      1.0  0.43093  0.10278  0.29652  1.0000
  H   H426      1.0  0.45496  0.11384  0.30394  1.0000
  H   H427      1.0  0.39342  0.09173  0.26447  1.0000
  H   H428      1.0  0.41618  0.07503  0.25215  1.0000
  H   H429      1.0  0.39760  0.08080  0.21946  1.0000
  H   H430      1.0  0.42607  0.42930  0.07508  1.0000
  H   H431      1.0  0.60181  0.40992  0.41216  1.0000
  H   H432      1.0  0.38074  0.48776  0.27946  1.0000
  H   H433      1.0  0.36688  0.45929  0.41423  1.0000
  H   H434      1.0  0.43363  0.47843  0.04627  1.0000
  C   C250      1.0  0.60989  0.44588  0.45306  1.0000
  H   H435      1.0  0.52295  0.13423  0.32416  1.0000
  C   C251      1.0  0.42929  0.00459  0.23435  1.0000
  H   H436      1.0  0.54444  0.46934  0.01501  1.0000
  H   H437      1.0  0.60298  0.46060  0.24069  1.0000
  H   H438      1.0  0.63305  0.40653  0.35369  1.0000
  H   H439      1.0  0.50383  0.15329  0.29753  1.0000
  H   H440      1.0  0.33714  0.48233  0.45088  1.0000
  H   H441      1.0  0.62449  0.45541  0.45124  1.0000
  C   C252      1.0  0.57283  0.47289  0.24280  1.0000
  C   C253      1.0  0.52184  0.00282  0.01748  1.0000
  C   C254      1.0  0.40049  0.48186  0.44374  1.0000
  C   C255      1.0  0.57034  0.00184  0.23519  1.0000
  H   H442      1.0  0.53245  0.10150  0.26490  1.0000
  H   H443      1.0  0.55449  0.09252  0.22495  1.0000
  S   S71       1.0  0.44125  0.44360  0.22784  1.0000
  H   H444      1.0  0.38539  0.44488  0.34190  1.0000
  H   H445      1.0  0.41811  0.44465  0.13608  1.0000
  C   C256      1.0  0.59208  0.47757  0.25209  1.0000
  C   C257      1.0  0.51027  0.01883  0.04371  1.0000
  S   S72       1.0  0.52025  0.02772  0.08622  1.0000
  H   H446      1.0  0.36171  0.43788  0.35693  1.0000
  H   H447      1.0  0.58486  0.44273  0.42127  1.0000
  N   N18       1.0  0.39250  0.48889  0.40710  1.0000
  S   S73       1.0  0.48967  0.48078  0.18436  1.0000
  C   C258      1.0  0.38570  0.48090  0.47402  1.0000
  C   C259      1.0  0.43225  0.45307  0.12681  1.0000
  N   N19       1.0  0.60681  0.45873  0.38493  1.0000
  H   H448      1.0  0.42488  0.00533  0.32480  1.0000
  H   H449      1.0  0.48118  0.45152  0.00477  1.0000
  H   H450      1.0  0.63438  0.40494  0.40202  1.0000
  C   C260      1.0  0.48419  0.02035  0.00100  1.0000
  H   H451      1.0  0.57162  0.47411  0.34502  1.0000
  C   C261      1.0  0.43413  0.00913  0.27012  1.0000
  H   H452      1.0  0.37621  0.45857  0.47136  1.0000
  C   C262      1.0  0.42090  0.00183  0.29727  1.0000
  N   N20       1.0  0.43205  0.49159  0.11939  1.0000
  H   H453      1.0  0.45616  0.48993  0.08290  1.0000
  H   H454      1.0  0.40983  0.49185  0.03692  1.0000
  H   H455      1.0  0.52726  0.44142  0.99468  1.0000
  H   H456      1.0  0.65895  0.49062  0.44395  1.0000
  H   H457      1.0  0.32646  0.06664  0.45735  1.0000
  C   C263      1.0  0.41103  0.99266  0.22630  1.0000
  H   H458      1.0  0.53650  0.99604  0.02373  1.0000
  H   H459      1.0  0.46957  0.02743  0.99475  1.0000
  H   H460      1.0  0.32615  0.11278  0.45780  1.0000
  H   H461      1.0  0.46246  0.49199  0.12781  1.0000
  C   C264      1.0  0.53615  0.46447  0.99046  1.0000
  Fe  Fe38      1.0  0.63134  0.45862  0.69021  1.0000
  S   S74       1.0  0.62815  0.41994  0.64570  1.0000
  Fe  Fe39      1.0  0.33289  0.37525  0.69227  1.0000
  Fe  Fe40      1.0  0.65638  0.43888  0.62581  1.0000
  C   C265      1.0  0.56604  0.42516  0.89156  1.0000
  H   H462      1.0  0.61415  0.00529  0.75856  1.0000
  H   H463      1.0  0.52926  0.03004  0.87611  1.0000
  C   C266      1.0  0.52569  0.44187  0.91612  1.0000
  H   H464      1.0  0.37098  0.12589  0.53015  1.0000
  C   C267      1.0  0.56693  0.47400  0.77942  1.0000
  S   S75       1.0  0.50094  0.99429  0.82946  1.0000
  N   N21       1.0  0.55841  0.04817  0.87834  1.0000
  H   H465      1.0  0.36648  0.48823  0.61342  1.0000
  S   S76       1.0  0.33451  0.10595  0.72405  1.0000
  H   H466      1.0  0.34364  0.29776  0.64063  1.0000
  Fe  Fe41      1.0  0.63468  0.07396  0.70266  1.0000
  S   S77       1.0  0.60355  0.07060  0.72147  1.0000
  S   S78       1.0  0.63926  0.08999  0.64532  1.0000
  H   H467      1.0  0.40403  0.03462  0.81265  1.0000
  Fe  Fe42      1.0  0.35380  0.44327  0.70844  1.0000
  S   S79       1.0  0.35702  0.40217  0.66587  1.0000
  S   S80       1.0  0.48567  0.99576  0.93229  1.0000
  H   H468      1.0  0.57205  0.05152  0.82666  1.0000
  C   C268      1.0  0.36059  0.11418  0.54872  1.0000
  H   H469      1.0  0.36069  0.13049  0.57317  1.0000
  H   H470      1.0  0.63090  0.25860  0.72105  1.0000
  C   C269      1.0  0.65751  0.47747  0.53426  1.0000
  H   H471      1.0  0.38280  0.08219  0.57396  1.0000
  Fe  Fe43      1.0  0.35474  0.06059  0.71350  1.0000
  S   S81       1.0  0.35812  0.07586  0.65624  1.0000
  S   S82       1.0  0.37788  0.05097  0.75596  1.0000
  H   H472      1.0  0.65423  0.46425  0.82513  1.0000
  S   S83       1.0  0.33077  0.41418  0.73698  1.0000
  C   C270      1.0  0.64096  0.25626  0.69934  1.0000
  C   C271      1.0  0.58884  0.04100  0.61855  1.0000
  H   H473      1.0  0.39320  0.47753  0.49984  1.0000
  H   H474      1.0  0.32632  0.19223  0.70833  1.0000
  C   C272      1.0  0.53829  0.06542  0.93436  1.0000
  H   H475      1.0  0.55528  0.99975  0.93926  1.0000
  C   C273      1.0  0.39058  0.45452  0.60274  1.0000
  H   H476      1.0  0.59949  0.08720  0.84545  1.0000
  C   C274      1.0  0.41726  0.47728  0.76031  1.0000
  H   H477      1.0  0.55537  0.40542  0.88545  1.0000
  S   S84       1.0  0.33101  0.02418  0.70233  1.0000
  C   C275      1.0  0.57147  0.06578  0.85240  1.0000
  N   N22       1.0  0.59907  0.00614  0.62147  1.0000
  S   S85       1.0  0.33011  0.31917  0.71162  1.0000
  H   H478      1.0  0.57626  0.42495  0.86900  1.0000
  H   H479      1.0  0.61710  0.02535  0.66315  1.0000
  H   H480      1.0  0.33992  0.43678  0.49787  1.0000
  H   H481      1.0  0.51228  0.46804  0.86983  1.0000
  H   H482      1.0  0.59322  0.08180  0.89124  1.0000
  C   C276      1.0  0.39823  0.48711  0.75268  1.0000
  C   C277      1.0  0.33292  0.27831  0.69019  1.0000
  C   C278      1.0  0.40041  0.02826  0.75610  1.0000
  Fe  Fe44      1.0  0.64571  0.38248  0.67956  1.0000
  H   H483      1.0  0.56638  0.07461  0.63987  1.0000
  C   C279      1.0  0.41038  0.02451  0.78845  1.0000
  C   C280      1.0  0.54984  0.45917  0.95870  1.0000
  C   C281      1.0  0.51743  0.44189  0.87811  1.0000
  H   H484      1.0  0.56603  0.09243  0.84582  1.0000
  H   H485      1.0  0.32989  0.11902  0.58619  1.0000
  H   H486      1.0  0.60030  0.04469  0.86387  1.0000
  C   C282      1.0  0.33590  0.17960  0.54473  1.0000
  H   H487      1.0  0.51355  0.44784  0.93443  1.0000
  C   C283      1.0  0.52987  0.07636  0.84479  1.0000
  H   H488      1.0  0.34968  0.18333  0.55832  1.0000
  H   H489      1.0  0.53148  0.04015  0.93170  1.0000
  C   C284      1.0  0.59030  0.03886  0.74491  1.0000
  C   C285      1.0  0.57039  0.04346  0.74771  1.0000
  C   C286      1.0  0.33788  0.46370  0.50542  1.0000
  H   H490      1.0  0.56353  0.06614  0.73583  1.0000
  H   H491      1.0  0.54395  0.02286  0.76720  1.0000
  S   S86       1.0  0.38315  0.45629  0.73193  1.0000
  C   C287      1.0  0.58301  0.47166  0.75678  1.0000
  S   S87       1.0  0.33933  0.43854  0.57436  1.0000
  H   H492      1.0  0.55586  0.09848  0.90348  1.0000
  C   C288      1.0  0.59889  0.00931  0.76038  1.0000
  H   H493      1.0  0.56320  0.45173  0.79523  1.0000
  H   H494      1.0  0.59151  0.44785  0.75550  1.0000
  C   C289      1.0  0.43698  0.99442  0.75890  1.0000
  S   S88       1.0  0.65901  0.47929  0.66881  1.0000
  H   H495      1.0  0.56888  0.06695  0.92877  1.0000
  S   S89       1.0  0.65593  0.11174  0.72411  1.0000
  C   C290      1.0  0.36918  0.07841  0.55972  1.0000
  H   H496      1.0  0.34818  0.15641  0.49741  1.0000
  H   H497      1.0  0.64268  0.20007  0.70200  1.0000
  C   C291      1.0  0.64703  0.28642  0.68205  1.0000
  C   C292      1.0  0.34128  0.08750  0.50282  1.0000
  H   H498      1.0  0.54199  0.02511  0.83637  1.0000
  H   H499      1.0  0.52671  0.48763  0.98743  1.0000
  H   H500      1.0  0.38019  0.43579  0.59250  1.0000
  H   H501      1.0  0.37248  0.06167  0.53641  1.0000
  S   S90       1.0  0.63843  0.32759  0.69742  1.0000
  H   H502      1.0  0.59890  0.06229  0.62375  1.0000
  C   C293      1.0  0.32707  0.10464  0.56117  1.0000
  H   H503      1.0  0.56296  0.47397  0.96360  1.0000
  C   C294      1.0  0.59224  0.06988  0.86453  1.0000
  H   H504      1.0  0.57496  0.04376  0.67140  1.0000
  H   H505      1.0  0.53022  0.41470  0.92271  1.0000
  N   N23       1.0  0.39065  0.15817  0.73696  1.0000
  C   C295      1.0  0.40488  0.12839  0.73194  1.0000
  C   C296      1.0  0.37980  0.16218  0.70251  1.0000
  C   C297      1.0  0.37717  0.14799  0.76617  1.0000
  C   C298      1.0  0.40121  0.19031  0.74698  1.0000
  C   C299      1.0  0.41626  0.11675  0.76522  1.0000
  C   C300      1.0  0.39201  0.16911  0.66925  1.0000
  C   C301      1.0  0.36085  0.17394  0.77517  1.0000
  C   C302      1.0  0.39115  0.22586  0.73913  1.0000
  H   H506      1.0  0.39776  0.10505  0.72143  1.0000
  H   H507      1.0  0.41573  0.13492  0.71164  1.0000
  H   H508      1.0  0.36879  0.18318  0.70365  1.0000
  H   H509      1.0  0.37164  0.13842  0.69709  1.0000
  H   H510      1.0  0.37061  0.12288  0.75966  1.0000
  H   H511      1.0  0.38484  0.14365  0.79170  1.0000
  H   H512      1.0  0.40495  0.18967  0.77578  1.0000
  H   H513      1.0  0.41503  0.19077  0.73250  1.0000
  H   H514      1.0  0.42323  0.13864  0.77849  1.0000
  H   H515      1.0  0.40723  0.10285  0.78448  1.0000
  H   H516      1.0  0.42761  0.09771  0.75707  1.0000
  H   H517      1.0  0.38261  0.17821  0.64719  1.0000
  H   H518      1.0  0.40257  0.18938  0.67381  1.0000
  H   H519      1.0  0.39934  0.14488  0.65996  1.0000
  H   H520      1.0  0.35174  0.18041  0.75199  1.0000
  H   H521      1.0  0.36623  0.19776  0.78768  1.0000
  H   H522      1.0  0.35145  0.16178  0.79513  1.0000
  H   H523      1.0  0.39473  0.24437  0.76059  1.0000
  H   H524      1.0  0.37547  0.22582  0.73778  1.0000
  H   H525      1.0  0.39677  0.23738  0.71428  1.0000
  C   C303      1.0  0.49574  0.00428  0.97483  1.0000
  Fe  Fe45      1.0  0.33494  0.43366  0.63505  1.0000
  H   H526      1.0  0.53705  0.08570  0.82041  1.0000
  C   C304      1.0  0.55712  0.46205  0.89506  1.0000
  C   C305      1.0  0.64764  0.22301  0.68864  1.0000
  H   H527      1.0  0.57422  0.41737  0.91563  1.0000
  H   H528      1.0  0.42229  0.45118  0.75415  1.0000
  Fe  Fe46      1.0  0.33602  0.11816  0.66600  1.0000
  C   C306      1.0  0.60952  0.01132  0.55538  1.0000
  H   H529      1.0  0.55487  0.43161  0.96063  1.0000
  C   C307      1.0  0.33171  0.00100  0.55347  1.0000
  H   H530      1.0  0.32930  0.07707  0.56924  1.0000
  H   H531      1.0  0.62558  0.02603  0.60141  1.0000
  C   C308      1.0  0.53982  0.04304  0.85929  1.0000
  H   H532      1.0  0.51508  0.07046  0.83697  1.0000
  C   C309      1.0  0.33026  0.21507  0.69358  1.0000
  H   H533      1.0  0.55953  0.03071  0.63527  1.0000
  N   N24       1.0  0.54156  0.46658  0.92242  1.0000
  C   C310      1.0  0.55624  0.07052  0.91116  1.0000
  H   H534      1.0  0.58327  0.04544  0.59123  1.0000
  H   H535      1.0  0.40132  0.43903  0.61808  1.0000
  C   C311      1.0  0.42849  0.00764  0.78992  1.0000
  H   H536      1.0  0.52904  0.09736  0.86485  1.0000
  H   H537      1.0  0.40578  0.48067  0.67653  1.0000
  C   C312      1.0  0.33748  0.21156  0.65910  1.0000
  H   H538      1.0  0.52784  0.43187  0.85821  1.0000
  C   C313      1.0  0.34220  0.24162  0.64008  1.0000
  S   S91       1.0  0.33934  0.00426  0.59850  1.0000
  H   H539      1.0  0.58128  0.01623  0.90105  1.0000
  C   C314      1.0  0.57151  0.04722  0.64294  1.0000
  H   H540      1.0  0.50504  0.42468  0.87729  1.0000
  S   S92       1.0  0.34120  0.17021  0.63904  1.0000
  H   H541      1.0  0.35983  0.06448  0.57819  1.0000
  C   C315      1.0  0.33987  0.27487  0.65546  1.0000
  C   C316      1.0  0.40887  0.01504  0.72508  1.0000
  H   H542      1.0  0.34129  0.06077  0.51402  1.0000
  S   S93       1.0  0.64669  0.42007  0.72529  1.0000
  C   C317      1.0  0.33656  0.47229  0.54181  1.0000
  C   C318      1.0  0.60798  0.00281  0.65786  1.0000
  C   C319      1.0  0.55921  0.01893  0.76554  1.0000
  H   H543      1.0  0.55200  0.47007  0.86823  1.0000
  H   H544      1.0  0.62208  0.00518  0.53834  1.0000
  H   H545      1.0  0.41855  0.48474  0.63632  1.0000
  C   C320      1.0  0.42703  0.99834  0.72652  1.0000
  H   H546      1.0  0.56902  0.47956  0.90080  1.0000
  C   C321      1.0  0.38009  0.48126  0.62676  1.0000
  N   N25       1.0  0.34094  0.11410  0.53232  1.0000
  S   S94       1.0  0.33264  0.47592  0.67632  1.0000
  C   C322      1.0  0.61515  0.00579  0.59475  1.0000
  Fe  Fe47      1.0  0.33322  0.04194  0.64486  1.0000
  C   C323      1.0  0.56743  0.01324  0.88733  1.0000
  H   H547      1.0  0.52751  0.08650  0.92933  1.0000
  H   H548      1.0  0.34778  0.23921  0.61335  1.0000
  H   H549      1.0  0.40146  0.01765  0.69998  1.0000
  H   H550      1.0  0.59808  0.99404  0.54679  1.0000
  H   H551      1.0  0.54218  0.06781  0.96290  1.0000
  C   C324      1.0  0.32811  0.24823  0.70908  1.0000
  C   C325      1.0  0.33704  0.14991  0.51725  1.0000
  H   H552      1.0  0.37577  0.46717  0.65123  1.0000
  H   H553      1.0  0.60545  0.03883  0.54982  1.0000
  S   S95       1.0  0.65628  0.03010  0.69962  1.0000
  H   H554      1.0  0.59728  0.00399  0.67937  1.0000
  H   H555      1.0  0.57070  0.99845  0.86252  1.0000
  H   H556      1.0  0.33224  0.20436  0.53082  1.0000
  H   H557      1.0  0.43589  0.00493  0.81503  1.0000
  H   H558      1.0  0.39739  0.46672  0.57950  1.0000
  C   C326      1.0  0.51460  0.99527  0.98340  1.0000
  C   C327      1.0  0.40104  0.88848  0.36870  1.0000
  Fe  Fe48      1.0  0.65106  0.87843  0.36334  1.0000
  H   H559      1.0  0.63733  0.75601  0.40885  1.0000
  S   S96       1.0  0.34506  0.91007  0.30462  1.0000
  C   C328      1.0  0.45458  0.54131  0.10417  1.0000
  Fe  Fe49      1.0  0.35740  0.95602  0.33249  1.0000
  C   C329      1.0  0.40266  0.98980  0.28921  1.0000
  S   S97       1.0  0.35407  0.93165  0.38682  1.0000
  C   C330      1.0  0.32923  0.72650  0.34283  1.0000
  C   C331      1.0  0.47318  0.92249  0.00511  1.0000
  H   H560      1.0  0.50487  0.52265  0.07919  1.0000
  C   C332      1.0  0.48389  0.93204  0.03938  1.0000
  C   C333      1.0  0.40271  0.52471  0.28702  1.0000
  Fe  Fe50      1.0  0.35713  0.56590  0.32783  1.0000
  C   C334      1.0  0.38808  0.55471  0.42305  1.0000
  S   S98       1.0  0.35337  0.60381  0.37339  1.0000
  C   C335      1.0  0.45171  0.50196  0.10834  1.0000
  H   H561      1.0  0.44893  0.51225  0.25882  1.0000
  C   C336      1.0  0.34153  0.79286  0.36436  1.0000
  H   H562      1.0  0.63923  0.69802  0.37993  1.0000
  C   C337      1.0  0.42748  0.50979  0.15409  1.0000
  H   H563      1.0  0.37718  0.52856  0.37716  1.0000
  C   C338      1.0  0.65702  0.49660  0.47179  1.0000
  Fe  Fe51      1.0  0.63999  0.54781  0.31651  1.0000
  H   H564      1.0  0.37704  0.50536  0.47572  1.0000
  S   S99       1.0  0.62902  0.58897  0.35417  1.0000
  C   C339      1.0  0.64054  0.75414  0.38076  1.0000
  Fe  Fe52      1.0  0.65299  0.57031  0.39040  1.0000
  S   S100      1.0  0.64914  0.56525  0.45084  1.0000
  C   C340      1.0  0.48906  0.84716  0.02896  1.0000
  C   C341      1.0  0.64357  0.78465  0.36114  1.0000
  Fe  Fe53      1.0  0.64125  0.94186  0.31665  1.0000
  S   S101      1.0  0.62086  0.96079  0.27226  1.0000
  S   S102      1.0  0.63299  0.92725  0.37234  1.0000
  H   H565      1.0  0.47991  0.85140  0.05275  1.0000
  H   H566      1.0  0.42787  0.55522  0.29023  1.0000
  H   H567      1.0  0.60862  0.63898  0.30225  1.0000
  H   H568      1.0  0.40185  0.55143  0.43674  1.0000
  H   H569      1.0  0.35494  0.90296  0.48044  1.0000
  S   S103      1.0  0.64507  0.67767  0.30532  1.0000
  H   H570      1.0  0.63569  0.59093  0.17747  1.0000
  H   H571      1.0  0.40576  0.51920  0.19439  1.0000
  H   H572      1.0  0.59370  0.98466  0.32766  1.0000
  S   S104      1.0  0.38678  0.98042  0.32493  1.0000
  C   C342      1.0  0.63211  0.56986  0.19620  1.0000
  C   C343      1.0  0.58300  0.52558  0.29013  1.0000
  S   S105      1.0  0.33634  0.52786  0.35023  1.0000
  C   C344      1.0  0.39557  0.49321  0.27521  1.0000
  H   H573      1.0  0.34811  0.96900  0.47361  1.0000
  H   H574      1.0  0.58669  0.54598  0.30838  1.0000
  H   H575      1.0  0.48688  0.90963  0.05700  1.0000
  C   C345      1.0  0.64530  0.71832  0.32793  1.0000
  C   C346      1.0  0.56968  0.57352  0.19757  1.0000
  H   H576      1.0  0.57142  0.58202  0.16969  1.0000
  C   C347      1.0  0.64819  0.74887  0.30824  1.0000
  H   H577      1.0  0.43456  0.51353  0.36420  1.0000
  H   H578      1.0  0.38986  0.57528  0.40266  1.0000
  C   C348      1.0  0.41701  0.50165  0.09230  1.0000
  C   C349      1.0  0.64164  0.72116  0.36442  1.0000
  H   H579      1.0  0.41036  0.89580  0.39116  1.0000
  C   C350      1.0  0.34920  0.76229  0.37993  1.0000
  C   C351      1.0  0.43414  0.50668  0.26334  1.0000
  C   C352      1.0  0.59734  0.50404  0.27560  1.0000
  C   C353      1.0  0.42325  0.51796  0.38450  1.0000
  H   H580      1.0  0.34909  0.70601  0.38152  1.0000
  C   C354      1.0  0.42210  0.53109  0.28110  1.0000
  H   H581      1.0  0.47489  0.95082  0.05482  1.0000
  H   H582      1.0  0.57421  0.54577  0.20030  1.0000
  Fe  Fe54      1.0  0.32945  0.62941  0.34249  1.0000
  H   H583      1.0  0.60830  0.54648  0.22185  1.0000
  H   H584      1.0  0.45624  0.55389  0.13048  1.0000
  C   C355      1.0  0.56376  0.52095  0.28079  1.0000
  C   C356      1.0  0.49996  0.51674  0.05268  1.0000
  C   C357      1.0  0.50072  0.54201  0.02544  1.0000
  Fe  Fe55      1.0  0.33179  0.56670  0.39464  1.0000
  H   H585      1.0  0.50624  0.56727  0.03136  1.0000
  H   H586      1.0  0.60364  0.66377  0.26338  1.0000
  H   H587      1.0  0.38990  0.87189  0.38010  1.0000
  H   H588      1.0  0.49720  0.94562  0.03350  1.0000
  H   H589      1.0  0.55282  0.53795  0.29200  1.0000
  H   H590      1.0  0.55421  0.57478  0.20370  1.0000
  H   H591      1.0  0.60319  0.54652  0.41139  1.0000
  H   H592      1.0  0.60015  0.60450  0.14383  1.0000
  H   H593      1.0  0.63689  0.54498  0.18374  1.0000
  H   H594      1.0  0.57241  0.62191  0.22542  1.0000
  S   S106      1.0  0.33472  0.59443  0.29545  1.0000
  H   H595      1.0  0.61186  0.51208  0.43882  1.0000
  H   H596      1.0  0.38380  0.97650  0.24668  1.0000
  S   S107      1.0  0.62200  0.50896  0.28558  1.0000
  H   H597      1.0  0.41248  0.52935  0.09615  1.0000
  C   C358      1.0  0.32767  0.79011  0.33797  1.0000
  H   H598      1.0  0.43042  0.51771  0.41067  1.0000
  H   H599      1.0  0.39600  0.50724  0.15251  1.0000
  Fe  Fe56      1.0  0.33989  0.88760  0.35893  1.0000
  N   N26       1.0  0.58994  0.86840  0.29961  1.0000
  C   C359      1.0  0.58261  0.88740  0.26689  1.0000
  C   C360      1.0  0.61115  0.86350  0.29507  1.0000
  C   C361      1.0  0.58607  0.89148  0.33134  1.0000
  C   C362      1.0  0.57985  0.83446  0.30300  1.0000
  C   C363      1.0  0.56164  0.90038  0.26784  1.0000
  C   C364      1.0  0.61763  0.84350  0.26146  1.0000
  C   C365      1.0  0.59180  0.87673  0.36798  1.0000
  C   C366      1.0  0.59017  0.80499  0.32434  1.0000
  H   H600      1.0  0.59132  0.91041  0.26113  1.0000
  H   H601      1.0  0.58399  0.87070  0.24287  1.0000
  H   H602      1.0  0.61801  0.85036  0.31811  1.0000
  H   H603      1.0  0.61788  0.88924  0.29395  1.0000
  H   H604      1.0  0.59326  0.91670  0.32787  1.0000
  H   H605      1.0  0.57065  0.89801  0.33396  1.0000
  H   H606      1.0  0.56551  0.83890  0.31502  1.0000
  H   H607      1.0  0.57731  0.82343  0.27609  1.0000
  H   H608      1.0  0.55987  0.92400  0.28457  1.0000
  H   H609      1.0  0.55720  0.90835  0.24057  1.0000
  H   H610      1.0  0.55192  0.88007  0.27696  1.0000
  H   H611      1.0  0.61576  0.85975  0.23723  1.0000
  H   H612      1.0  0.63309  0.83713  0.26348  1.0000
  H   H613      1.0  0.61019  0.81878  0.25817  1.0000
  H   H614      1.0  0.58957  0.89735  0.38831  1.0000
  H   H615      1.0  0.60698  0.86865  0.36944  1.0000
  H   H616      1.0  0.58272  0.85494  0.37583  1.0000
  H   H617      1.0  0.57940  0.78977  0.33872  1.0000
  H   H618      1.0  0.60039  0.81339  0.34466  1.0000
  H   H619      1.0  0.59747  0.78621  0.30617  1.0000
  N   N27       1.0  0.40337  0.86165  0.30546  1.0000
  C   C367      1.0  0.41312  0.86895  0.34041  1.0000
  C   C368      1.0  0.41668  0.83815  0.28443  1.0000
  C   C369      1.0  0.38536  0.84294  0.31387  1.0000
  C   C370      1.0  0.39902  0.89586  0.28713  1.0000
  C   C371      1.0  0.43600  0.85368  0.27470  1.0000
  C   C372      1.0  0.37385  0.82911  0.28235  1.0000
  C   C373      1.0  0.39468  0.89504  0.24674  1.0000
  H   H620      1.0  0.41840  0.84432  0.35312  1.0000
  H   H621      1.0  0.42587  0.88491  0.33618  1.0000
  H   H622      1.0  0.41034  0.82947  0.25921  1.0000
  H   H623      1.0  0.41966  0.81355  0.29938  1.0000
  H   H624      1.0  0.38844  0.82047  0.33194  1.0000
  H   H625      1.0  0.37526  0.86038  0.32847  1.0000
  H   H626      1.0  0.38676  0.90945  0.30019  1.0000
  H   H627      1.0  0.41103  0.91383  0.29062  1.0000
  H   H628      1.0  0.39448  0.91284  0.35819  1.0000
  H   H629      1.0  0.44364  0.83590  0.25597  1.0000
  H   H630      1.0  0.43433  0.87921  0.26124  1.0000
  H   H631      1.0  0.44526  0.85613  0.29838  1.0000
  H   H632      1.0  0.36140  0.81543  0.29320  1.0000
  H   H633      1.0  0.38191  0.80975  0.26618  1.0000
  H   H634      1.0  0.36787  0.85041  0.26560  1.0000
  H   H635      1.0  0.38095  0.90918  0.24156  1.0000
  H   H636      1.0  0.39349  0.86912  0.23477  1.0000
  H   H637      1.0  0.40567  0.90926  0.23181  1.0000
  H   H638      1.0  0.36603  0.51763  0.41722  1.0000
  N   N28       1.0  0.60130  0.60132  0.21832  1.0000
  C   C374      1.0  0.61040  0.60809  0.25397  1.0000
  C   C375      1.0  0.61056  0.56861  0.20348  1.0000
  C   C376      1.0  0.58025  0.59640  0.22434  1.0000
  C   C377      1.0  0.60445  0.63241  0.19491  1.0000
  H   H639      1.0  0.40293  0.49312  0.35305  1.0000
  H   H640      1.0  0.58609  0.63484  0.28155  1.0000
  H   H641      1.0  0.35071  0.86834  0.45044  1.0000
  H   H642      1.0  0.49263  0.81894  0.02705  1.0000
  H   H643      1.0  0.62515  0.52556  0.40028  1.0000
  H   H644      1.0  0.62564  0.61449  0.25086  1.0000
  H   H645      1.0  0.60399  0.56050  0.17818  1.0000
  S   S108      1.0  0.65775  0.89150  0.30675  1.0000
  H   H646      1.0  0.57772  0.58417  0.25068  1.0000
  H   H647      1.0  0.61023  0.58435  0.27097  1.0000
  H   H648      1.0  0.59700  0.65579  0.20608  1.0000
  H   H649      1.0  0.61963  0.63995  0.19482  1.0000
  H   H650      1.0  0.64040  0.57206  0.22107  1.0000
  C   C378      1.0  0.38031  0.52174  0.40528  1.0000
  C   C379      1.0  0.64762  0.78177  0.32480  1.0000
  H   H651      1.0  0.40705  0.98913  0.19877  1.0000
  C   C380      1.0  0.60140  0.63817  0.27601  1.0000
  C   C381      1.0  0.34310  0.72929  0.36927  1.0000
  H   H652      1.0  0.35994  0.76408  0.40038  1.0000
  H   H653      1.0  0.41691  0.54397  0.37846  1.0000
  C   C382      1.0  0.59976  0.49609  0.38680  1.0000
  H   H654      1.0  0.60004  0.50812  0.35980  1.0000
  C   C383      1.0  0.61077  0.52083  0.41092  1.0000
  H   H655      1.0  0.46795  0.54553  0.08927  1.0000
  H   H656      1.0  0.58211  0.63740  0.15420  1.0000
  S   S109      1.0  0.38849  0.55624  0.31078  1.0000
  H   H657      1.0  0.65104  0.74705  0.28002  1.0000
  C   C384      1.0  0.49462  0.53486  0.99058  1.0000
  C   C385      1.0  0.39779  0.98538  0.25345  1.0000
  H   H658      1.0  0.50278  0.85968  0.03328  1.0000
  S   S110      1.0  0.32907  0.98505  0.33629  1.0000
  C   C386      1.0  0.59748  0.63017  0.15615  1.0000
  H   H659      1.0  0.60566  0.64837  0.13949  1.0000
  S   S111      1.0  0.64100  0.82567  0.38276  1.0000
  Fe  Fe57      1.0  0.65073  0.62355  0.32908  1.0000
  S   S112      1.0  0.33273  0.55869  0.45555  1.0000
  H   H660      1.0  0.37759  0.56516  0.44272  1.0000
  H   H661      1.0  0.43866  0.50360  0.17441  1.0000
  H   H662      1.0  0.42737  0.53847  0.15072  1.0000
  S   S113      1.0  0.34979  0.83376  0.37865  1.0000
  C   C387      1.0  0.40802  0.50200  0.17096  1.0000
  C   C388      1.0  0.65195  0.53051  0.48206  1.0000
  H   H663      1.0  0.65017  0.80488  0.30942  1.0000
  H   H664      1.0  0.44286  0.55444  0.08922  1.0000
  H   H665      1.0  0.51073  0.90367  0.00192  1.0000
  H   H666      1.0  0.41115  0.50086  0.45168  1.0000
  C   C389      1.0  0.47850  0.85904  0.99485  1.0000
  C   C390      1.0  0.34536  0.88116  0.47504  1.0000
  H   H667      1.0  0.46312  0.85621  0.00059  1.0000
  H   H668      1.0  0.59664  0.98041  0.21370  1.0000
  H   H669      1.0  0.32750  0.82862  0.44768  1.0000
  C   C391      1.0  0.55849  0.49469  0.25695  1.0000
  C   C392      1.0  0.58730  0.98924  0.30186  1.0000
  C   C393      1.0  0.59756  0.98062  0.27104  1.0000
  H   H670      1.0  0.58466  0.49769  0.39572  1.0000
  H   H671      1.0  0.42705  0.52397  0.04190  1.0000
  C   C394      1.0  0.33384  0.52452  0.48790  1.0000
  H   H672      1.0  0.45870  0.91486  0.01350  1.0000
  C   C395      1.0  0.58891  0.98700  0.23777  1.0000
  C   C396      1.0  0.42262  0.49851  0.05253  1.0000
  H   H673      1.0  0.47110  0.94738  0.99023  1.0000
  Fe  Fe58      1.0  0.46949  0.56694  0.82693  1.0000
  S   S114      1.0  0.48747  0.52741  0.85747  1.0000
  C   C397      1.0  0.65778  0.55809  0.80846  1.0000
  Fe  Fe59      1.0  0.49906  0.62426  0.83617  1.0000
  S   S115      1.0  0.51923  0.58850  0.86648  1.0000
  S   S116      1.0  0.50582  0.67972  0.81732  1.0000
  Fe  Fe60      1.0  0.51262  0.54742  0.82625  1.0000
  H   H674      1.0  0.48146  0.83915  0.97387  1.0000
  Fe  Fe61      1.0  0.49347  0.57017  0.89624  1.0000
  S   S117      1.0  0.49659  0.56766  0.95724  1.0000
  S   S118      1.0  0.49417  0.58410  0.79333  1.0000
  S   S119      1.0  0.47375  0.60879  0.86831  1.0000
  Fe  Fe62      1.0  0.52325  0.95188  0.82120  1.0000
  S   S120      1.0  0.50336  0.91614  0.79263  1.0000
  S   S121      1.0  0.55477  0.95869  0.80634  1.0000
  Fe  Fe63      1.0  0.49444  0.96689  0.88110  1.0000
  S   S122      1.0  0.47251  0.93303  0.85592  1.0000
  H   H675      1.0  0.34660  0.86277  0.49763  1.0000
  Fe  Fe64      1.0  0.49650  0.89375  0.84656  1.0000
  S   S123      1.0  0.49091  0.83815  0.86700  1.0000
  Fe  Fe65      1.0  0.48053  0.95755  0.80404  1.0000
  H   H676      1.0  0.38322  0.56413  0.56211  1.0000
  S   S124      1.0  0.51788  0.92671  0.87473  1.0000
  H   H677      1.0  0.47660  0.71108  0.77333  1.0000
  H   H678      1.0  0.62329  0.98059  0.59548  1.0000
  S   S125      1.0  0.60859  0.49952  0.70777  1.0000
  H   H679      1.0  0.47714  0.92340  0.93216  1.0000
  H   H680      1.0  0.46834  0.77298  0.76956  1.0000
  H   H681      1.0  0.53912  0.55754  0.92980  1.0000
  H   H682      1.0  0.47803  0.87772  0.92685  1.0000
  C   C398      1.0  0.58795  0.50004  0.73573  1.0000
  C   C399      1.0  0.37987  0.53403  0.66325  1.0000
  H   H683      1.0  0.50506  0.92693  0.96298  1.0000
  C   C400      1.0  0.34403  0.98516  0.52836  1.0000
  H   H684      1.0  0.59463  0.96253  0.79085  1.0000
  H   H685      1.0  0.52360  0.98262  0.96379  1.0000
  C   C401      1.0  0.42182  0.52718  0.67192  1.0000
  C   C402      1.0  0.55554  0.50468  0.78149  1.0000
  N   N29       1.0  0.48219  0.89506  0.98127  1.0000
  C   C403      1.0  0.50204  0.72348  0.83250  1.0000
  C   C404      1.0  0.50814  0.75101  0.81093  1.0000
  C   C405      1.0  0.50497  0.78610  0.82094  1.0000
  C   C406      1.0  0.49561  0.79432  0.85284  1.0000
  C   C407      1.0  0.48953  0.76677  0.87447  1.0000
  C   C408      1.0  0.49271  0.73167  0.86445  1.0000
  H   H686      1.0  0.51538  0.74517  0.78616  1.0000
  H   H687      1.0  0.50976  0.80679  0.80395  1.0000
  H   H688      1.0  0.48229  0.77263  0.89921  1.0000
  H   H689      1.0  0.48796  0.71099  0.88149  1.0000
  H   H690      1.0  0.36377  0.57222  0.63076  1.0000
  H   H691      1.0  0.51437  0.84787  0.96785  1.0000
  H   H692      1.0  0.65432  0.55120  0.83647  1.0000
  H   H693      1.0  0.63743  0.59891  0.78590  1.0000
  H   H694      1.0  0.32677  0.86805  0.54963  1.0000
  H   H695      1.0  0.46861  0.62278  0.73269  1.0000
  C   C409      1.0  0.40470  0.54456  0.77643  1.0000
  C   C410      1.0  0.33261  0.53310  0.52429  1.0000
  H   H696      1.0  0.46388  0.75683  0.81274  1.0000
  C   C411      1.0  0.57661  0.53074  0.73793  1.0000
  C   C412      1.0  0.56057  0.53311  0.76063  1.0000
  H   H697      1.0  0.59444  0.95389  0.60339  1.0000
  H   H698      1.0  0.58024  0.55294  0.72190  1.0000
  H   H699      1.0  0.55203  0.55689  0.76178  1.0000
  C   C413      1.0  0.65207  0.51122  0.54446  1.0000
  C   C414      1.0  0.64937  0.53751  0.51853  1.0000
  H   H700      1.0  0.38817  0.55600  0.67342  1.0000
  C   C415      1.0  0.50311  0.90144  0.97633  1.0000
  H   H701      1.0  0.65019  0.51718  0.57238  1.0000
  H   H702      1.0  0.35802  0.97601  0.53669  1.0000
  S   S126      1.0  0.43895  0.56586  0.80397  1.0000
  H   H703      1.0  0.61336  0.94585  0.65561  1.0000
  H   H704      1.0  0.63888  0.56418  0.74138  1.0000
  H   H705      1.0  0.62730  0.49602  0.77753  1.0000
  C   C416      1.0  0.38205  0.53803  0.57442  1.0000
  C   C417      1.0  0.58775  0.98505  0.77867  1.0000
  C   C418      1.0  0.42369  0.53462  0.78440  1.0000
  H   H706      1.0  0.54172  0.98418  0.90140  1.0000
  C   C419      1.0  0.39205  0.52105  0.76084  1.0000
  C   C420      1.0  0.47302  0.89872  0.94505  1.0000
  C   C421      1.0  0.40918  0.49949  0.65513  1.0000
  C   C422      1.0  0.36111  0.55098  0.64992  1.0000
  H   H707      1.0  0.44638  0.90004  0.91585  1.0000
  H   H708      1.0  0.33055  0.56002  0.53186  1.0000
  C   C423      1.0  0.39678  0.53423  0.60494  1.0000
  H   H709      1.0  0.61706  0.56452  0.81669  1.0000
  S   S127      1.0  0.46000  0.97346  0.75882  1.0000
  H   H710      1.0  0.52942  0.88140  0.95271  1.0000
  H   H711      1.0  0.56022  0.53245  0.92024  1.0000
  N   N30       1.0  0.44882  0.69074  0.78456  1.0000
  C   C424      1.0  0.45787  0.65583  0.77532  1.0000
  C   C425      1.0  0.44820  0.69281  0.82465  1.0000
  C   C426      1.0  0.42929  0.69253  0.76804  1.0000
  C   C427      1.0  0.46302  0.64989  0.73581  1.0000
  C   C428      1.0  0.43465  0.66763  0.84315  1.0000
  C   C429      1.0  0.41612  0.72367  0.77825  1.0000
  H   H712      1.0  0.47123  0.65122  0.79072  1.0000
  H   H713      1.0  0.44849  0.63433  0.78279  1.0000
  H   H714      1.0  0.44395  0.71902  0.83427  1.0000
  H   H715      1.0  0.46271  0.68809  0.83590  1.0000
  H   H716      1.0  0.43038  0.69322  0.73854  1.0000
  H   H717      1.0  0.42144  0.66831  0.77334  1.0000
  H   H718      1.0  0.47450  0.66705  0.72690  1.0000
  H   H719      1.0  0.45051  0.65281  0.71808  1.0000
  H   H720      1.0  0.43590  0.67081  0.87242  1.0000
  H   H721      1.0  0.41958  0.67331  0.83605  1.0000
  H   H722      1.0  0.43823  0.64004  0.83739  1.0000
  H   H723      1.0  0.44441  0.76652  0.78246  1.0000
  H   H724      1.0  0.41701  0.74476  0.75817  1.0000
  H   H725      1.0  0.41886  0.73445  0.80489  1.0000
  H   H726      1.0  0.40117  0.71513  0.77918  1.0000
  H   H727      1.0  0.57965  0.93887  0.65497  1.0000
  H   H728      1.0  0.61223  0.55693  0.76966  1.0000
  H   H729      1.0  0.51955  0.50617  0.93296  1.0000
  C   C430      1.0  0.61503  0.54466  0.79588  1.0000
  H   H730      1.0  0.40051  0.56083  0.61355  1.0000
  H   H731      1.0  0.56368  0.96378  0.91351  1.0000
  H   H732      1.0  0.37644  0.51794  0.68695  1.0000
  H   H733      1.0  0.43565  0.51473  0.67974  1.0000
  H   H734      1.0  0.55938  0.95648  0.63298  1.0000
  N   N31       1.0  0.65077  0.53069  0.78340  1.0000
  C   C431      1.0  0.53360  0.50330  0.91958  1.0000
  H   H735      1.0  0.39966  0.57059  0.78277  1.0000
  H   H736      1.0  0.42488  0.54858  0.65324  1.0000
  C   C432      1.0  0.46132  0.71848  0.76950  1.0000
  H   H737      1.0  0.44448  0.92102  0.95785  1.0000
  S   S128      1.0  0.53539  0.50584  0.81067  1.0000
  H   H738      1.0  0.35132  0.53214  0.63828  1.0000
  C   C433      1.0  0.45900  0.75551  0.78476  1.0000
  N   N32       1.0  0.39125  0.51267  0.63671  1.0000
  H   H739      1.0  0.45933  0.72082  0.74020  1.0000
  H   H740      1.0  0.41550  0.53774  0.69684  1.0000
  C   C434      1.0  0.45108  0.89828  0.94405  1.0000
  H   H741      1.0  0.60185  0.53109  0.80315  1.0000
  C   C435      1.0  0.57346  0.96340  0.64381  1.0000
  C   C436      1.0  0.33375  0.50723  0.55103  1.0000
  H   H742      1.0  0.37749  0.52914  0.75543  1.0000
  C   C437      1.0  0.62037  0.96972  0.66435  1.0000
  H   H743      1.0  0.44546  0.87385  0.95483  1.0000
  H   H744      1.0  0.63440  0.97148  0.65105  1.0000
  C   C438      1.0  0.48750  0.50204  0.98341  1.0000
  H   H745      1.0  0.64536  0.56356  0.52688  1.0000
  H   H746      1.0  0.40987  0.52278  0.59239  1.0000
  C   C439      1.0  0.54636  0.53189  0.93418  1.0000
  C   C440      1.0  0.56785  0.98962  0.78146  1.0000
  H   H747      1.0  0.38532  0.51927  0.55274  1.0000
  H   H748      1.0  0.35350  0.56300  0.67293  1.0000
  C   C441      1.0  0.63166  0.51782  0.79495  1.0000
  H   H749      1.0  0.50907  0.87135  0.92722  1.0000
  C   C442      1.0  0.42988  0.50073  0.77609  1.0000
  H   H750      1.0  0.57055  0.98187  0.66569  1.0000
  C   C443      1.0  0.51437  0.87368  0.95478  1.0000
  C   C444      1.0  0.58596  0.97690  0.61300  1.0000
  H   H751      1.0  0.33250  0.51435  0.57876  1.0000
  H   H752      1.0  0.64434  0.52172  0.72811  1.0000
  C   C445      1.0  0.55607  0.98940  0.91179  1.0000
  H   H753      1.0  0.36705  0.53581  0.58238  1.0000
  H   H754      1.0  0.62325  0.96716  0.69333  1.0000
  H   H755      1.0  0.54856  0.52956  0.96329  1.0000
  H   H756      1.0  0.48262  0.49611  0.95687  1.0000
  H   H757      1.0  0.53056  0.51026  0.89134  1.0000
  H   H758      1.0  0.44439  0.49254  0.78187  1.0000
  C   C446      1.0  0.33843  0.98107  0.49256  1.0000
  H   H759      1.0  0.43340  0.98822  0.70234  1.0000
  H   H760      1.0  0.57628  0.98447  0.59069  1.0000
  H   H761      1.0  0.64726  0.60834  0.82810  1.0000
  C   C447      1.0  0.64955  0.54288  0.74527  1.0000
  C   C448      1.0  0.65048  0.59593  0.80204  1.0000
  H   H762      1.0  0.63234  0.50709  0.82238  1.0000
  H   H763      1.0  0.91403  0.30113  0.30283  1.0000
  Fe  Fe66      1.0  0.96526  0.05425  0.32773  1.0000
  C   C449      1.0  0.94631  0.37110  0.30069  1.0000
  S   S129      1.0  0.93408  0.04642  0.31120  1.0000
  H   H764      1.0  0.94297  0.29030  0.26184  1.0000
  H   H765      1.0  0.92201  0.33461  0.23024  1.0000
  H   H766      1.0  0.91146  0.34726  0.27045  1.0000
  S   S130      1.0  0.97101  0.09483  0.36985  1.0000
  H   H767      1.0  0.93093  0.31075  0.33809  1.0000
  S   S131      1.0  0.96904  0.42537  0.36097  1.0000
  C   C450      1.0  0.93009  0.37866  0.32774  1.0000
  H   H768      1.0  0.86365  0.49029  0.01689  1.0000
  C   C451      1.0  0.91866  0.48036  0.29288  1.0000
  Fe  Fe67      1.0  0.97613  0.45140  0.30949  1.0000
  H   H769      1.0  0.92008  0.02961  0.21230  1.0000
  H   H770      1.0  0.90601  0.39239  0.22688  1.0000
  H   H771      1.0  0.98226  0.34300  0.28021  1.0000
  H   H772      1.0  0.89305  0.02617  0.06495  1.0000
  H   H773      1.0  0.85785  0.05081  0.18761  1.0000
  C   C452      1.0  0.66210  0.99541  0.48053  1.0000
  C   C453      1.0  0.94375  0.30868  0.28464  1.0000
  C   C454      1.0  0.92371  0.35265  0.25310  1.0000
  H   H774      1.0  0.85369  0.33160  0.01307  1.0000
  H   H775      1.0  0.95028  0.39669  0.28949  1.0000
  C   C455      1.0  0.92126  0.01312  0.28940  1.0000
  H   H776      1.0  0.91635  0.02627  0.10707  1.0000
  H   H777      1.0  0.66012  0.05135  0.48166  1.0000
  H   H778      1.0  0.89448  0.04135  0.29406  1.0000
  H   H779      1.0  0.76821  0.07885  0.10482  1.0000
  C   C456      1.0  0.95930  0.36775  0.44606  1.0000
  H   H780      1.0  0.77877  0.05007  0.07203  1.0000
  H   H781      1.0  0.91669  0.36535  0.32278  1.0000
  H   H782      1.0  0.98854  0.36202  0.43042  1.0000
  C   C457      1.0  0.98012  0.37905  0.44843  1.0000
  C   C458      1.0  0.92708  0.02223  0.18686  1.0000
  H   H783      1.0  0.88996  0.48813  0.31262  1.0000
  C   C459      1.0  0.83715  0.01983  0.02598  1.0000
  H   H784      1.0  0.93494  0.37129  0.35494  1.0000
  H   H785      1.0  0.84094  0.04253  0.04100  1.0000
  H   H786      1.0  0.94111  0.01034  0.19434  1.0000
  C   C460      1.0  0.92887  0.29769  0.31221  1.0000
  H   H787      1.0  0.75291  0.03720  0.13569  1.0000
  S   S132      1.0  0.98191  0.48092  0.43915  1.0000
  H   H788      1.0  0.73997  0.02811  0.41843  1.0000
  C   C461      1.0  0.95783  0.34962  0.24321  1.0000
  H   H789      1.0  0.79381  0.48579  0.00313  1.0000
  C   C462      1.0  0.98049  0.25778  0.36751  1.0000
  H   H790      1.0  0.69992  0.01951  0.46001  1.0000
  H   H791      1.0  0.93109  0.26948  0.31762  1.0000
  C   C463      1.0  0.92039  0.39000  0.23905  1.0000
  H   H792      1.0  0.87342  0.03387  0.09508  1.0000
  H   H793      1.0  0.95670  0.34399  0.46170  1.0000
  H   H794      1.0  0.95391  0.33633  0.21806  1.0000
  H   H795      1.0  0.80768  0.04695  0.15936  1.0000
  N   N33       1.0  0.94257  0.34567  0.27126  1.0000
  C   C464      1.0  0.84163  0.38368  0.00945  1.0000
  H   H796      1.0  0.92663  0.40699  0.32836  1.0000
  C   C465      1.0  0.88499  0.02505  0.17651  1.0000
  H   H797      1.0  0.97107  0.26358  0.38959  1.0000
  C   C466      1.0  0.97796  0.33559  0.25302  1.0000
  H   H798      1.0  0.79901  0.02225  0.10507  1.0000
  H   H799      1.0  0.95943  0.37744  0.23589  1.0000
  H   H800      1.0  0.95900  0.36247  0.31615  1.0000
  C   C467      1.0  0.86612  0.04209  0.16389  1.0000
  S   S133      1.0  0.98401  0.32906  0.36335  1.0000
  C   C468      1.0  0.84837  0.48927  0.01399  1.0000
  H   H801      1.0  0.79250  0.02099  0.18544  1.0000
  C   C469      1.0  0.88828  0.04037  0.08919  1.0000
  C   C470      1.0  0.71231  0.02858  0.35098  1.0000
  C   C471      1.0  0.98398  0.22272  0.35760  1.0000
  H   H802      1.0  0.90530  0.06016  0.13230  1.0000
  H   H803      1.0  0.94935  0.38898  0.45470  1.0000
  H   H804      1.0  0.86857  0.06557  0.14761  1.0000
  C   C472      1.0  0.71172  0.00083  0.46630  1.0000
  C   C473      1.0  0.89074  0.99290  0.26637  1.0000
  C   C474      1.0  0.84183  0.34504  0.99852  1.0000
  H   H805      1.0  0.95585  0.36213  0.41784  1.0000
  C   C475      1.0  0.93056  0.48056  0.26301  1.0000
  H   H806      1.0  0.95766  0.30307  0.29789  1.0000
  H   H807      1.0  0.75253  0.99440  0.25556  1.0000
  S   S134      1.0  0.98652  0.01492  0.35020  1.0000
  H   H808      1.0  0.93074  0.39695  0.21815  1.0000
  H   H809      1.0  0.72512  0.04467  0.35138  1.0000
  H   H810      1.0  0.69375  0.00228  0.38661  1.0000
  H   H811      1.0  0.98072  0.40513  0.43574  1.0000
  C   C476      1.0  0.98913  0.28526  0.34936  1.0000
  N   N34       1.0  0.89755  0.00851  0.14835  1.0000
  C   C477      1.0  0.76586  0.05574  0.08794  1.0000
  H   H812      1.0  0.92983  0.04573  0.17086  1.0000
  H   H813      1.0  0.97727  0.20205  0.37204  1.0000
  H   H814      1.0  0.70711  0.03575  0.40602  1.0000
  C   C478      1.0  0.90268  0.03445  0.12001  1.0000
  H   H815      1.0  0.72488  0.01496  0.47191  1.0000
  H   H816      1.0  0.83168  0.38791  0.03211  1.0000
  H   H817      1.0  0.78254  0.05591  0.15841  1.0000
  C   C479      1.0  0.79354  0.03483  0.15963  1.0000
  H   H818      1.0  0.92075  0.40933  0.26079  1.0000
  H   H819      1.0  0.75457  0.06388  0.06873  1.0000
  C   C480      1.0  0.70825  0.01309  0.38783  1.0000
  H   H820      1.0  0.92453  0.47347  0.31861  1.0000
  H   H821      1.0  0.85585  0.39115  0.01919  1.0000
  H   H822      1.0  0.97895  0.30686  0.25068  1.0000
  C   C481      1.0  0.80909  0.48654  0.00607  1.0000
  C   C482      1.0  0.90151  0.01797  0.28417  1.0000
  C   C483      1.0  0.79238  0.00942  0.12810  1.0000
  N   N35       1.0  0.98844  0.38005  0.48538  1.0000
  H   H823      1.0  0.93153  0.48970  0.20644  1.0000
  H   H824      1.0  0.82878  0.33332  0.00926  1.0000
  C   C484      1.0  0.92255  0.48972  0.22983  1.0000
  H   H825      1.0  0.88799  0.06828  0.08167  1.0000
  S   S135      1.0  0.66186  0.99406  0.43296  1.0000
  H   H826      1.0  0.85704  0.02393  0.14940  1.0000
  S   S136      1.0  0.95524  0.46827  0.26503  1.0000
  H   H827      1.0  0.89236  0.04605  0.19066  1.0000
  H   H828      1.0  0.98850  0.34624  0.23420  1.0000
  S   S137      1.0  0.98631  0.07707  0.28987  1.0000
  H   H829      1.0  0.70020  0.04629  0.34354  1.0000
  C   C485      1.0  0.89903  0.48874  0.28938  1.0000
  H   H830      1.0  0.88142  0.00547  0.19707  1.0000
  C   C486      1.0  0.75863  0.02526  0.11075  1.0000
  H   H831      1.0  0.87559  0.99712  0.26280  1.0000
  H   H832      1.0  0.71329  0.00865  0.32988  1.0000
  C   C487      1.0  0.74156  0.00119  0.40786  1.0000
  H   H833      1.0  0.98034  0.29964  0.47254  1.0000
  N   N36       1.0  0.77283  0.99645  0.11974  1.0000
  H   H834      1.0  0.76418  0.02536  0.37782  1.0000
  H   H835      1.0  0.74611  0.01454  0.09684  1.0000
  H   H836      1.0  0.77038  0.00105  0.04115  1.0000
  H   H837      1.0  0.74837  0.00383  0.34914  1.0000
  C   C488      1.0  0.75524  0.00217  0.37553  1.0000
  H   H838      1.0  0.79511  0.99583  0.05490  1.0000
  H   H839      1.0  0.76450  0.99583  0.17546  1.0000
  H   H840      1.0  0.71203  0.47155  0.41310  1.0000
  H   H841      1.0  0.69858  0.47320  0.46985  1.0000
  C   C489      1.0  0.91560  0.99525  0.16622  1.0000
  H   H842      1.0  0.66402  0.44436  0.48952  1.0000
  Fe  Fe68      1.0  0.99205  0.38518  0.34835  1.0000
  Fe  Fe69      1.0  0.99195  0.45719  0.38590  1.0000
  H   H843      1.0  0.88112  0.34922  0.99037  1.0000
  H   H844      1.0  0.73294  0.49080  0.45578  1.0000
  C   C490      1.0  0.70827  0.48468  0.48949  1.0000
  H   H845      1.0  0.69899  0.49083  0.37727  1.0000
  Fe  Fe70      1.0  0.82188  0.43744  0.88589  1.0000
  C   C491      1.0  0.91247  0.01909  0.66690  1.0000
  H   H846      1.0  0.91266  0.03574  0.69101  1.0000
  Fe  Fe71      1.0  0.83855  0.37607  0.84352  1.0000
  S   S138      1.0  0.83939  0.40699  0.79260  1.0000
  S   S139      1.0  0.85202  0.32142  0.84662  1.0000
  Fe  Fe72      1.0  0.85051  0.45097  0.82535  1.0000
  Fe  Fe73      1.0  0.66200  0.12456  0.66690  1.0000
  Fe  Fe74      1.0  0.80964  0.42589  0.80803  1.0000
  S   S140      1.0  0.78745  0.42592  0.76277  1.0000
  S   S141      1.0  0.85178  0.41865  0.87548  1.0000
  S   S142      1.0  0.80854  0.39247  0.85726  1.0000
  Fe  Fe75      1.0  0.85517  0.06444  0.82338  1.0000
  S   S143      1.0  0.85152  0.07888  0.88147  1.0000
  S   S144      1.0  0.88566  0.05874  0.80121  1.0000
  Fe  Fe76      1.0  0.81155  0.06768  0.81019  1.0000
  S   S145      1.0  0.80528  0.08033  0.86734  1.0000
  S   S146      1.0  0.79009  0.07015  0.76405  1.0000
  Fe  Fe77      1.0  0.82916  0.11810  0.86279  1.0000
  S   S147      1.0  0.82103  0.17198  0.88471  1.0000
  Fe  Fe78      1.0  0.82812  0.04033  0.88167  1.0000
  H   H847      1.0  0.68205  0.23828  0.77200  1.0000
  S   S148      1.0  0.83462  0.10691  0.80509  1.0000
  S   S149      1.0  0.83261  0.02432  0.82414  1.0000
  Fe  Fe79      1.0  0.67420  0.43739  0.70125  1.0000
  S   S150      1.0  0.67368  0.39838  0.65689  1.0000
  S   S151      1.0  0.69672  0.44270  0.74528  1.0000
  Fe  Fe80      1.0  0.67806  0.06877  0.71667  1.0000
  S   S152      1.0  0.69984  0.05421  0.75996  1.0000
  S   S153      1.0  0.68529  0.08318  0.66059  1.0000
  C   C492      1.0  0.89771  0.00861  0.91455  1.0000
  C   C493      1.0  0.88054  0.34414  0.96141  1.0000
  H   H848      1.0  0.70564  0.25135  0.78125  1.0000
  C   C494      1.0  0.66008  0.28300  0.65410  1.0000
  H   H849      1.0  0.91503  0.03959  0.59163  1.0000
  H   H850      1.0  0.84993  0.46182  0.96376  1.0000
  C   C495      1.0  0.76483  0.06802  0.76480  1.0000
  C   C496      1.0  0.75440  0.07924  0.73470  1.0000
  C   C497      1.0  0.73442  0.07702  0.73355  1.0000
  C   C498      1.0  0.72464  0.06231  0.76200  1.0000
  C   C499      1.0  0.73504  0.05138  0.79220  1.0000
  C   C500      1.0  0.75498  0.05456  0.79380  1.0000
  H   H851      1.0  0.76185  0.08958  0.71202  1.0000
  H   H852      1.0  0.72662  0.08612  0.71040  1.0000
  N   N37       1.0  0.93417  0.00057  0.61387  1.0000
  H   H853      1.0  0.76276  0.04571  0.81709  1.0000
  H   H854      1.0  0.67668  0.24735  0.62146  1.0000
  C   C501      1.0  0.91878  0.02923  0.77384  1.0000
  C   C502      1.0  0.89920  0.02487  0.77968  1.0000
  H   H855      1.0  0.90065  0.02920  0.64998  1.0000
  H   H856      1.0  0.92525  0.05289  0.78258  1.0000
  C   C503      1.0  0.92168  0.00515  0.54857  1.0000
  H   H857      1.0  0.96158  0.39446  0.51069  1.0000
  S   S154      1.0  0.81024  0.45457  0.94042  1.0000
  C   C504      1.0  0.76213  0.42995  0.75882  1.0000
  C   C505      1.0  0.75018  0.43594  0.78810  1.0000
  C   C506      1.0  0.73027  0.43962  0.78334  1.0000
  C   C507      1.0  0.72196  0.43721  0.74936  1.0000
  C   C508      1.0  0.73385  0.43078  0.72012  1.0000
  C   C509      1.0  0.75377  0.42723  0.72487  1.0000
  H   H858      1.0  0.75631  0.43814  0.81436  1.0000
  H   H859      1.0  0.94535  0.05975  0.57741  1.0000
  H   H860      1.0  0.72777  0.42894  0.69379  1.0000
  H   H861      1.0  0.66815  0.36450  0.79497  1.0000
  H   H862      1.0  0.80347  0.32965  0.96816  1.0000
  Fe  Fe81      1.0  0.66204  0.04778  0.64334  1.0000
  S   S155      1.0  0.82080  0.47222  0.83749  1.0000
  S   S156      1.0  0.82594  0.99555  0.92190  1.0000
  H   H863      1.0  0.72766  0.03994  0.81438  1.0000
  C   C510      1.0  0.84216  0.27988  0.85291  1.0000
  C   C511      1.0  0.82338  0.27571  0.86409  1.0000
  C   C512      1.0  0.81699  0.24239  0.87301  1.0000
  C   C513      1.0  0.82910  0.21281  0.86985  1.0000
  C   C514      1.0  0.84757  0.21683  0.85709  1.0000
  C   C515      1.0  0.85410  0.25020  0.84907  1.0000
  H   H864      1.0  0.81398  0.29824  0.86700  1.0000
  H   H865      1.0  0.80268  0.23956  0.88295  1.0000
  H   H866      1.0  0.85708  0.19438  0.85465  1.0000
  H   H867      1.0  0.86865  0.25311  0.84043  1.0000
  H   H868      1.0  0.72549  0.99878  0.73138  1.0000
  H   H869      1.0  0.83637  0.04729  0.97554  1.0000
  N   N38       1.0  0.78516  0.18363  0.77514  1.0000
  C   C516      1.0  0.78787  0.16031  0.80721  1.0000
  C   C517      1.0  0.80426  0.18544  0.75698  1.0000
  C   C518      1.0  0.77137  0.16637  0.75060  1.0000
  C   C519      1.0  0.77750  0.21856  0.78760  1.0000
  C   C520      1.0  0.76976  0.15118  0.82806  1.0000
  C   C521      1.0  0.82031  0.20088  0.77941  1.0000
  C   C522      1.0  0.76637  0.18537  0.71565  1.0000
  C   C523      1.0  0.78053  0.25008  0.76275  1.0000
  H   H870      1.0  0.79505  0.13531  0.79963  1.0000
  H   H871      1.0  0.79737  0.17238  0.82682  1.0000
  H   H872      1.0  0.80356  0.20050  0.73194  1.0000
  H   H873      1.0  0.80928  0.15895  0.74857  1.0000
  H   H874      1.0  0.77696  0.13998  0.74335  1.0000
  H   H875      1.0  0.75747  0.16253  0.76392  1.0000
  H   H876      1.0  0.76198  0.21733  0.79313  1.0000
  H   H877      1.0  0.78418  0.22540  0.81349  1.0000
  H   H878      1.0  0.77405  0.13889  0.85371  1.0000
  H   H879      1.0  0.76075  0.17434  0.83456  1.0000
  H   H880      1.0  0.76134  0.13172  0.81368  1.0000
  H   H881      1.0  0.82535  0.18240  0.80021  1.0000
  H   H882      1.0  0.83276  0.20569  0.76206  1.0000
  H   H883      1.0  0.81610  0.22588  0.79200  1.0000
  H   H884      1.0  0.75826  0.20996  0.72067  1.0000
  H   H885      1.0  0.75685  0.16875  0.69988  1.0000
  H   H886      1.0  0.77897  0.18985  0.69877  1.0000
  H   H887      1.0  0.76744  0.26692  0.76274  1.0000
  H   H888      1.0  0.78366  0.24381  0.73470  1.0000
  H   H889      1.0  0.79193  0.26658  0.77334  1.0000
  N   N39       1.0  0.70045  0.31675  0.74152  1.0000
  C   C524      1.0  0.69331  0.33972  0.77141  1.0000
  C   C525      1.0  0.72140  0.30928  0.74688  1.0000
  C   C526      1.0  0.69022  0.28287  0.74083  1.0000
  C   C527      1.0  0.69673  0.33532  0.70677  1.0000
  H   H890      1.0  0.95656  0.99306  0.57424  1.0000
  C   C528      1.0  0.73422  0.34114  0.74530  1.0000
  C   C529      1.0  0.69103  0.26133  0.77546  1.0000
  C   C530      1.0  0.70605  0.31874  0.67343  1.0000
  H   H891      1.0  0.69825  0.32965  0.79769  1.0000
  H   H892      1.0  0.69934  0.36607  0.76919  1.0000
  H   H893      1.0  0.72686  0.28985  0.72722  1.0000
  H   H894      1.0  0.72405  0.29722  0.77338  1.0000
  H   H895      1.0  0.67498  0.28719  0.73379  1.0000
  H   H896      1.0  0.66079  0.48057  0.76365  1.0000
  H   H897      1.0  0.68120  0.33692  0.70116  1.0000
  H   H898      1.0  0.70128  0.36276  0.70813  1.0000
  C   C531      1.0  0.89478  0.49131  0.78772  1.0000
  C   C532      1.0  0.86133  0.35582  0.94486  1.0000
  H   H899      1.0  0.88719  0.02266  0.93197  1.0000
  H   H900      1.0  0.73119  0.35949  0.76742  1.0000
  H   H901      1.0  0.74933  0.33238  0.74817  1.0000
  H   H902      1.0  0.73309  0.35526  0.71967  1.0000
  H   H903      1.0  0.68527  0.27584  0.79866  1.0000
  C   C533      1.0  0.67156  0.34561  0.77346  1.0000
  H   H904      1.0  0.67921  0.46209  0.81803  1.0000
  H   H905      1.0  0.72177  0.31969  0.67410  1.0000
  H   H906      1.0  0.70131  0.33373  0.64959  1.0000
  H   H907      1.0  0.70172  0.29166  0.66919  1.0000
  H   H908      1.0  0.86257  0.35136  0.91561  1.0000
  C   C534      1.0  0.84063  0.47329  0.98368  1.0000
  C   C535      1.0  0.95748  0.04615  0.59066  1.0000
  H   H909      1.0  0.88334  0.99934  0.84781  1.0000
  H   H910      1.0  0.91317  0.02535  0.86591  1.0000
  H   H911      1.0  0.97371  0.42987  0.49240  1.0000
  H   H912      1.0  0.71564  0.46269  0.50343  1.0000
  H   H913      1.0  0.92604  0.02949  0.53535  1.0000
  C   C536      1.0  0.65984  0.47036  0.49772  1.0000
  S   S157      1.0  0.66526  0.00251  0.60357  1.0000
  C   C537      1.0  0.84626  0.30026  0.95226  1.0000
  H   H914      1.0  0.93405  0.04898  0.64360  1.0000
  H   H915      1.0  0.96132  0.06033  0.61519  1.0000
  H   H916      1.0  0.97160  0.42776  0.55925  1.0000
  H   H917      1.0  0.76282  0.42266  0.70198  1.0000
  H   H918      1.0  0.69601  0.26551  0.71961  1.0000
  C   C538      1.0  0.97603  0.40491  0.50688  1.0000
  H   H919      1.0  0.89185  0.05045  0.87614  1.0000
  C   C539      1.0  0.66673  0.48039  0.81978  1.0000
  H   H920      1.0  0.75767  0.00546  0.70865  1.0000
  C   C540      1.0  0.82715  0.35364  0.93802  1.0000
  H   H921      1.0  0.72491  0.04503  0.61298  1.0000
  H   H922      1.0  0.96491  0.99829  0.61759  1.0000
  H   H923      1.0  0.85773  0.28869  0.96927  1.0000
  C   C541      1.0  0.89110  0.99409  0.76818  1.0000
  H   H924      1.0  0.82333  0.28045  0.98626  1.0000
  H   H925      1.0  0.82591  0.33992  0.91210  1.0000
  C   C542      1.0  0.66051  0.21952  0.66041  1.0000
  H   H926      1.0  0.74361  0.01099  0.65578  1.0000
  H   H927      1.0  0.66400  0.32151  0.77974  1.0000
  H   H928      1.0  0.66577  0.35689  0.74855  1.0000
  H   H929      1.0  0.82946  0.38113  0.93030  1.0000
  C   C543      1.0  0.72792  0.01182  0.65937  1.0000
  H   H930      1.0  0.88413  0.31648  0.95577  1.0000
  H   H931      1.0  0.90800  0.99853  0.53587  1.0000
  H   H932      1.0  0.94507  0.00753  0.75194  1.0000
  H   H933      1.0  0.83285  0.25031  0.95437  1.0000
  C   C544      1.0  0.98320  0.41387  0.54449  1.0000
  C   C545      1.0  0.91825  0.01122  0.58885  1.0000
  S   S158      1.0  0.66922  0.17824  0.64544  1.0000
  N   N40       1.0  0.84381  0.33871  0.95915  1.0000
  H   H934      1.0  0.85087  0.29545  0.92426  1.0000
  C   C546      1.0  0.82089  0.47233  0.97921  1.0000
  H   H935      1.0  0.72454  0.03501  0.67603  1.0000
  H   H936      1.0  0.72128  0.44460  0.80621  1.0000
  C   C547      1.0  0.71988  0.01938  0.62199  1.0000
  C   C548      1.0  0.80743  0.35462  0.95622  1.0000
  H   H937      1.0  0.86019  0.38455  0.94774  1.0000
  C   C549      1.0  0.83454  0.02267  0.98880  1.0000
  C   C550      1.0  0.90427  0.03609  0.88768  1.0000
  H   H938      1.0  0.91280  0.05562  0.90174  1.0000
  H   H939      1.0  0.66482  0.30592  0.64045  1.0000
  H   H940      1.0  0.91016  0.00204  0.93183  1.0000
  C   C551      1.0  0.66391  0.00081  0.55612  1.0000
  H   H941      1.0  0.96989  0.04756  0.57250  1.0000
  S   S159      1.0  0.66253  0.44372  0.56576  1.0000
  H   H942      1.0  0.94312  0.01241  0.66775  1.0000
  C   C552      1.0  0.93199  0.02084  0.64813  1.0000
  H   H943      1.0  0.89196  0.35941  0.94897  1.0000
  H   H944      1.0  0.83682  0.40142  0.98789  1.0000
  C   C553      1.0  0.93010  0.00347  0.75650  1.0000
  C   C554      1.0  0.66215  0.03070  0.53506  1.0000
  C   C555      1.0  0.90978  0.48013  0.73010  1.0000
  H   H945      1.0  0.88278  0.45968  0.74688  1.0000
  C   C556      1.0  0.89467  0.47532  0.75432  1.0000
  H   H946      1.0  0.86446  0.00298  0.87813  1.0000
  H   H947      1.0  0.70417  0.02133  0.62150  1.0000
  H   H948      1.0  0.79644  0.36170  0.93603  1.0000
  C   C557      1.0  0.82936  0.99374  0.96896  1.0000
  H   H949      1.0  0.80653  0.37510  0.97692  1.0000
  C   C558      1.0  0.95360  0.00773  0.59896  1.0000
  H   H950      1.0  0.72523  0.00006  0.60232  1.0000
  H   H951      1.0  0.90494  0.99796  0.59634  1.0000
  C   C559      1.0  0.66134  0.02797  0.49759  1.0000
  C   C560      1.0  0.82875  0.27808  0.95867  1.0000
  H   H952      1.0  0.97481  0.34013  0.51584  1.0000
  H   H953      1.0  0.69689  0.00793  0.69873  1.0000
  H   H954      1.0  0.81731  0.28425  0.93922  1.0000
  H   H955      1.0  0.90931  0.46793  0.70423  1.0000
  H   H956      1.0  0.66154  0.05598  0.54757  1.0000
  C   C561      1.0  0.66677  0.24974  0.64339  1.0000
  C   C562      1.0  0.98892  0.34506  0.50363  1.0000
  H   H957      1.0  0.98735  0.39046  0.56014  1.0000
  S   S160      1.0  0.87535  0.48861  0.81841  1.0000
  H   H958      1.0  0.87471  0.48226  0.90584  1.0000
  H   H959      1.0  0.90929  0.99268  0.67633  1.0000
  Fe  Fe82      1.0  0.83709  0.54686  0.13143  1.0000
  H   H960      1.0  0.75486  0.54015  0.32132  1.0000
  S   S161      1.0  0.84730  0.52603  0.07689  1.0000
  Fe  Fe83      1.0  0.84141  0.61083  0.18092  1.0000
  S   S162      1.0  0.82988  0.58203  0.22795  1.0000
  S   S163      1.0  0.85310  0.66417  0.19441  1.0000
  Fe  Fe84      1.0  0.84845  0.53652  0.21005  1.0000
  C   C563      1.0  0.74677  0.95973  0.14962  1.0000
  Fe  Fe85      1.0  0.80760  0.56304  0.19050  1.0000
  S   S164      1.0  0.77527  0.57082  0.19899  1.0000
  S   S165      1.0  0.86117  0.56641  0.16525  1.0000
  S   S166      1.0  0.81843  0.59415  0.14370  1.0000
  Fe  Fe86      1.0  0.83521  0.94541  0.13517  1.0000
  H   H961      1.0  0.89701  0.50434  0.20052  1.0000
  H   H962      1.0  0.94803  0.59715  0.26174  1.0000
  Fe  Fe87      1.0  0.83191  0.87184  0.16789  1.0000
  S   S167      1.0  0.83355  0.89135  0.22444  1.0000
  S   S168      1.0  0.82474  0.81725  0.14859  1.0000
  Fe  Fe88      1.0  0.81319  0.93414  0.20586  1.0000
  S   S169      1.0  0.78779  0.96153  0.23358  1.0000
  Fe  Fe89      1.0  0.85711  0.92542  0.20421  1.0000
  S   S170      1.0  0.88711  0.93087  0.22820  1.0000
  S   S171      1.0  0.81032  0.91317  0.15043  1.0000
  S   S172      1.0  0.85666  0.90291  0.14857  1.0000
  H   H963      1.0  0.93919  0.62724  0.23027  1.0000
  Fe  Fe90      1.0  0.68233  0.56631  0.32945  1.0000
  S   S173      1.0  0.71446  0.55368  0.32526  1.0000
  S   S174      1.0  0.67369  0.60851  0.36807  1.0000
  Fe  Fe91      1.0  0.68345  0.91795  0.32823  1.0000
  S   S175      1.0  0.71249  0.90165  0.30441  1.0000
  S   S176      1.0  0.67760  0.90203  0.38510  1.0000
  H   H964      1.0  0.72428  0.95297  0.44869  1.0000
  H   H965      1.0  0.77633  0.89068  0.25117  1.0000
  C   C564      1.0  0.76660  0.94410  0.25151  1.0000
  C   C565      1.0  0.75132  0.96689  0.26047  1.0000
  C   C566      1.0  0.73445  0.95441  0.27572  1.0000
  C   C567      1.0  0.73281  0.91897  0.28295  1.0000
  C   C568      1.0  0.74802  0.89619  0.27366  1.0000
  C   C569      1.0  0.76474  0.90857  0.25782  1.0000
  S   S177      1.0  0.83692  0.96926  0.18979  1.0000
  C   C570      1.0  0.70483  0.56248  0.47502  1.0000
  S   S178      1.0  0.66767  0.96942  0.33378  1.0000
  H   H966      1.0  0.80754  0.51358  0.05661  1.0000
  C   C571      1.0  0.89958  0.96252  0.25327  1.0000
  C   C572      1.0  0.91931  0.95751  0.25879  1.0000
  H   H967      1.0  0.74885  0.93069  0.40077  1.0000
  H   H968      1.0  0.92636  0.93414  0.24892  1.0000
  H   H969      1.0  0.77667  0.95743  0.16098  1.0000
  C   C573      1.0  0.75866  0.56520  0.23450  1.0000
  C   C574      1.0  0.73936  0.57439  0.22877  1.0000
  C   C575      1.0  0.72568  0.57128  0.25611  1.0000
  C   C576      1.0  0.73110  0.55880  0.28971  1.0000
  C   C577      1.0  0.75044  0.54987  0.29553  1.0000
  C   C578      1.0  0.76413  0.55312  0.26822  1.0000
  H   H970      1.0  0.73492  0.58389  0.20289  1.0000
  H   H971      1.0  0.71093  0.57829  0.25108  1.0000
  H   H972      1.0  0.72697  0.90823  0.40923  1.0000
  H   H973      1.0  0.77889  0.54604  0.27320  1.0000
  H   H974      1.0  0.78416  0.94819  0.09793  1.0000
  C   C579      1.0  0.70970  0.49607  0.39812  1.0000
  H   H975      1.0  0.91046  0.93916  0.11984  1.0000
  H   H976      1.0  0.88692  0.57516  0.30256  1.0000
  H   H977      1.0  0.89791  0.65374  0.28684  1.0000
  H   H978      1.0  0.91444  0.60135  0.29146  1.0000
  H   H979      1.0  0.68841  0.51826  0.43349  1.0000
  C   C580      1.0  0.84482  0.70644  0.18148  1.0000
  C   C581      1.0  0.83176  0.71182  0.15382  1.0000
  C   C582      1.0  0.82583  0.74589  0.14421  1.0000
  C   C583      1.0  0.83282  0.77499  0.16207  1.0000
  C   C584      1.0  0.84581  0.76957  0.18985  1.0000
  C   C585      1.0  0.85181  0.73550  0.19937  1.0000
  H   H980      1.0  0.82642  0.68981  0.13953  1.0000
  H   H981      1.0  0.81583  0.74977  0.12261  1.0000
  H   H982      1.0  0.85132  0.79163  0.20384  1.0000
  H   H983      1.0  0.86195  0.73170  0.22074  1.0000
  H   H984      1.0  0.98338  0.98284  0.45245  1.0000
  C   C586      1.0  0.78116  0.98338  0.05366  1.0000
  H   H985      1.0  0.82772  0.93452  0.03730  1.0000
  S   S179      1.0  0.66045  0.58318  0.28888  1.0000
  H   H986      1.0  0.74691  0.86872  0.27896  1.0000
  H   H987      1.0  0.88960  0.93726  0.09310  1.0000
  C   C587      1.0  0.89930  0.95542  0.10646  1.0000
  C   C588      1.0  0.70215  0.52610  0.42189  1.0000
  H   H988      1.0  0.72292  0.50271  0.38392  1.0000
  H   H989      1.0  0.94521  0.97832  0.28039  1.0000
  H   H990      1.0  0.92189  0.68064  0.24228  1.0000
  C   C589      1.0  0.73497  0.92355  0.38949  1.0000
  C   C590      1.0  0.72302  0.95544  0.37674  1.0000
  Fe  Fe92      1.0  0.66020  0.95186  0.38968  1.0000
  N   N41       1.0  0.77941  0.67832  0.22664  1.0000
  C   C591      1.0  0.76908  0.65776  0.25457  1.0000
  C   C592      1.0  0.79968  0.66445  0.22582  1.0000
  C   C593      1.0  0.76993  0.67216  0.19121  1.0000
  C   C594      1.0  0.77790  0.71614  0.23691  1.0000
  C   C595      1.0  0.74724  0.66319  0.25592  1.0000
  C   C596      1.0  0.81116  0.66909  0.26035  1.0000
  C   C597      1.0  0.78171  0.67879  0.15737  1.0000
  C   C598      1.0  0.78991  0.74186  0.21563  1.0000
  H   H991      1.0  0.77196  0.62943  0.25095  1.0000
  H   H992      1.0  0.77430  0.66375  0.28174  1.0000
  H   H993      1.0  0.80810  0.67627  0.20434  1.0000
  H   H994      1.0  0.79994  0.63625  0.21924  1.0000
  H   H995      1.0  0.76561  0.64461  0.18906  1.0000
  H   H996      1.0  0.75654  0.68813  0.18882  1.0000
  H   H997      1.0  0.76294  0.72601  0.23438  1.0000
  H   H998      1.0  0.78105  0.71994  0.26566  1.0000
  H   H999      1.0  0.74292  0.69051  0.26154  1.0000
  H   H1000     1.0  0.74028  0.65430  0.23123  1.0000
  H   H1001     1.0  0.74155  0.64710  0.27787  1.0000
  H   H1002     1.0  0.82604  0.65978  0.25572  1.0000
  H   H1003     1.0  0.81180  0.69673  0.26821  1.0000
  H   H1004     1.0  0.80561  0.65328  0.28251  1.0000
  H   H1005     1.0  0.79301  0.65837  0.15390  1.0000
  H   H1006     1.0  0.78813  0.70459  0.15687  1.0000
  H   H1007     1.0  0.77229  0.67722  0.13376  1.0000
  H   H1008     1.0  0.78215  0.75171  0.19177  1.0000
  H   H1009     1.0  0.80403  0.73132  0.20777  1.0000
  H   H1010     1.0  0.79311  0.76445  0.23274  1.0000
  H   H1011     1.0  0.91337  0.59067  0.15617  1.0000
  C   C599      1.0  0.89102  0.49778  0.25615  1.0000
  H   H1012     1.0  0.90281  0.70790  0.25838  1.0000
  H   H1013     1.0  0.74248  0.95106  0.17664  1.0000
  H   H1014     1.0  0.73791  0.90604  0.36657  1.0000
  H   H1015     1.0  0.72276  0.97214  0.28190  1.0000
  H   H1016     1.0  0.86316  0.57717  0.28654  1.0000
  C   C600      1.0  0.77439  0.97017  0.09008  1.0000
  S   S180      1.0  0.66277  0.52727  0.35418  1.0000
  H   H1017     1.0  0.66443  0.94025  0.48905  1.0000
  H   H1018     1.0  0.90091  0.56488  0.18700  1.0000
  H   H1019     1.0  0.69192  0.55010  0.48577  1.0000
  H   H1020     1.0  0.91863  0.57265  0.25633  1.0000
  C   C601      1.0  0.93008  0.98258  0.27662  1.0000
  C   C602      1.0  0.81684  0.50234  0.03651  1.0000
  C   C603      1.0  0.90296  0.49827  0.22639  1.0000
  H   H1021     1.0  0.70843  0.94655  0.37122  1.0000
  H   H1022     1.0  0.72852  0.96233  0.35021  1.0000
  H   H1023     1.0  0.87369  0.61642  0.30006  1.0000
  H   H1024     1.0  0.72658  0.57514  0.41266  1.0000
  N   N42       1.0  0.71553  0.53800  0.45041  1.0000
  C   C604      1.0  0.99222  0.49322  0.48051  1.0000
  H   H1025     1.0  0.92519  0.57634  0.19579  1.0000
  H   H1026     1.0  0.93864  0.63867  0.27692  1.0000
  C   C605      1.0  0.82971  0.95910  0.02403  1.0000
  C   C606      1.0  0.69769  0.59704  0.45841  1.0000
  S   S181      1.0  0.82505  0.51462  0.17598  1.0000
  H   H1027     1.0  0.90126  0.69061  0.21465  1.0000
  C   C607      1.0  0.83656  0.50416  0.04053  1.0000
  C   C608      1.0  0.74586  0.57382  0.45744  1.0000
  N   N43       1.0  0.90066  0.61776  0.24253  1.0000
  C   C609      1.0  0.88356  0.59555  0.24789  1.0000
  C   C610      1.0  0.90420  0.61973  0.20294  1.0000
  C   C611      1.0  0.89572  0.65336  0.25751  1.0000
  C   C612      1.0  0.91715  0.60097  0.26230  1.0000
  C   C613      1.0  0.87671  0.59128  0.28669  1.0000
  C   C614      1.0  0.91130  0.58574  0.18502  1.0000
  C   C615      1.0  0.90627  0.68453  0.24207  1.0000
  C   C616      1.0  0.93669  0.61743  0.25745  1.0000
  H   H1028     1.0  0.87122  0.60606  0.23234  1.0000
  H   H1029     1.0  0.88630  0.56892  0.23774  1.0000
  H   H1030     1.0  0.91492  0.63911  0.19604  1.0000
  H   H1031     1.0  0.89103  0.62892  0.18886  1.0000
  H   H1032     1.0  0.88033  0.66007  0.25352  1.0000
  H   H1033     1.0  0.69021  0.61274  0.47916  1.0000
  H   H1034     1.0  0.69829  0.54789  0.40353  1.0000
  S   S182      1.0  0.86604  0.50744  0.25316  1.0000
  H   H1035     1.0  0.91254  0.97381  0.18505  1.0000
  H   H1036     1.0  0.75735  0.58502  0.44110  1.0000
  H   H1037     1.0  0.87400  0.98412  0.12133  1.0000
  H   H1038     1.0  0.80230  0.98717  0.13419  1.0000
  H   H1039     1.0  0.76041  0.95858  0.08465  1.0000
  H   H1040     1.0  0.74787  0.93593  0.13312  1.0000
  H   H1041     1.0  0.78307  0.96086  0.03545  1.0000
  H   H1042     1.0  0.83230  0.58784  0.99589  1.0000
  C   C617      1.0  0.88779  0.97723  0.13376  1.0000
  C   C618      1.0  0.76603  0.97772  0.15254  1.0000
  H   H1043     1.0  0.90582  0.97152  0.08560  1.0000
  S   S183      1.0  0.83751  0.98681  0.09108  1.0000
  H   H1044     1.0  0.70930  0.61288  0.44780  1.0000
  C   C619      1.0  0.73187  0.55559  0.43250  1.0000
  H   H1045     1.0  0.88401  0.95938  0.15585  1.0000
  H   H1046     1.0  0.74059  0.53660  0.41675  1.0000
  H   H1047     1.0  0.70071  0.96048  0.43296  1.0000
  H   H1048     1.0  0.73525  0.97737  0.13959  1.0000
  H   H1049     1.0  0.68715  0.59257  0.43728  1.0000
  C   C620      1.0  0.83469  0.98812  0.04390  1.0000
  C   C621      1.0  0.98824  0.98930  0.47886  1.0000
  C   C622      1.0  0.71461  0.97322  0.43688  1.0000
  H   H1050     1.0  0.92566  0.98366  0.14640  1.0000
  N   N44       1.0  0.72228  0.98599  0.40177  1.0000
  H   H1051     1.0  0.76539  0.97954  0.37604  1.0000
  H   H1052     1.0  0.74937  0.98591  0.42871  1.0000
  H   H1053     1.0  0.75277  0.55554  0.47656  1.0000
  H   H1054     1.0  0.73896  0.59564  0.47216  1.0000
  C   C623      1.0  0.72327  0.50778  0.47205  1.0000
  Fe  Fe93      1.0  0.97276  0.53229  0.70116  1.0000
  H   H1055     1.0  0.92442  0.56931  0.66911  1.0000
  C   C624      1.0  0.66376  0.96549  0.50162  1.0000
  C   C625      1.0  0.70020  0.98316  0.68451  1.0000
  H   H1056     1.0  0.89895  0.93305  0.96168  1.0000
  H   H1057     1.0  0.98693  0.57926  0.58021  1.0000
  S   S184      1.0  0.97661  0.56710  0.65354  1.0000
  C   C626      1.0  0.98006  0.50232  0.50902  1.0000
  Fe  Fe94      1.0  0.96653  0.93353  0.70350  1.0000
  S   S185      1.0  0.94353  0.50687  0.70614  1.0000
  S   S186      1.0  0.97242  0.89601  0.65832  1.0000
  H   H1058     1.0  0.74123  0.94991  0.64510  1.0000
  H   H1059     1.0  0.94814  0.93890  0.57702  1.0000
  C   C627      1.0  0.93715  0.60588  0.70632  1.0000
  C   C628      1.0  0.72681  0.94733  0.65689  1.0000
  H   H1060     1.0  0.92582  0.70715  0.67721  1.0000
  H   H1061     1.0  0.66181  0.61159  0.78987  1.0000
  H   H1062     1.0  0.96302  0.72586  0.66720  1.0000
  C   C629      1.0  0.93006  0.66847  0.71851  1.0000
  H   H1063     1.0  0.94550  0.67397  0.71850  1.0000
  C   C630      1.0  0.90561  0.62574  0.73193  1.0000
  C   C631      1.0  0.93437  0.62724  0.76750  1.0000
  H   H1064     1.0  0.90361  0.58392  0.77195  1.0000
  H   H1065     1.0  0.88432  0.58677  0.74138  1.0000
  S   S187      1.0  0.98950  0.94190  0.57640  1.0000
  H   H1066     1.0  0.89866  0.64459  0.75064  1.0000
  H   H1067     1.0  0.91496  0.61259  0.66309  1.0000
  H   H1068     1.0  0.95530  0.66775  0.77658  1.0000
  H   H1069     1.0  0.93825  0.60147  0.64831  1.0000
  H   H1070     1.0  0.88249  0.52563  0.90394  1.0000
  C   C632      1.0  0.93337  0.96259  0.62353  1.0000
  C   C633      1.0  0.92543  0.50048  0.73891  1.0000
  H   H1071     1.0  0.92202  0.93306  0.84450  1.0000
  C   C634      1.0  0.90241  0.96836  0.75079  1.0000
  H   H1072     1.0  0.96343  0.59751  0.57505  1.0000
  H   H1073     1.0  0.96482  0.50205  0.50519  1.0000
  H   H1074     1.0  0.96476  0.63080  0.75240  1.0000
  H   H1075     1.0  0.93767  0.53148  0.78001  1.0000
  H   H1076     1.0  0.70391  0.91546  0.63571  1.0000
  C   C635      1.0  0.90466  0.94977  0.88975  1.0000
  H   H1077     1.0  0.85178  0.60978  0.90392  1.0000
  H   H1078     1.0  0.87747  0.93408  0.84158  1.0000
  H   H1079     1.0  0.81160  0.56920  0.84058  1.0000
  H   H1080     1.0  0.66603  0.94486  0.55501  1.0000
  H   H1081     1.0  0.97781  0.51775  0.56431  1.0000
  H   H1082     1.0  0.98094  0.64300  0.60043  1.0000
  C   C636      1.0  0.84017  0.55652  0.95006  1.0000
  H   H1083     1.0  0.69978  0.49890  0.50996  1.0000
  C   C637      1.0  0.98948  0.70331  0.68654  1.0000
  H   H1084     1.0  0.81551  0.54247  0.89763  1.0000
  H   H1085     1.0  0.67809  0.53232  0.72277  1.0000
  H   H1086     1.0  0.69490  0.95663  0.73526  1.0000
  C   C638      1.0  0.86683  0.95382  0.85085  1.0000
  H   H1087     1.0  0.94481  0.95560  0.64300  1.0000
  H   H1088     1.0  0.89589  0.94494  0.74156  1.0000
  H   H1089     1.0  0.90923  0.97162  0.83534  1.0000
  H   H1090     1.0  0.85610  0.94178  0.86823  1.0000
  H   H1091     1.0  0.73221  0.51699  0.49431  1.0000
  C   C639      1.0  0.71315  0.93666  0.62669  1.0000
  C   C640      1.0  0.95489  0.63908  0.77386  1.0000
  H   H1092     1.0  0.72792  0.92446  0.67506  1.0000
  C   C641      1.0  0.87721  0.96040  0.92857  1.0000
  N   N45       1.0  0.84430  0.55622  0.91056  1.0000
  H   H1093     1.0  0.83357  0.54570  0.83709  1.0000
  H   H1094     1.0  0.91079  0.52414  0.82233  1.0000
  C   C642      1.0  0.82566  0.56349  0.89169  1.0000
  C   C643      1.0  0.85867  0.58344  0.90244  1.0000
  H   H1095     1.0  0.97271  0.78716  0.67341  1.0000
  H   H1096     1.0  0.89885  0.92341  0.88619  1.0000
  N   N46       1.0  0.72131  0.97951  0.67780  1.0000
  H   H1097     1.0  0.67361  0.55885  0.80732  1.0000
  H   H1098     1.0  0.86991  0.58316  0.92338  1.0000
  C   C644      1.0  0.69148  0.95381  0.70659  1.0000
  H   H1099     1.0  0.91490  0.94605  0.91206  1.0000
  H   H1100     1.0  0.86541  0.55878  0.84935  1.0000
  H   H1101     1.0  0.70418  0.95780  0.61513  1.0000
  H   H1102     1.0  0.81870  0.58786  0.90139  1.0000
  C   C645      1.0  0.91697  0.95782  0.85688  1.0000
  C   C646      1.0  0.83397  0.59169  0.96671  1.0000
  C   C647      1.0  0.75278  0.97882  0.71405  1.0000
  H   H1103     1.0  0.72168  0.92551  0.60438  1.0000
  H   H1104     1.0  0.86611  0.60501  0.85025  1.0000
  C   C648      1.0  0.98549  0.63609  0.57286  1.0000
  S   S188      1.0  0.98166  0.65970  0.68093  1.0000
  H   H1105     1.0  0.93415  0.59952  0.77597  1.0000
  H   H1106     1.0  0.69190  0.98539  0.65966  1.0000
  H   H1107     1.0  0.97987  0.94075  0.50219  1.0000
  H   H1108     1.0  0.93556  0.90972  0.60422  1.0000
  H   H1109     1.0  0.87117  0.93546  0.91982  1.0000
  C   C649      1.0  0.86909  0.58110  0.86608  1.0000
  S   S189      1.0  0.98514  0.97484  0.68100  1.0000
  H   H1110     1.0  0.90789  0.67559  0.67678  1.0000
  N   N47       1.0  0.88926  0.97603  0.89971  1.0000
  H   H1111     1.0  0.83302  0.59242  0.84329  1.0000
  H   H1112     1.0  0.89833  0.63096  0.70638  1.0000
  H   H1113     1.0  0.85125  0.51510  0.87258  1.0000
  C   C650      1.0  0.98631  0.96543  0.50717  1.0000
  C   C651      1.0  0.89997  0.58905  0.74370  1.0000
  H   H1114     1.0  0.92226  0.93792  0.57541  1.0000
  C   C652      1.0  0.97703  0.73122  0.67723  1.0000
  S   S190      1.0  0.93509  0.94045  0.72014  1.0000
  H   H1115     1.0  0.93180  0.66540  0.66019  1.0000
  C   C653      1.0  0.66835  0.55478  0.72867  1.0000
  H   H1116     1.0  0.69612  0.92768  0.69728  1.0000
  H   H1117     1.0  0.92521  0.64169  0.78700  1.0000
  H   H1118     1.0  0.96040  0.62770  0.79914  1.0000
  H   H1119     1.0  0.84114  0.50049  0.91177  1.0000
  H   H1120     1.0  0.82879  0.53802  0.95650  1.0000
  C   C654      1.0  0.98250  0.76616  0.68066  1.0000
  S   S191      1.0  0.98707  0.56924  0.73807  1.0000
  H   H1121     1.0  0.93944  0.58062  0.72037  1.0000
  H   H1122     1.0  0.92332  0.68706  0.73775  1.0000
  H   H1123     1.0  0.86477  0.97789  0.93465  1.0000
  H   H1124     1.0  0.90652  0.56850  0.72671  1.0000
  C   C655      1.0  0.92788  0.59727  0.67008  1.0000
  N   N48       1.0  0.92672  0.63159  0.73007  1.0000
  H   H1125     1.0  0.72731  0.95309  0.72791  1.0000
  C   C656      1.0  0.92328  0.67904  0.68099  1.0000
  H   H1126     1.0  0.95173  0.61475  0.70069  1.0000
  S   S192      1.0  0.98984  0.90877  0.73683  1.0000
  C   C657      1.0  0.85124  0.51987  0.90149  1.0000
  C   C658      1.0  0.82640  0.56775  0.85093  1.0000
  H   H1127     1.0  0.88473  0.57943  0.87027  1.0000
  H   H1128     1.0  0.97703  0.65425  0.55561  1.0000
  H   H1129     1.0  0.67573  0.95570  0.70432  1.0000
  C   C659      1.0  0.93498  0.93636  0.59280  1.0000
  C   C660      1.0  0.92573  0.51600  0.77258  1.0000
  C   C661      1.0  0.92196  0.97289  0.74461  1.0000
  H   H1130     1.0  0.67925  0.50810  0.77701  1.0000
  H   H1131     1.0  0.81996  0.60142  0.95694  1.0000
  C   C662      1.0  0.91044  0.51171  0.79659  1.0000
  H   H1132     1.0  0.85911  0.96324  0.82681  1.0000
  H   H1133     1.0  0.89251  0.97656  0.97705  1.0000
  C   C663      1.0  0.97838  0.59925  0.56579  1.0000
  H   H1134     1.0  0.99031  0.64335  0.50266  1.0000
  C   C664      1.0  0.87130  0.50913  0.91503  1.0000
  C   C665      1.0  0.88723  0.95272  0.96440  1.0000
  H   H1135     1.0  0.87233  0.50871  0.94440  1.0000
  C   C666      1.0  0.87613  0.98490  0.86910  1.0000
  H   H1136     1.0  0.75806  0.97203  0.74113  1.0000
  H   H1137     1.0  0.84482  0.61173  0.96331  1.0000
  H   H1138     1.0  0.75949  0.96015  0.69513  1.0000
  H   H1139     1.0  0.71351  0.56865  0.49881  1.0000
  H   H1140     1.0  0.99032  0.69937  0.60489  1.0000
  H   H1141     1.0  0.93193  0.98395  0.54178  1.0000
  C   C667      1.0  0.66470  0.96823  0.53910  1.0000
  H   H1142     1.0  0.97853  0.59290  0.53701  1.0000
  C   C668      1.0  0.98739  0.51134  0.54264  1.0000
  H   H1143     1.0  0.87669  0.94182  0.98311  1.0000
  H   H1144     1.0  0.82312  0.93934  0.97182  1.0000
  C   C669      1.0  0.82708  0.96194  0.98684  1.0000
  H   H1145     1.0  0.91982  0.95667  0.63708  1.0000
  C   C670      1.0  0.73087  0.97749  0.71382  1.0000
  H   H1146     1.0  0.85283  0.54771  0.96561  1.0000
  H   H1147     1.0  0.67576  0.57358  0.74559  1.0000
  H   H1148     1.0  0.66521  0.56764  0.70276  1.0000
  H   H1149     1.0  0.92960  0.97280  0.86444  1.0000
  H   H1150     1.0  0.70753  0.98764  0.49132  1.0000
  H   H1151     1.0  0.87607  0.99034  0.77216  1.0000
  C   C671      1.0  0.66466  0.50003  0.78409  1.0000
  H   H1152     1.0  0.66929  0.49799  0.84243  1.0000
  C   C672      1.0  0.99254  0.97319  0.54182  1.0000
  Fe  Fe95      1.0  0.99248  0.60287  0.68977  1.0000
  Fe  Fe96      1.0  0.99239  0.93620  0.63735  1.0000
