data_image0
_chemical_formula_structural       S2FeS2FeS2FeSFeS3FeS2FeS2FeSFeS4CHFeS2FeS2FeSFeHS2FeHFeS2FeCFeCSH3SHFeHSH2CSC2H3CH2CH2CH2C7H4C6H4C2HCHCH4C3H2CH2SHC6H4C5HC5H6C6H5CH4C2HCHCHCH5CSCHC2HCHC4H4CH2CH7NCH3CHCH5NC8H20NC8H12CFeH6CH3CHFe2HSHC2HCSH4SNCH3NSH2C2NH2CH6C4HCHC3H2C2H4C2H2SH2CH2CH6C2HC3HCHCHCH2C2HCH2CH2CH3C3H4SHC2HNH8SH7C2H3CNCH4FeH4CHC2H4CH3CHFeHCHC2H4CHCHCNH2CSH3CH3C2HS2FeS2FeS2FeSFeS3FeS2FeS2FeSFeS3CH2FeS2FeS2FeSFeCS2FeHFeS2FeHFeCSHSHSH2CHCH2C4HSC2HC2H2CH2C6H4C6H4C2H3CHCH2C4HCH2SHC6H4NC4H4C5H3C6H4CHNC4HC3H14CHSH2CNC8H16CH3C2H2C2SH2SH3NC8H21SH2S2H5CNCHFeSH2NC8H21CH2C2H3CH3NH4C2H2SH5CHCH2C2HCFeC2HC2HCH2C3HFeC4H3CFeHSH3CSHCFeH12CH2C2HCH9CNCH3FeH4CHCH4CNH3CHCHCH4CH2SHC2HNHSHCH2CHCH2CH2CHCH2SH5CHSCFeSCH5CHC2HCH3CH3CNHCHCH7CHCH2C2NCHSH8C2H7C5H6CH2CHSHFeSH2C2HCHC3HN2HCSH4CH2C2H5CH3CHCHCH4C3SH2CHCHCH5CHC2H5SCH2CNH2SHSHC6H5C4H4CH3CH7CH3CH4SH3CHC2SNH2C6H8CSH5CH2CFe2S2FeSHFeSFeS3H2CH3CHNHFeS2FeSCFeSFeS3FeSCFeSCFeSFeS3FeS2FeS2FeSFeS3HFeCH2SC6H4C2HCHCH4C6H10CH5C6H4C7H3SCH3CH4C2H3CH4C6H4C6HC2H5CH3CSHNHC2HNCSC2HNC8H8CH12C2SH7CH4C2H2CH2NCNC3H6CH5CHC2NH2C3H7CS3H11CH3CH2CH4C3SH7CH3CHNH2CH3CHNC4HC2H10CH5FeH2C4H3CH8CH3SCH2CH3C2HFeHCHC2NH3SH3CH4CHCH4CHCH4S2CH2NCH2C2HSH2CSCH5C2H5C4HC2HC3H4NH2CH2CH5CH2CFeCHCHC2FeS2FeS2FeSFeS3C2H3CH4FeS2FeSHFeSFeS3HSCFeSHFeSFeSH2FeS2FeSHFeSFeS3HFeCH3C7H3CH2C2H3CHC6H4CH2C3HCH2C8H4C5H4C2H6C2HC6H2CHC6H4C2HC3H7SH10SHNSCH3CH5CNH2CN3HC2H2C2H9FeCH9SH2CH3C3H10SCH3S2H2CH4CH5CHCH3C2HCHFeHCHC2HCHCNC5SC2H5CH8CH2CH2CHCSHC2HCNC2HCNCHCH14NSHNH2CH2CHCHCH2SHCH2CH4CH3C4HCH5CH4SC2HCH2C2H2CH4C3H4C2HNCHCH2SCH4FeC2H2CH2C2H4CH8CHCHC2SH2C2HCH4FeCH2SH2CH3CHCH4CH2SHCH5C2H2NH2SH3CHCHSH2SFeHCFeS2FeSFeS3FeHSC3FeSCHSCFeS2FeS2FeSFeS3FeSFeS2FeSFeHS2FeS2FeS2FeSFeS3HSC2HCFeS2FeS2FeSFeS3C5H2C9H2C2H7SC6H4C6H4C6H4C6H4C6H11C4FeH3C6H4C6H7C2HCH2C2H3CHFeHSHCHC5H3C8H6CH2CHC2H3SC3H4NC8H20NSH2CH8CHCHSH5CH8NC5H13NC6HCHCH7C4H3CHCHC3H6C3H6SCH2SHNCH5C2FeHC2H3CHSHCHC2H3SHCHCHC4HCH5CH5C2H3CH3SFeC2H2CFeH2NHFeHSC2H4NHCH2CH5CHC2HC2H6CHCH2C3NHFeH3C2H2C2HCH3SHCSNH3CH3FeHC2H5FeH6CH2SFeHNCH5CSCH2SHCH2CH6SNH5NCNH2C2HFeSC2HSH2CH2CH2SHCHCH6CH2CNH3SHCH2SN2H2CH2CH5C2H3FeCH4C2H3CH3FeH2SH2CH3CH4CH3C2S2HFeH2C2H5C2HC5HCHC2HC2SHSH2CHCH3C3H3CHCH2CHCHC2HC2H2SHCHSCH2C2H2FeHCH5CH5C2S2CH5CHNSH2CH2CHC2H3CFeCH6CHCHCH6FeH5C2H2CH3CHSCH2C2HSH2FeHCH2C2NC3H4CH3CHFeHCHCH2CH2SH4CHC2HNC2NHFeS2FeSFeS3FeH2FeCHFeSHCSCFeS2FeS2FeSFeS3FeSFeS2FeSH2S2FeS2FeS2FeSFeS3HS2HSHFeS2FeS2FeSFeS3C5H3C6H5C2HCH5C3HC2HCH2C6H4C6H4C6H4C6H4FeSHCHNHC2SHCH2SC6H4C6H6C3H2C5H6CHCH2CHC4H2C2NC5H3SC2FeH3SH3CHCH7FeC3H10CH2NHCHNHCSH2CH2NHSCH2CSH2C3HSH3CHSHFeH2CH2CNC4FeHC2H8FeHCN2H3CH4CHCHFeHSHCH5C3SC2H5NHCH2CHSHC2HCNC8H20NC2HC3HCH4C2SH4C3H4CFeHC3H2C2HCH5CHC2HSHSFeCH6CFeHC2SCH2CH3C2H8CHCH2C3H2CHCHCSH5FeH3CH2CH3CNCH3C2H3CHFeSHC2HNCH6SC2HSHCH2C3HSCHC2HCHC2SCH6CSCNCHCH2CH4C3H10CHC2HCFeHSHC2H2CHCH4C2HCH3CH3CH3CNH5CH8C2Fe2HCHC2NCH7CH2SCHC2H2CH4CHCHC2H3CH4CHCH3SHC3H2C2HCH3CHCSC2HC6H17CHCH2CSNH2CSCH4CH2FeCHCH5CH5SH7CHFeHCHCH6CSH2CH3CH3CH3CH8CHCH3C2HC4H3CHFeSH4C2HC3H3SHCH4CH5NCH4CH3CH7C2H4CH2C3H4FeS2CH3CHFeS2FeS2FeSFeS3HS2H2C2FeS2FeSCFeSFeS3FeS2FeS2FeSFeS4HSH3FeS2FeS2FeS2FeSFeS3FeS2FeSHFeSFeS3C6H4C3HC2H4C6H4C6H5C3HFeH3C2HC3H4C6H4NC4H4C5H5C6H4C6H4SHC4H4C6H4SC5H4C6H9SH6CH8C2H2C2H2CH4C2H2CHCHCSCH3CH7C2H2CSHCNC8H23SH5C3H2CH2NH3CH2C2H4CNC8H20CH8CH3CHSCHCHC2H2C2H5FeSCHSCHC2H3CH3CHNC2SH2Fe2NCHCFeH2C4H2CHCH3CH2CH6CH2CH3C2HC2H7C2H2CH5CSCH9C4HCHCNHFeCFeH5C2H3CH3C2NCH3CH7C4HNHFeHCH4CNSHCH3SCNHC2H3C3SC2H3CH3CH8CNH3CHCHCNH2CSH12CH2CH2SHCH3CFeCHCHCH3CH2CHCHCH3C2HNCH3CHC2HSH2CHNH4CSH7C3H2NHC2H3CH2CH2CH4C3FeH3CSH4CSH3C2SHCH3C2HC2HNCH2CH2NH7CH3C4SHCNCHCHFeH3C4H3FeS2CHSHCHFeS2FeS2FeSFeS3HSCHC2HFeS2FeH2FeHFeS3FeS2FeS2FeSFeS4HSHFeHFeSHFeS2FeS2FeSFeS3FeS2FeSHFeSFeS3C6H4C6H4C6H4C6H4CHC2HFeH3C4HCH4C6H4C4HSH2SC4H4CHC6H4C6H4CHC2HCH4C6H5C5H4C5H4CH2CHC4H19S2HSCH4CHCHCH8N2C2H7CH3CSCSH2CSCH3CNC5HCH13C4H2C2NCHC3H7CH4CH2CH3C2HN2C6H14SHFeN2H4CH4CHC2H14NH2C3HCNSC2H5C2H4CH2CH5C4H2CH7C3HCH10C2H4CHC2H2CHCH2CH4C3H2CH12C2HCH4C3H11CSH2CH7FeH2SCH6FeH3FeH4CH5SC2H2CHC4H5SHCH2SCH2CH2CHCH2NH2SHNC3H3CH3CHCHCH2NCSHNCFeH6FeHC2H2C2SC2HFeHCFeC2SCH2CSH5C3H2C4H4CSHNCHC3H2CH2C2H2C2HCHCH8NH3SCNH2CH3C3H2CH3CH3NHCFeNCHFeSHFeS2FeCFeS3FeS2HSFeSFeS3FeS2FeS2FeSFeS3FeSHFeS2FeSFeS3FeS2FeS2FeS2FeSFeS3FeS2FeS2FeHFeSHSH6FeH3SH2CHSFeH3C6HNH2C3SC2H4C6H4CHCH2C3SHC6H4C6H2CHC3H2SH4C6H4CH2CHCH2C6H4C6H4C6H4C6H4C6H3CHC3H3SH2C3H4SCSCSHCHCH3CH3C3H2CH2CH3C2H2CHFeHSCHFeCH7SHSHCH2C2H3C2H2CH2CSHCHC4HSH2CH3CNC8H20C2HCH3CH3C2SH8CH2NCHNC5HC2H12CH3CH3NC4SHCHCH7CH11CHCFeCH2CH5NC8H20C5H12CNHNCH4CNH4CHCFeH2SH2CHCH3CH4CHC2H2SH3C2HFeC2HSH3C2HCSHCH2CFeHFe2SC2H5SHCSHSNH8CHCH2NFeCHCFeHSHSH3CHC3H4CH3SH4C3H2SH4CH3C2H3C2HCH3C2H6C2H6CH6CH5CH3FeH2SH2SFeSHFeS2FeNFeS3FeS2HSFeSFeS3FeS2FeS2FeSFeS3FeS2FeS2FeSFeS3FeS2FeS2FeS2FeSFeS3FeSHFeS2FeCFeSHSFeS2HFeHFeH3SH2CFeSH2CHC6FeH3C2H2C2HC2HC6H4FeCFeH2C4HC6H4C4H10C3H2C7H6C4H2C6H4C6H4C6H4C6HCH2C6H3CHC3H2CH4C2SH5CH7SHCNSH3CHSH3NH2C2H3CNHCHSHC2H2CH5CHCHCH2S2HC2SCH9NC8H20NC8H18NC8H13CH4C2NC8H12CH6FeCHCSCHCH5CH3C2HCH4CH2C2HC2HCSHC2H2CH5NH4C2H2C2H4C2SCH3CNH3FeH2CH2CHCH2FeHC2H4NC2H3CHCH3CH5C2HCNSCH3SH5CSHFeSFeH4C2NH7CHCH2CH6SCH3CSH3C2H2CHC4HCHC3H3FeSNH7SCH2C2H4CHC2H2SH2CH2CH2SHC2H2CH2CFeH2CHCHCH2NHCH8CH4CHCH4C2HCHCHC2H7CH7SC2HC2HCSCH5SNC4HCHC5H8NHCH6Fe2S2HC2FeSCHSCNCHFeH4CSFeS2HC5HC6H2CH5SH3S2H6C2H2CSC2HCH4CFeH5CHCH6NSHCH4FeS2HC2FeSHC2HFeH2CH2NHC2H4C5H2C5H2FeCHCHSH2CHCHSC2SHSH2CNHCH7SCHS2NH3FeCSHCH3C3FeH3SC3HSH2CH4C5HC2HCHSHNHC2H4CHC2H3CSH3CHNHCH3CH5CHCH2CH15SCH2CHC3H2C4NH2C3H2C2H3CHCHNH5CH3S2CFeSHS2CFeHCFeS2FeSHS3FeS2FeS2H2FeS3FeSFeS2FeS3HCSFeHSFeH2C2FeSHSFeSHFeS2FeSFeS3C6H6C4H4C6H4SC2H2C6H4C6H8SHNSH4CH2SC6H4C6H4FeCSC3HCH2C6H4C6H9NH2CHNC8H20CHSCHCHFeH2CH3CSHSHCH3CH5C3H3CHCH2CH6CH2FeH3S2H2C2HC2HCHCH5C2HCHCFeHCNH2FeH5C2HNHCHCFeHCHCHCH5CH2CFeHC2HSC2HCH3NFeC3SC3H3CH6CH4CH11C3HC2H4CH2C2HNHC3HC3H8NH3CH5CH2SCFeC8SC4H4NCH2CHC2SH3SH4CNH6C3H3CH4C2HCH9C3SFe2H2CH2CH7NC2H9NHCH2SCNH3CHCHCH3CFeH2CH4SH3SHNC3H2CHCSHCH3CH3CH2CHC2FeCHSC3HSH2CSH3CH6C2SHSHNH3CH4CFeH3FeH6SHCH2CH3CH4CHCHCNHSCH2CHFeSHS2HFeH2FeS2FeSCS3FeS2FeS2HNFeS3FeSFeS2FeS3CHSFeS2FeHSCHFeSCSFeS2FeS2FeSFeS3C6H6C4H4C6H4CHCHC7H4C6H3CHCH3CHCHC3H3C7H4C6H6SC3SH3C6H4C6H5SH2C2H4NCHC4H2C2H3NH6CFeH8NC8H17CHNC4H3SH4C5H2CH2C2H2SCHCHNCH5CH3FeHC2SHC2H4CHCH2FeH6SCH2CHCHC3H3C2H2S3C2HC2HCH4SFeH3SCH4CH3FeH6CH3SHCH3CH2NCH5FeHCHSHFeH2C2H4CH3CHFeHCH6C3SHC3H3NCH2FeH7CHFeHCSHCH3CH6CH2FeC2H4C2NHCFeH3CH2CH2CH6C2HSHNH2SH3FeC3H2C2H3C2SHC2HCHNH2SH2C2HCFeH2CH3C3H2CHC2HC2H2C2FeCHSNCH5CH4CH7NH5CH5CSCHCSNH3CH3CH7SH5
_chemical_formula_sum              "S768 Fe384 C2688 H4608 N192"
_cell_length_a       120.575
_cell_length_b       120.014
_cell_length_c       49.4858
_cell_angle_alpha    78.1685
_cell_angle_beta     78.2167
_cell_angle_gamma    101.837

_space_group_name_H-M_alt    "P 1"
_space_group_IT_number       1

loop_
  _space_group_symop_operation_xyz
  'x, y, z'

loop_
  _atom_site_type_symbol
  _atom_site_label
  _atom_site_symmetry_multiplicity
  _atom_site_fract_x
  _atom_site_fract_y
  _atom_site_fract_z
  _atom_site_occupancy
  S   S1        1.0  0.14683  0.61730  0.42618  1.0000
  S   S2        1.0  0.12852  0.64051  0.41733  1.0000
  Fe  Fe1       1.0  0.07784  0.52392  0.10800  1.0000
  S   S3        1.0  0.06830  0.51001  0.14965  1.0000
  S   S4        1.0  0.09130  0.51987  0.07383  1.0000
  Fe  Fe2       1.0  0.06775  0.54244  0.12943  1.0000
  S   S5        1.0  0.05735  0.52986  0.17096  1.0000
  S   S6        1.0  0.06648  0.56120  0.12442  1.0000
  Fe  Fe3       1.0  0.07388  0.52419  0.17210  1.0000
  S   S7        1.0  0.07951  0.52218  0.21473  1.0000
  Fe  Fe4       1.0  0.05247  0.51697  0.14532  1.0000
  S   S8        1.0  0.03259  0.50779  0.15986  1.0000
  S   S9        1.0  0.08444  0.53720  0.13102  1.0000
  S   S10       1.0  0.06182  0.53026  0.10313  1.0000
  Fe  Fe5       1.0  0.07693  0.62095  0.19318  1.0000
  S   S11       1.0  0.08744  0.61552  0.15755  1.0000
  S   S12       1.0  0.05724  0.61911  0.19580  1.0000
  Fe  Fe6       1.0  0.09812  0.62666  0.22077  1.0000
  S   S13       1.0  0.10945  0.62109  0.18649  1.0000
  S   S14       1.0  0.10620  0.62902  0.25930  1.0000
  Fe  Fe7       1.0  0.10210  0.63112  0.15378  1.0000
  S   S15       1.0  0.11676  0.63971  0.11222  1.0000
  Fe  Fe8       1.0  0.09405  0.60613  0.19217  1.0000
  S   S16       1.0  0.09637  0.58798  0.19404  1.0000
  S   S17       1.0  0.09131  0.63767  0.18766  1.0000
  S   S18       1.0  0.08296  0.61061  0.22831  1.0000
  S   S19       1.0  0.23493  0.63499  0.40299  1.0000
  C   C1        1.0  0.12142  0.58120  0.21932  1.0000
  H   H1        1.0  0.13603  0.64498  0.01102  1.0000
  Fe  Fe9       1.0  0.12345  0.57239  0.35001  1.0000
  S   S20       1.0  0.10685  0.55916  0.35373  1.0000
  S   S21       1.0  0.12323  0.59129  0.34558  1.0000
  Fe  Fe10      1.0  0.13790  0.55478  0.35273  1.0000
  S   S22       1.0  0.12214  0.53965  0.35710  1.0000
  S   S23       1.0  0.15701  0.55441  0.35083  1.0000
  Fe  Fe11      1.0  0.11754  0.55196  0.32187  1.0000
  S   S24       1.0  0.11289  0.55097  0.27855  1.0000
  Fe  Fe12      1.0  0.11225  0.54788  0.38878  1.0000
  H   H2        1.0  0.07365  0.54757  0.20937  1.0000
  S   S25       1.0  0.13399  0.56633  0.31601  1.0000
  S   S26       1.0  0.12824  0.56178  0.38636  1.0000
  Fe  Fe13      1.0  0.24205  0.60167  0.36151  1.0000
  H   H3        1.0  0.01803  0.60190  0.18447  1.0000
  Fe  Fe14      1.0  0.21629  0.60157  0.36161  1.0000
  S   S27       1.0  0.22153  0.62142  0.34615  1.0000
  S   S28       1.0  0.19630  0.59566  0.36746  1.0000
  Fe  Fe15      1.0  0.23685  0.61926  0.31551  1.0000
  C   C2        1.0  0.23882  0.60812  0.22178  1.0000
  Fe  Fe16      1.0  0.23254  0.62138  0.37752  1.0000
  C   C3        1.0  0.06296  0.54089  0.30562  1.0000
  S   S29       1.0  0.23137  0.59950  0.32907  1.0000
  H   H4        1.0  0.22189  0.60627  0.99438  1.0000
  H   H5        1.0  0.09067  0.64246  0.31238  1.0000
  H   H6        1.0  0.06369  0.58373  0.26664  1.0000
  S   S30       1.0  0.23503  0.63157  0.09802  1.0000
  H   H7        1.0  0.17014  0.65668  0.00963  1.0000
  Fe  Fe17      1.0  0.14564  0.63608  0.41781  1.0000
  H   H8        1.0  0.05201  0.55587  0.23501  1.0000
  S   S31       1.0  0.23166  0.61655  0.03400  1.0000
  H   H9        1.0  0.09914  0.62734  0.40646  1.0000
  H   H10       1.0  0.12449  0.57428  0.42922  1.0000
  C   C4        1.0  0.10521  0.65680  0.39306  1.0000
  S   S32       1.0  0.01693  0.57713  0.18374  1.0000
  C   C5        1.0  0.12411  0.59428  0.21992  1.0000
  C   C6        1.0  0.23939  0.61286  0.24531  1.0000
  H   H11       1.0  0.23814  0.60709  0.26615  1.0000
  H   H12       1.0  0.14228  0.61529  0.24484  1.0000
  H   H13       1.0  0.07586  0.63167  0.40444  1.0000
  C   C7        1.0  0.24626  0.65429  0.32033  1.0000
  H   H14       1.0  0.08152  0.55003  0.24860  1.0000
  H   H15       1.0  0.24506  0.64188  0.21154  1.0000
  C   C8        1.0  0.23309  0.62223  0.99725  1.0000
  H   H16       1.0  0.10616  0.62288  0.37676  1.0000
  H   H17       1.0  0.09407  0.58782  0.30004  1.0000
  C   C9        1.0  0.11937  0.51210  0.14555  1.0000
  H   H18       1.0  0.01628  0.55560  0.16515  1.0000
  H   H19       1.0  0.10330  0.53142  0.16419  1.0000
  C   C10       1.0  0.11995  0.51091  0.11469  1.0000
  C   C11       1.0  0.16773  0.56570  0.35675  1.0000
  C   C12       1.0  0.17897  0.56411  0.35712  1.0000
  C   C13       1.0  0.18781  0.57307  0.36065  1.0000
  C   C14       1.0  0.18551  0.58377  0.36382  1.0000
  C   C15       1.0  0.17424  0.58529  0.36364  1.0000
  C   C16       1.0  0.16544  0.57636  0.36013  1.0000
  H   H20       1.0  0.18085  0.55589  0.35463  1.0000
  H   H21       1.0  0.19636  0.57166  0.36101  1.0000
  H   H22       1.0  0.17227  0.59346  0.36600  1.0000
  H   H23       1.0  0.15688  0.57776  0.35979  1.0000
  C   C17       1.0  0.10360  0.54271  0.26118  1.0000
  C   C18       1.0  0.09513  0.53213  0.27573  1.0000
  C   C19       1.0  0.08796  0.52606  0.26113  1.0000
  C   C20       1.0  0.08894  0.53044  0.23177  1.0000
  C   C21       1.0  0.09737  0.54105  0.21718  1.0000
  C   C22       1.0  0.10465  0.54706  0.23171  1.0000
  H   H24       1.0  0.09414  0.52858  0.29828  1.0000
  H   H25       1.0  0.08155  0.51786  0.27282  1.0000
  H   H26       1.0  0.09824  0.54471  0.19475  1.0000
  H   H27       1.0  0.11108  0.55523  0.22005  1.0000
  C   C23       1.0  0.09526  0.52345  0.03550  1.0000
  C   C24       1.0  0.09414  0.53373  0.01765  1.0000
  H   H28       1.0  0.11216  0.60269  0.46520  1.0000
  C   C25       1.0  0.00129  0.48777  0.15552  1.0000
  H   H29       1.0  0.09954  0.59110  0.47260  1.0000
  C   C26       1.0  0.10038  0.51573  0.02263  1.0000
  H   H30       1.0  0.09032  0.53987  0.02714  1.0000
  H   H31       1.0  0.08663  0.49369  0.15271  1.0000
  H   H32       1.0  0.06780  0.64868  0.40154  1.0000
  H   H33       1.0  0.10135  0.50781  0.03590  1.0000
  C   C27       1.0  0.02197  0.49817  0.14857  1.0000
  C   C28       1.0  0.02499  0.49348  0.12524  1.0000
  C   C29       1.0  0.01626  0.48584  0.11748  1.0000
  H   H34       1.0  0.14787  0.66672  0.47853  1.0000
  H   H35       1.0  0.18178  0.62458  0.44773  1.0000
  C   C30       1.0  0.01004  0.49523  0.16360  1.0000
  H   H36       1.0  0.03407  0.49558  0.11340  1.0000
  H   H37       1.0  0.01879  0.48212  0.09973  1.0000
  S   S33       1.0  0.24217  0.63125  0.27082  1.0000
  H   H38       1.0  0.00754  0.49867  0.18184  1.0000
  C   C31       1.0  0.07502  0.56891  0.14294  1.0000
  C   C32       1.0  0.07212  0.57866  0.15114  1.0000
  C   C33       1.0  0.07865  0.58458  0.16682  1.0000
  C   C34       1.0  0.08821  0.58090  0.17393  1.0000
  C   C35       1.0  0.09113  0.57121  0.16564  1.0000
  C   C36       1.0  0.08459  0.56529  0.15011  1.0000
  H   H39       1.0  0.06464  0.58146  0.14600  1.0000
  H   H40       1.0  0.07602  0.59173  0.17417  1.0000
  H   H41       1.0  0.09847  0.56828  0.17122  1.0000
  H   H42       1.0  0.08706  0.55798  0.14359  1.0000
  C   C37       1.0  0.11978  0.65004  0.01512  1.0000
  C   C38       1.0  0.04819  0.59631  0.19056  1.0000
  C   C39       1.0  0.11722  0.64298  0.07511  1.0000
  C   C40       1.0  0.10851  0.64713  0.06451  1.0000
  C   C41       1.0  0.10983  0.65070  0.03473  1.0000
  H   H43       1.0  0.10093  0.64795  0.07923  1.0000
  C   C42       1.0  0.13610  0.61719  0.23181  1.0000
  C   C43       1.0  0.04633  0.60741  0.19137  1.0000
  C   C44       1.0  0.12376  0.63762  0.31882  1.0000
  C   C45       1.0  0.11793  0.63144  0.30192  1.0000
  C   C46       1.0  0.11383  0.63735  0.27973  1.0000
  H   H44       1.0  0.05859  0.53880  0.22418  1.0000
  H   H45       1.0  0.03075  0.53540  0.09426  1.0000
  H   H46       1.0  0.12691  0.63294  0.33548  1.0000
  H   H47       1.0  0.11662  0.62199  0.30614  1.0000
  H   H48       1.0  0.05655  0.59468  0.19210  1.0000
  H   H49       1.0  0.16700  0.66268  0.46715  1.0000
  C   C47       1.0  0.14093  0.61028  0.40255  1.0000
  C   C48       1.0  0.14284  0.59938  0.39992  1.0000
  C   C49       1.0  0.13772  0.59357  0.38183  1.0000
  C   C50       1.0  0.13046  0.59853  0.36694  1.0000
  C   C51       1.0  0.12871  0.60945  0.36934  1.0000
  C   C52       1.0  0.13406  0.61540  0.38675  1.0000
  H   H50       1.0  0.14827  0.59541  0.41179  1.0000
  H   H51       1.0  0.13944  0.58533  0.37935  1.0000
  H   H52       1.0  0.12311  0.61326  0.35781  1.0000
  H   H53       1.0  0.13273  0.62389  0.38803  1.0000
  H   H54       1.0  0.08210  0.55887  0.29243  1.0000
  C   C53       1.0  0.03603  0.54340  0.09795  1.0000
  H   H55       1.0  0.01093  0.59737  0.27690  1.0000
  H   H56       1.0  0.09350  0.57466  0.46311  1.0000
  H   H57       1.0  0.17380  0.59291  0.44524  1.0000
  H   H58       1.0  0.16682  0.60821  0.41985  1.0000
  C   C54       1.0  0.17950  0.60202  0.43968  1.0000
  C   C55       1.0  0.03916  0.58724  0.18800  1.0000
  H   H59       1.0  0.09889  0.51299  0.20404  1.0000
  C   C56       1.0  0.24161  0.62503  0.24173  1.0000
  H   H60       1.0  0.06581  0.56556  0.21509  1.0000
  C   C57       1.0  0.22729  0.61840  0.45481  1.0000
  H   H61       1.0  0.11176  0.63739  0.37919  1.0000
  C   C58       1.0  0.22717  0.61506  0.98284  1.0000
  H   H62       1.0  0.00535  0.53950  0.15168  1.0000
  H   H63       1.0  0.03437  0.56631  0.10690  1.0000
  H   H64       1.0  0.20752  0.63279  0.41752  1.0000
  H   H65       1.0  0.01401  0.54222  0.11651  1.0000
  H   H66       1.0  0.00423  0.57110  0.24599  1.0000
  C   C59       1.0  0.02812  0.58908  0.18611  1.0000
  S   S34       1.0  0.15604  0.64957  0.37728  1.0000
  C   C60       1.0  0.09377  0.49668  0.16273  1.0000
  H   H67       1.0  0.13668  0.56366  0.45105  1.0000
  C   C61       1.0  0.12715  0.64226  0.05547  1.0000
  C   C62       1.0  0.23449  0.62949  0.43923  1.0000
  H   H68       1.0  0.12769  0.51835  0.14502  1.0000
  C   C63       1.0  0.08878  0.65019  0.31967  1.0000
  H   H69       1.0  0.09600  0.57727  0.41280  1.0000
  C   C64       1.0  0.17838  0.62790  0.37973  1.0000
  C   C65       1.0  0.18396  0.64170  0.42062  1.0000
  C   C66       1.0  0.11354  0.53510  0.12062  1.0000
  C   C67       1.0  0.03526  0.54210  0.13005  1.0000
  H   H70       1.0  0.12153  0.61132  0.26797  1.0000
  H   H71       1.0  0.17783  0.60527  0.45913  1.0000
  H   H72       1.0  0.22204  0.61303  0.44460  1.0000
  H   H73       1.0  0.12351  0.58146  0.27836  1.0000
  C   C68       1.0  0.06165  0.55678  0.23040  1.0000
  H   H74       1.0  0.03182  0.55927  0.15730  1.0000
  H   H75       1.0  0.13606  0.62656  0.23019  1.0000
  C   C69       1.0  0.19579  0.62428  0.39467  1.0000
  H   H76       1.0  0.01837  0.52160  0.13332  1.0000
  H   H77       1.0  0.03377  0.61780  0.18954  1.0000
  H   H78       1.0  0.14529  0.59843  0.23521  1.0000
  H   H79       1.0  0.00653  0.51944  0.16441  1.0000
  H   H80       1.0  0.06121  0.54722  0.31834  1.0000
  H   H81       1.0  0.11185  0.57725  0.22407  1.0000
  H   H82       1.0  0.10638  0.58133  0.26651  1.0000
  N   N1        1.0  0.06575  0.55599  0.25744  1.0000
  C   C70       1.0  0.06474  0.57756  0.25293  1.0000
  H   H83       1.0  0.06278  0.53697  0.26598  1.0000
  H   H84       1.0  0.00347  0.56220  0.28026  1.0000
  H   H85       1.0  0.11385  0.54457  0.11831  1.0000
  C   C71       1.0  0.10314  0.59353  0.29093  1.0000
  H   H86       1.0  0.11418  0.53576  0.46412  1.0000
  C   C72       1.0  0.24285  0.62771  0.19090  1.0000
  H   H87       1.0  0.13340  0.59826  0.20818  1.0000
  H   H88       1.0  0.13925  0.61653  0.20970  1.0000
  H   H89       1.0  0.16901  0.62793  0.38689  1.0000
  H   H90       1.0  0.14616  0.59300  0.27070  1.0000
  H   H91       1.0  0.02891  0.54804  0.20290  1.0000
  N   N2        1.0  0.19713  0.59477  0.26771  1.0000
  C   C73       1.0  0.18661  0.58432  0.28125  1.0000
  C   C74       1.0  0.20791  0.59012  0.26610  1.0000
  C   C75       1.0  0.19638  0.59993  0.23785  1.0000
  C   C76       1.0  0.19677  0.60362  0.28543  1.0000
  C   C77       1.0  0.17445  0.58685  0.28331  1.0000
  C   C78       1.0  0.20930  0.58345  0.29486  1.0000
  C   C79       1.0  0.20667  0.61025  0.21890  1.0000
  C   C80       1.0  0.20856  0.61227  0.28333  1.0000
  H   H92       1.0  0.18695  0.57726  0.26977  1.0000
  H   H93       1.0  0.18657  0.58023  0.30352  1.0000
  H   H94       1.0  0.21606  0.59720  0.25628  1.0000
  H   H95       1.0  0.20806  0.58406  0.25176  1.0000
  H   H96       1.0  0.19546  0.59295  0.22601  1.0000
  H   H97       1.0  0.18847  0.60335  0.23838  1.0000
  H   H98       1.0  0.19056  0.60894  0.28039  1.0000
  H   H99       1.0  0.19326  0.59892  0.30846  1.0000
  H   H100      1.0  0.16760  0.57874  0.29629  1.0000
  H   H101      1.0  0.17339  0.59389  0.29427  1.0000
  H   H102      1.0  0.17256  0.58895  0.26211  1.0000
  H   H103      1.0  0.20774  0.58817  0.31171  1.0000
  H   H104      1.0  0.20335  0.57442  0.30234  1.0000
  H   H105      1.0  0.21839  0.58244  0.29202  1.0000
  H   H106      1.0  0.20522  0.61263  0.19721  1.0000
  H   H107      1.0  0.21519  0.60797  0.21588  1.0000
  H   H108      1.0  0.20709  0.61826  0.22694  1.0000
  H   H109      1.0  0.20691  0.62080  0.28602  1.0000
  H   H110      1.0  0.21530  0.61431  0.26299  1.0000
  H   H111      1.0  0.21225  0.60906  0.30136  1.0000
  N   N3        1.0  0.09704  0.60550  0.06379  1.0000
  C   C81       1.0  0.09303  0.59624  0.04882  1.0000
  C   C82       1.0  0.10422  0.61649  0.04104  1.0000
  C   C83       1.0  0.08621  0.60780  0.08109  1.0000
  C   C84       1.0  0.10413  0.60072  0.08308  1.0000
  C   C85       1.0  0.08484  0.58447  0.06841  1.0000
  C   C86       1.0  0.11520  0.61529  0.02066  1.0000
  C   C87       1.0  0.08702  0.62041  0.08461  1.0000
  C   C88       1.0  0.11083  0.60948  0.09658  1.0000
  H   H112      1.0  0.08842  0.59969  0.03284  1.0000
  H   H113      1.0  0.10061  0.59384  0.03658  1.0000
  H   H114      1.0  0.10734  0.62374  0.05060  1.0000
  H   H115      1.0  0.09868  0.61987  0.02747  1.0000
  H   H116      1.0  0.07869  0.60599  0.07131  1.0000
  H   H117      1.0  0.08315  0.60170  0.10294  1.0000
  H   H118      1.0  0.09841  0.59330  0.10124  1.0000
  H   H119      1.0  0.11068  0.59689  0.07142  1.0000
  H   H120      1.0  0.08187  0.57868  0.05499  1.0000
  H   H121      1.0  0.08944  0.57962  0.08211  1.0000
  H   H122      1.0  0.07683  0.58561  0.08198  1.0000
  H   H123      1.0  0.12526  0.58055  0.19749  1.0000
  C   C89       1.0  0.08232  0.64015  0.40201  1.0000
  Fe  Fe18      1.0  0.13894  0.65455  0.37743  1.0000
  H   H124      1.0  0.08755  0.62666  0.06414  1.0000
  H   H125      1.0  0.09450  0.62380  0.09291  1.0000
  H   H126      1.0  0.07892  0.62044  0.10008  1.0000
  H   H127      1.0  0.11759  0.61677  0.08037  1.0000
  H   H128      1.0  0.11548  0.60478  0.11048  1.0000
  H   H129      1.0  0.10487  0.61302  0.11051  1.0000
  C   C90       1.0  0.09767  0.51027  0.15396  1.0000
  H   H130      1.0  0.01866  0.56133  0.11009  1.0000
  H   H131      1.0  0.17931  0.64615  0.40628  1.0000
  H   H132      1.0  0.12121  0.61180  0.03227  1.0000
  C   C91       1.0  0.23502  0.66105  0.02177  1.0000
  H   H133      1.0  0.01417  0.57601  0.26661  1.0000
  Fe  Fe19      1.0  0.13421  0.65311  0.44280  1.0000
  Fe  Fe20      1.0  0.24247  0.62509  0.06035  1.0000
  H   H134      1.0  0.11563  0.51226  0.22709  1.0000
  S   S35       1.0  0.24844  0.62125  0.34519  1.0000
  H   H135      1.0  0.05036  0.54176  0.28043  1.0000
  C   C92       1.0  0.06141  0.56479  0.27181  1.0000
  C   C93       1.0  0.03531  0.60925  0.18929  1.0000
  H   H136      1.0  0.19769  0.61900  0.43975  1.0000
  C   C94       1.0  0.01331  0.53783  0.13901  1.0000
  S   S36       1.0  0.14330  0.66800  0.40297  1.0000
  H   H137      1.0  0.08079  0.65784  0.40639  1.0000
  H   H138      1.0  0.09786  0.51312  0.13110  1.0000
  H   H139      1.0  0.22077  0.65842  0.05997  1.0000
  H   H140      1.0  0.19777  0.61773  0.38271  1.0000
  S   S37       1.0  0.13168  0.65800  0.33704  1.0000
  N   N4        1.0  0.09025  0.64442  0.37212  1.0000
  C   C95       1.0  0.20277  0.62379  0.41776  1.0000
  H   H141      1.0  0.17228  0.61386  0.35974  1.0000
  H   H142      1.0  0.05166  0.56205  0.27959  1.0000
  H   H143      1.0  0.14167  0.58277  0.25147  1.0000
  N   N5        1.0  0.12136  0.59647  0.24922  1.0000
  S   S38       1.0  0.09740  0.54106  0.43042  1.0000
  H   H144      1.0  0.06455  0.56514  0.29125  1.0000
  H   H145      1.0  0.05731  0.53208  0.31837  1.0000
  C   C96       1.0  0.17649  0.60947  0.41431  1.0000
  C   C97       1.0  0.24116  0.63640  0.45295  1.0000
  N   N6        1.0  0.18269  0.62242  0.40462  1.0000
  H   H146      1.0  0.23649  0.65429  0.01003  1.0000
  H   H147      1.0  0.10320  0.59402  0.24717  1.0000
  C   C98       1.0  0.12357  0.60953  0.24656  1.0000
  H   H148      1.0  0.09607  0.66340  0.36320  1.0000
  H   H149      1.0  0.04527  0.54443  0.08651  1.0000
  H   H150      1.0  0.10247  0.60277  0.28801  1.0000
  H   H151      1.0  0.11280  0.65440  0.25790  1.0000
  H   H152      1.0  0.12798  0.59506  0.28683  1.0000
  H   H153      1.0  0.00727  0.61062  0.22029  1.0000
  C   C99       1.0  0.06009  0.54371  0.27645  1.0000
  C   C100      1.0  0.02427  0.55537  0.14954  1.0000
  C   C101      1.0  0.11577  0.64961  0.27484  1.0000
  C   C102      1.0  0.12835  0.64559  0.02572  1.0000
  H   H154      1.0  0.07213  0.54017  0.30304  1.0000
  C   C103      1.0  0.10839  0.59107  0.26226  1.0000
  H   H155      1.0  0.18229  0.64481  0.44037  1.0000
  C   C104      1.0  0.10351  0.63046  0.38334  1.0000
  C   C105      1.0  0.02237  0.53577  0.17882  1.0000
  C   C106      1.0  0.08265  0.64684  0.35192  1.0000
  H   H156      1.0  0.08535  0.57309  0.26746  1.0000
  H   H157      1.0  0.09477  0.56358  0.26324  1.0000
  C   C107      1.0  0.03129  0.54069  0.19459  1.0000
  C   C108      1.0  0.12537  0.64982  0.31448  1.0000
  H   H158      1.0  0.11457  0.66175  0.38430  1.0000
  H   H159      1.0  0.11762  0.61320  0.23495  1.0000
  H   H160      1.0  0.01343  0.53487  0.19230  1.0000
  H   H161      1.0  0.02298  0.52660  0.17923  1.0000
  C   C109      1.0  0.08546  0.56374  0.26969  1.0000
  C   C110      1.0  0.00504  0.57144  0.26771  1.0000
  H   H162      1.0  0.05887  0.57862  0.23849  1.0000
  H   H163      1.0  0.11913  0.59869  0.20631  1.0000
  S   S39       1.0  0.22641  0.60180  0.39557  1.0000
  H   H164      1.0  0.03731  0.53356  0.13781  1.0000
  H   H165      1.0  0.04036  0.54377  0.18075  1.0000
  C   C111      1.0  0.24340  0.63245  0.21446  1.0000
  H   H166      1.0  0.03113  0.53365  0.21326  1.0000
  H   H167      1.0  0.19985  0.63306  0.37915  1.0000
  C   C112      1.0  0.17936  0.62209  0.35453  1.0000
  H   H168      1.0  0.07871  0.53877  0.47930  1.0000
  H   H169      1.0  0.02422  0.57263  0.12568  1.0000
  H   H170      1.0  0.09741  0.56237  0.45386  1.0000
  H   H171      1.0  0.07394  0.58034  0.23978  1.0000
  H   H172      1.0  0.03344  0.55118  0.08772  1.0000
  H   H173      1.0  0.10817  0.59149  0.30685  1.0000
  C   C113      1.0  0.22186  0.65758  0.03769  1.0000
  C   C114      1.0  0.09814  0.53612  0.98732  1.0000
  H   H174      1.0  0.18803  0.62026  0.34802  1.0000
  C   C115      1.0  0.10104  0.57187  0.45227  1.0000
  C   C116      1.0  0.07894  0.55831  0.24982  1.0000
  C   C117      1.0  0.24047  0.61551  0.19461  1.0000
  H   H175      1.0  0.24740  0.58875  0.99221  1.0000
  C   C118      1.0  0.00892  0.60999  0.24171  1.0000
  H   H176      1.0  0.06242  0.55040  0.19244  1.0000
  C   C119      1.0  0.11699  0.51738  0.20472  1.0000
  H   H177      1.0  0.08296  0.56431  0.22810  1.0000
  C   C120      1.0  0.14094  0.59145  0.25510  1.0000
  H   H178      1.0  0.13400  0.63917  0.06336  1.0000
  H   H179      1.0  0.10774  0.58811  0.41669  1.0000
  C   C121      1.0  0.10720  0.51161  0.19233  1.0000
  C   C122      1.0  0.12139  0.65573  0.29212  1.0000
  H   H180      1.0  0.12262  0.66517  0.28814  1.0000
  C   C123      1.0  0.10403  0.51792  0.99277  1.0000
  H   H181      1.0  0.12511  0.57580  0.23437  1.0000
  H   H182      1.0  0.07507  0.63905  0.35598  1.0000
  C   C124      1.0  0.02632  0.60022  0.18649  1.0000
  H   H183      1.0  0.10668  0.53159  0.11050  1.0000
  H   H184      1.0  0.12225  0.53473  0.10864  1.0000
  C   C125      1.0  0.01050  0.52446  0.14178  1.0000
  H   H185      1.0  0.17810  0.62811  0.33577  1.0000
  H   H186      1.0  0.13595  0.66801  0.03740  1.0000
  H   H187      1.0  0.08849  0.62679  0.36627  1.0000
  C   C126      1.0  0.11099  0.52893  0.15260  1.0000
  C   C127      1.0  0.02541  0.56420  0.12113  1.0000
  C   C128      1.0  0.10411  0.57850  0.42042  1.0000
  H   H188      1.0  0.18324  0.63732  0.37042  1.0000
  H   H189      1.0  0.04276  0.54888  0.13151  1.0000
  H   H190      1.0  0.24677  0.64498  0.44096  1.0000
  H   H191      1.0  0.09008  0.49327  0.18619  1.0000
  S   S40       1.0  0.15058  0.64751  0.44624  1.0000
  H   H192      1.0  0.11633  0.55968  0.44829  1.0000
  C   C129      1.0  0.12802  0.59097  0.26863  1.0000
  C   C130      1.0  0.06431  0.54778  0.21350  1.0000
  H   H193      1.0  0.17846  0.60510  0.39687  1.0000
  N   N7        1.0  0.02393  0.54281  0.14861  1.0000
  H   H194      1.0  0.04077  0.57874  0.18748  1.0000
  H   H195      1.0  0.12921  0.51420  0.10180  1.0000
  H   H196      1.0  0.00349  0.61455  0.25411  1.0000
  H   H197      1.0  0.11728  0.50150  0.11458  1.0000
  H   H198      1.0  0.09038  0.51338  0.16513  1.0000
  H   H199      1.0  0.12123  0.59097  0.44215  1.0000
  H   H200      1.0  0.11486  0.51584  0.10292  1.0000
  H   H201      1.0  0.10764  0.51160  0.98358  1.0000
  S   S41       1.0  0.23904  0.60920  0.16604  1.0000
  H   H202      1.0  0.19352  0.64461  0.41066  1.0000
  H   H203      1.0  0.11964  0.50334  0.15803  1.0000
  H   H204      1.0  0.12017  0.62417  0.00678  1.0000
  H   H205      1.0  0.24458  0.63911  0.99305  1.0000
  H   H206      1.0  0.20972  0.61923  0.41217  1.0000
  H   H207      1.0  0.07878  0.65425  0.35542  1.0000
  H   H208      1.0  0.10622  0.50195  0.19906  1.0000
  C   C131      1.0  0.17918  0.62819  0.42827  1.0000
  C   C132      1.0  0.24700  0.59547  0.44817  1.0000
  H   H209      1.0  0.24179  0.65466  0.26344  1.0000
  H   H210      1.0  0.11654  0.52643  0.20591  1.0000
  H   H211      1.0  0.11022  0.57488  0.40690  1.0000
  C   C133      1.0  0.00434  0.48288  0.13253  1.0000
  N   N8        1.0  0.10896  0.51572  0.16037  1.0000
  C   C134      1.0  0.15968  0.66944  0.01009  1.0000
  H   H212      1.0  0.10095  0.49264  0.15564  1.0000
  H   H213      1.0  0.18865  0.60125  0.43376  1.0000
  H   H214      1.0  0.16945  0.62625  0.43547  1.0000
  H   H215      1.0  0.10514  0.64846  0.40758  1.0000
  Fe  Fe21      1.0  0.15970  0.66184  0.40567  1.0000
  H   H216      1.0  0.11865  0.53326  0.15932  1.0000
  H   H217      1.0  0.12585  0.51751  0.19264  1.0000
  H   H218      1.0  0.10318  0.65419  0.02684  1.0000
  H   H219      1.0  0.21820  0.64806  0.03981  1.0000
  C   C135      1.0  0.09552  0.63467  0.36508  1.0000
  H   H220      1.0  0.23653  0.66552  0.22396  1.0000
  C   C136      1.0  0.11645  0.58603  0.46451  1.0000
  C   C137      1.0  0.12029  0.56849  0.45108  1.0000
  H   H221      1.0  0.08717  0.63803  0.41828  1.0000
  H   H222      1.0  0.11290  0.60986  0.00600  1.0000
  H   H223      1.0  0.21632  0.66234  0.02723  1.0000
  H   H224      1.0  0.24404  0.60240  0.99095  1.0000
  C   C138      1.0  0.24453  0.66438  0.25977  1.0000
  H   H225      1.0  0.15169  0.66195  0.01886  1.0000
  H   H226      1.0  0.23707  0.59868  0.22465  1.0000
  H   H227      1.0  0.10102  0.63740  0.34278  1.0000
  C   C139      1.0  0.24757  0.59562  0.47892  1.0000
  H   H228      1.0  0.24405  0.63347  0.17002  1.0000
  Fe  Fe22      1.0  0.24539  0.62135  0.12159  1.0000
  H   H229      1.0  0.23976  0.65986  0.03879  1.0000
  C   C140      1.0  0.09966  0.65557  0.36784  1.0000
  H   H230      1.0  0.23904  0.64962  0.31279  1.0000
  C   C141      1.0  0.09663  0.53772  0.46783  1.0000
  C   C142      1.0  0.10833  0.59321  0.47650  1.0000
  H   H231      1.0  0.01819  0.61496  0.23794  1.0000
  H   H232      1.0  0.23704  0.66659  0.27294  1.0000
  H   H233      1.0  0.01377  0.59390  0.24332  1.0000
  H   H234      1.0  0.10690  0.65676  0.34867  1.0000
  C   C143      1.0  0.16933  0.66455  0.99457  1.0000
  H   H235      1.0  0.24609  0.58646  0.44500  1.0000
  C   C144      1.0  0.10605  0.53552  0.47866  1.0000
  H   H236      1.0  0.08281  0.65339  0.30733  1.0000
  C   C145      1.0  0.00751  0.59713  0.25765  1.0000
  N   N9        1.0  0.11097  0.57330  0.46660  1.0000
  H   H237      1.0  0.24242  0.65482  0.34231  1.0000
  H   H238      1.0  0.07149  0.64575  0.43494  1.0000
  C   C146      1.0  0.13046  0.56708  0.46496  1.0000
  S   S42       1.0  0.12078  0.65422  0.48154  1.0000
  H   H239      1.0  0.12348  0.58673  0.47598  1.0000
  H   H240      1.0  0.09694  0.65737  0.31381  1.0000
  H   H241      1.0  0.23926  0.59850  0.44395  1.0000
  C   C147      1.0  0.07528  0.64871  0.41142  1.0000
  H   H242      1.0  0.10116  0.66230  0.40555  1.0000
  H   H243      1.0  0.13552  0.57559  0.46680  1.0000
  H   H244      1.0  0.00395  0.52202  0.12978  1.0000
  C   C148      1.0  0.24081  0.63211  0.48193  1.0000
  C   C149      1.0  0.24482  0.66978  0.22837  1.0000
  H   H245      1.0  0.23545  0.65601  0.48188  1.0000
  S   S43       1.0  0.14710  0.61617  0.93397  1.0000
  S   S44       1.0  0.12998  0.63991  0.91697  1.0000
  Fe  Fe23      1.0  0.07973  0.52853  0.60552  1.0000
  S   S45       1.0  0.07081  0.51358  0.64574  1.0000
  S   S46       1.0  0.09339  0.52851  0.56544  1.0000
  Fe  Fe24      1.0  0.06986  0.54586  0.63276  1.0000
  S   S47       1.0  0.05993  0.53244  0.67347  1.0000
  S   S48       1.0  0.06891  0.56457  0.62917  1.0000
  Fe  Fe25      1.0  0.07661  0.52661  0.67109  1.0000
  S   S49       1.0  0.08303  0.52266  0.71261  1.0000
  Fe  Fe26      1.0  0.05466  0.52058  0.64555  1.0000
  S   S50       1.0  0.03466  0.51135  0.65961  1.0000
  S   S51       1.0  0.08669  0.54064  0.63101  1.0000
  S   S52       1.0  0.06345  0.53490  0.60465  1.0000
  Fe  Fe27      1.0  0.07672  0.62157  0.69172  1.0000
  S   S53       1.0  0.08791  0.61379  0.66285  1.0000
  S   S54       1.0  0.05764  0.62033  0.68816  1.0000
  Fe  Fe28      1.0  0.09677  0.62837  0.72279  1.0000
  S   S55       1.0  0.10870  0.62066  0.69513  1.0000
  S   S56       1.0  0.10108  0.63286  0.76408  1.0000
  Fe  Fe29      1.0  0.10283  0.62936  0.65730  1.0000
  S   S57       1.0  0.11731  0.63546  0.61486  1.0000
  Fe  Fe30      1.0  0.09285  0.60594  0.70228  1.0000
  S   S58       1.0  0.09357  0.58710  0.71273  1.0000
  S   S59       1.0  0.09152  0.63811  0.68445  1.0000
  S   S60       1.0  0.08099  0.61279  0.73170  1.0000
  C   C150      1.0  0.22251  0.64611  0.53468  1.0000
  H   H246      1.0  0.17622  0.55378  0.89037  1.0000
  H   H247      1.0  0.24886  0.65887  0.49224  1.0000
  Fe  Fe31      1.0  0.11762  0.57031  0.86836  1.0000
  S   S61       1.0  0.10312  0.55438  0.87294  1.0000
  S   S62       1.0  0.11514  0.58815  0.87043  1.0000
  Fe  Fe32      1.0  0.13725  0.55894  0.85190  1.0000
  S   S63       1.0  0.12431  0.54181  0.85507  1.0000
  S   S64       1.0  0.15731  0.56312  0.83670  1.0000
  Fe  Fe33      1.0  0.11398  0.55247  0.83175  1.0000
  S   S65       1.0  0.10735  0.55248  0.79050  1.0000
  Fe  Fe34      1.0  0.11417  0.54480  0.89602  1.0000
  C   C151      1.0  0.23465  0.63050  0.93855  1.0000
  S   S66       1.0  0.12772  0.56930  0.82614  1.0000
  S   S67       1.0  0.12792  0.56100  0.89382  1.0000
  Fe  Fe35      1.0  0.24338  0.60363  0.85778  1.0000
  H   H248      1.0  0.10734  0.60782  0.62690  1.0000
  Fe  Fe36      1.0  0.21688  0.60196  0.86339  1.0000
  S   S68       1.0  0.22065  0.62168  0.84728  1.0000
  S   S69       1.0  0.19731  0.59238  0.88172  1.0000
  Fe  Fe37      1.0  0.23566  0.62004  0.81421  1.0000
  H   H249      1.0  0.21153  0.65220  0.77305  1.0000
  Fe  Fe38      1.0  0.23299  0.62272  0.87563  1.0000
  C   C152      1.0  0.18139  0.62377  0.94226  1.0000
  S   S70       1.0  0.23143  0.60026  0.82873  1.0000
  H   H250      1.0  0.13673  0.52007  0.86758  1.0000
  S   S71       1.0  0.10764  0.52970  0.93700  1.0000
  H   H251      1.0  0.17388  0.53817  0.90067  1.0000
  S   S72       1.0  0.23611  0.62908  0.59863  1.0000
  H   H252      1.0  0.16660  0.63105  0.95414  1.0000
  H   H253      1.0  0.17483  0.61507  0.94818  1.0000
  C   C153      1.0  0.20425  0.64467  0.91709  1.0000
  H   H254      1.0  0.12857  0.52076  0.90122  1.0000
  C   C154      1.0  0.24075  0.62465  0.73993  1.0000
  H   H255      1.0  0.01881  0.60311  0.67437  1.0000
  H   H256      1.0  0.13219  0.53786  0.91750  1.0000
  C   C155      1.0  0.24140  0.61445  0.69320  1.0000
  C   C156      1.0  0.23796  0.60732  0.72130  1.0000
  C   C157      1.0  0.23764  0.61239  0.74460  1.0000
  C   C158      1.0  0.24925  0.59776  0.97801  1.0000
  H   H257      1.0  0.22735  0.65931  0.55603  1.0000
  S   S73       1.0  0.24841  0.62321  0.84085  1.0000
  C   C159      1.0  0.00521  0.48875  0.63050  1.0000
  C   C160      1.0  0.13719  0.54228  0.95321  1.0000
  H   H258      1.0  0.14903  0.66298  0.52543  1.0000
  C   C161      1.0  0.23347  0.62106  0.49752  1.0000
  C   C162      1.0  0.23159  0.65678  0.53692  1.0000
  H   H259      1.0  0.15931  0.54695  0.92967  1.0000
  H   H260      1.0  0.09319  0.57459  0.51443  1.0000
  C   C163      1.0  0.08345  0.60303  0.60027  1.0000
  H   H261      1.0  0.22091  0.60576  0.49586  1.0000
  H   H262      1.0  0.00397  0.47709  0.70263  1.0000
  C   C164      1.0  0.16823  0.57195  0.84853  1.0000
  C   C165      1.0  0.18003  0.57506  0.83273  1.0000
  C   C166      1.0  0.18902  0.58156  0.84205  1.0000
  C   C167      1.0  0.18634  0.58489  0.86762  1.0000
  C   C168      1.0  0.17452  0.58186  0.88330  1.0000
  C   C169      1.0  0.16553  0.57552  0.87376  1.0000
  H   H263      1.0  0.18227  0.57231  0.81324  1.0000
  H   H264      1.0  0.19805  0.58374  0.82976  1.0000
  H   H265      1.0  0.17888  0.66320  0.48328  1.0000
  H   H266      1.0  0.15653  0.57320  0.88628  1.0000
  C   C170      1.0  0.10087  0.54388  0.76892  1.0000
  C   C171      1.0  0.09651  0.53159  0.77788  1.0000
  C   C172      1.0  0.09126  0.52530  0.76035  1.0000
  C   C173      1.0  0.09022  0.53110  0.73346  1.0000
  C   C174      1.0  0.09460  0.54338  0.72449  1.0000
  C   C175      1.0  0.09982  0.54969  0.74201  1.0000
  H   H267      1.0  0.09717  0.52689  0.79837  1.0000
  H   H268      1.0  0.08796  0.51582  0.76775  1.0000
  H   H269      1.0  0.09398  0.54798  0.70390  1.0000
  H   H270      1.0  0.10310  0.55917  0.73459  1.0000
  C   C176      1.0  0.09432  0.53214  0.52799  1.0000
  C   C177      1.0  0.10485  0.53266  0.50850  1.0000
  H   H271      1.0  0.22064  0.66168  0.98116  1.0000
  H   H272      1.0  0.11475  0.61997  0.53424  1.0000
  H   H273      1.0  0.21655  0.66448  0.74250  1.0000
  C   C178      1.0  0.08497  0.53453  0.51711  1.0000
  H   H274      1.0  0.11214  0.53076  0.51658  1.0000
  C   C179      1.0  0.03590  0.61047  0.68039  1.0000
  H   H275      1.0  0.17180  0.63377  0.91648  1.0000
  H   H276      1.0  0.07678  0.53409  0.53170  1.0000
  C   C180      1.0  0.02354  0.50284  0.64724  1.0000
  C   C181      1.0  0.02618  0.49791  0.62416  1.0000
  C   C182      1.0  0.01710  0.49091  0.61600  1.0000
  C   C183      1.0  0.22809  0.61910  0.95356  1.0000
  H   H277      1.0  0.09721  0.54399  0.97378  1.0000
  C   C184      1.0  0.01162  0.50078  0.66160  1.0000
  H   H278      1.0  0.03524  0.49934  0.61282  1.0000
  H   H279      1.0  0.01936  0.48706  0.59833  1.0000
  S   S74       1.0  0.15076  0.64747  0.94942  1.0000
  H   H280      1.0  0.00938  0.50453  0.67943  1.0000
  C   C185      1.0  0.07542  0.57035  0.65354  1.0000
  C   C186      1.0  0.07150  0.57914  0.66431  1.0000
  C   C187      1.0  0.07681  0.58396  0.68347  1.0000
  C   C188      1.0  0.08620  0.58022  0.69127  1.0000
  C   C189      1.0  0.09004  0.57137  0.68075  1.0000
  C   C190      1.0  0.08459  0.56637  0.66209  1.0000
  H   H281      1.0  0.06435  0.58221  0.65793  1.0000
  H   H282      1.0  0.07369  0.59063  0.69218  1.0000
  H   H283      1.0  0.09744  0.56861  0.68648  1.0000
  H   H284      1.0  0.08777  0.55969  0.65374  1.0000
  N   N10       1.0  0.10499  0.60133  0.59019  1.0000
  C   C191      1.0  0.24051  0.63777  0.95297  1.0000
  C   C192      1.0  0.11778  0.64028  0.57792  1.0000
  C   C193      1.0  0.10842  0.64352  0.56856  1.0000
  C   C194      1.0  0.10943  0.64762  0.53904  1.0000
  H   H285      1.0  0.10051  0.64314  0.58409  1.0000
  H   H286      1.0  0.22856  0.65949  0.70334  1.0000
  H   H287      1.0  0.13897  0.51180  0.89934  1.0000
  H   H288      1.0  0.01148  0.54506  0.60238  1.0000
  C   C195      1.0  0.10821  0.63738  0.81204  1.0000
  C   C196      1.0  0.11170  0.63870  0.78224  1.0000
  C   C197      1.0  0.12345  0.64449  0.76812  1.0000
  C   C198      1.0  0.13138  0.64899  0.78335  1.0000
  C   C199      1.0  0.13728  0.52026  0.88963  1.0000
  H   H289      1.0  0.13211  0.66970  0.52941  1.0000
  H   H290      1.0  0.12639  0.64571  0.74530  1.0000
  H   H291      1.0  0.24561  0.64661  0.94145  1.0000
  C   C200      1.0  0.13797  0.60823  0.91709  1.0000
  C   C201      1.0  0.13498  0.59589  0.92468  1.0000
  C   C202      1.0  0.12778  0.58959  0.91085  1.0000
  C   C203      1.0  0.12349  0.59563  0.88961  1.0000
  C   C204      1.0  0.12627  0.60794  0.88261  1.0000
  C   C205      1.0  0.13372  0.61421  0.89575  1.0000
  H   H292      1.0  0.13820  0.59120  0.94123  1.0000
  H   H293      1.0  0.12538  0.58010  0.91706  1.0000
  H   H294      1.0  0.12290  0.61270  0.86643  1.0000
  H   H295      1.0  0.13632  0.62370  0.88887  1.0000
  C   C206      1.0  0.02691  0.60133  0.67790  1.0000
  H   H296      1.0  0.11445  0.60509  0.53144  1.0000
  N   N11       1.0  0.03185  0.55109  0.63122  1.0000
  C   C207      1.0  0.03411  0.55203  0.65974  1.0000
  C   C208      1.0  0.04162  0.56010  0.60832  1.0000
  C   C209      1.0  0.03207  0.53883  0.62844  1.0000
  C   C210      1.0  0.02003  0.55332  0.63087  1.0000
  H   H297      1.0  0.20856  0.61980  0.91510  1.0000
  C   C211      1.0  0.04317  0.57300  0.61016  1.0000
  C   C212      1.0  0.03422  0.53685  0.59815  1.0000
  C   C213      1.0  0.01626  0.55394  0.60275  1.0000
  H   H298      1.0  0.04341  0.55211  0.65951  1.0000
  H   H299      1.0  0.03286  0.56047  0.66427  1.0000
  H   H300      1.0  0.04075  0.55999  0.58657  1.0000
  H   H301      1.0  0.05008  0.55781  0.60858  1.0000
  H   H302      1.0  0.03921  0.53609  0.63710  1.0000
  H   H303      1.0  0.02376  0.53229  0.64154  1.0000
  H   H304      1.0  0.01300  0.54625  0.64725  1.0000
  H   H305      1.0  0.01915  0.56144  0.63776  1.0000
  H   H306      1.0  0.23555  0.59783  0.72509  1.0000
  H   H307      1.0  0.21928  0.63959  0.55590  1.0000
  H   H308      1.0  0.01784  0.47430  0.69228  1.0000
  H   H309      1.0  0.03500  0.57590  0.61046  1.0000
  H   H310      1.0  0.04637  0.57444  0.62898  1.0000
  H   H311      1.0  0.04998  0.57883  0.59107  1.0000
  C   C214      1.0  0.21835  0.66065  0.76300  1.0000
  H   H312      1.0  0.18375  0.60751  0.91124  1.0000
  S   S75       1.0  0.18022  0.66944  0.90988  1.0000
  H   H313      1.0  0.16429  0.65731  0.50555  1.0000
  H   H314      1.0  0.02346  0.55772  0.58316  1.0000
  C   C215      1.0  0.15219  0.52289  0.93209  1.0000
  N   N12       1.0  0.10208  0.59088  0.79614  1.0000
  C   C216      1.0  0.10814  0.58460  0.77643  1.0000
  C   C217      1.0  0.09644  0.58191  0.82445  1.0000
  C   C218      1.0  0.11135  0.60057  0.79992  1.0000
  C   C219      1.0  0.09341  0.59589  0.78262  1.0000
  C   C220      1.0  0.11631  0.59241  0.74763  1.0000
  C   C221      1.0  0.08678  0.57137  0.82403  1.0000
  C   C222      1.0  0.10719  0.60803  0.81984  1.0000
  C   C223      1.0  0.08350  0.59910  0.80245  1.0000
  H   H315      1.0  0.11351  0.57948  0.78708  1.0000
  H   H316      1.0  0.10161  0.57796  0.77104  1.0000
  H   H317      1.0  0.09264  0.58579  0.84140  1.0000
  H   H318      1.0  0.10319  0.57821  0.83279  1.0000
  H   H319      1.0  0.11815  0.59684  0.80793  1.0000
  H   H320      1.0  0.11591  0.60710  0.77913  1.0000
  H   H321      1.0  0.09808  0.60397  0.76508  1.0000
  H   H322      1.0  0.08900  0.58963  0.77193  1.0000
  H   H323      1.0  0.12474  0.59719  0.75041  1.0000
  H   H324      1.0  0.11844  0.58668  0.73333  1.0000
  H   H325      1.0  0.11216  0.59874  0.73655  1.0000
  H   H326      1.0  0.09054  0.56535  0.81286  1.0000
  H   H327      1.0  0.08239  0.56614  0.84635  1.0000
  H   H328      1.0  0.07998  0.57417  0.81429  1.0000
  H   H329      1.0  0.10163  0.61331  0.81102  1.0000
  H   H330      1.0  0.11498  0.61444  0.82133  1.0000
  C   C224      1.0  0.24418  0.63176  0.71177  1.0000
  H   H331      1.0  0.08349  0.60840  0.79365  1.0000
  H   H332      1.0  0.08407  0.59835  0.82466  1.0000
  H   H333      1.0  0.07481  0.59362  0.80286  1.0000
  C   C225      1.0  0.12802  0.64092  0.55726  1.0000
  C   C226      1.0  0.09656  0.60884  0.58527  1.0000
  H   H334      1.0  0.21279  0.64288  0.91888  1.0000
  H   H335      1.0  0.17230  0.58437  0.90312  1.0000
  C   C227      1.0  0.10090  0.58988  0.58264  1.0000
  C   C228      1.0  0.17466  0.63328  0.93641  1.0000
  S   S76       1.0  0.22845  0.60321  0.89407  1.0000
  H   H336      1.0  0.15480  0.55193  0.89862  1.0000
  H   H337      1.0  0.10225  0.65040  0.53215  1.0000
  S   S77       1.0  0.15810  0.64766  0.88195  1.0000
  H   H338      1.0  0.24762  0.59105  0.94007  1.0000
  H   H339      1.0  0.05644  0.59548  0.68855  1.0000
  H   H340      1.0  0.08001  0.59494  0.59383  1.0000
  N   N13       1.0  0.15272  0.60476  0.80598  1.0000
  C   C229      1.0  0.15040  0.59529  0.83331  1.0000
  C   C230      1.0  0.14780  0.59896  0.78513  1.0000
  C   C231      1.0  0.14628  0.61380  0.81301  1.0000
  C   C232      1.0  0.16577  0.61012  0.79561  1.0000
  C   C233      1.0  0.15487  0.59932  0.85772  1.0000
  C   C234      1.0  0.15402  0.59002  0.77459  1.0000
  C   C235      1.0  0.14358  0.62197  0.78821  1.0000
  C   C236      1.0  0.17044  0.61888  0.76580  1.0000
  H   H341      1.0  0.14082  0.59099  0.84183  1.0000
  H   H342      1.0  0.15455  0.58811  0.82963  1.0000
  H   H343      1.0  0.14791  0.60546  0.76558  1.0000
  H   H344      1.0  0.13835  0.59437  0.79467  1.0000
  H   H345      1.0  0.13757  0.60934  0.82827  1.0000
  H   H346      1.0  0.15111  0.61965  0.82393  1.0000
  H   H347      1.0  0.16887  0.61505  0.81058  1.0000
  H   H348      1.0  0.17067  0.60317  0.79627  1.0000
  H   H349      1.0  0.15197  0.60702  0.86255  1.0000
  H   H350      1.0  0.15131  0.59206  0.87754  1.0000
  H   H351      1.0  0.16455  0.60120  0.85312  1.0000
  H   H352      1.0  0.15306  0.58211  0.79186  1.0000
  H   H353      1.0  0.14990  0.58679  0.75855  1.0000
  H   H354      1.0  0.16345  0.59405  0.76391  1.0000
  H   H355      1.0  0.13673  0.61714  0.77984  1.0000
  H   H356      1.0  0.15141  0.62678  0.77061  1.0000
  H   H357      1.0  0.13989  0.62872  0.79658  1.0000
  H   H358      1.0  0.17104  0.62807  0.76747  1.0000
  H   H359      1.0  0.16527  0.61704  0.75046  1.0000
  H   H360      1.0  0.17936  0.61825  0.75595  1.0000
  H   H361      1.0  0.19569  0.59996  0.93461  1.0000
  S   S78       1.0  0.23520  0.63597  0.90219  1.0000
  H   H362      1.0  0.11012  0.58261  0.63094  1.0000
  H   H363      1.0  0.03378  0.52736  0.60006  1.0000
  S   S79       1.0  0.14554  0.66741  0.90014  1.0000
  S   S80       1.0  0.24225  0.60781  0.66441  1.0000
  H   H364      1.0  0.24660  0.64122  0.70780  1.0000
  H   H365      1.0  0.09606  0.59460  0.63512  1.0000
  H   H366      1.0  0.10594  0.57338  0.58434  1.0000
  H   H367      1.0  0.23898  0.65340  0.54267  1.0000
  H   H368      1.0  0.23494  0.60680  0.76612  1.0000
  C   C237      1.0  0.10495  0.59925  0.62132  1.0000
  N   N14       1.0  0.14868  0.53317  0.91622  1.0000
  C   C238      1.0  0.12890  0.64469  0.52774  1.0000
  H   H369      1.0  0.12387  0.60375  0.57544  1.0000
  Fe  Fe39      1.0  0.14654  0.63513  0.92247  1.0000
  S   S81       1.0  0.01742  0.57788  0.67734  1.0000
  H   H370      1.0  0.20342  0.62390  0.94698  1.0000
  H   H371      1.0  0.11299  0.58420  0.55179  1.0000
  N   N15       1.0  0.05914  0.54731  0.75116  1.0000
  C   C239      1.0  0.06295  0.53613  0.75012  1.0000
  C   C240      1.0  0.07000  0.55667  0.74907  1.0000
  C   C241      1.0  0.05477  0.55062  0.72489  1.0000
  C   C242      1.0  0.04972  0.54506  0.77829  1.0000
  C   C243      1.0  0.05317  0.52473  0.75557  1.0000
  C   C244      1.0  0.07471  0.55574  0.77598  1.0000
  C   C245      1.0  0.04931  0.56118  0.72197  1.0000
  C   C246      1.0  0.04675  0.55596  0.78728  1.0000
  H   H372      1.0  0.06903  0.53729  0.72894  1.0000
  H   H373      1.0  0.06802  0.53406  0.76600  1.0000
  H   H374      1.0  0.06886  0.56569  0.74313  1.0000
  H   H375      1.0  0.07729  0.55657  0.73133  1.0000
  H   H376      1.0  0.06206  0.55250  0.70528  1.0000
  H   H377      1.0  0.04793  0.54321  0.72336  1.0000
  H   H378      1.0  0.04139  0.53944  0.77682  1.0000
  H   H379      1.0  0.05210  0.53980  0.79657  1.0000
  H   H380      1.0  0.04781  0.52520  0.73992  1.0000
  H   H381      1.0  0.05739  0.51744  0.75329  1.0000
  H   H382      1.0  0.04745  0.52213  0.77763  1.0000
  H   H383      1.0  0.06862  0.55722  0.79408  1.0000
  H   H384      1.0  0.07690  0.54728  0.78298  1.0000
  H   H385      1.0  0.08302  0.56274  0.77074  1.0000
  H   H386      1.0  0.04058  0.55900  0.73721  1.0000
  H   H387      1.0  0.04784  0.56322  0.70027  1.0000
  H   H388      1.0  0.05502  0.56931  0.72384  1.0000
  H   H389      1.0  0.03757  0.55604  0.78705  1.0000
  H   H390      1.0  0.05250  0.56454  0.77392  1.0000
  H   H391      1.0  0.04735  0.55550  0.80958  1.0000
  H   H392      1.0  0.14032  0.65363  0.77184  1.0000
  C   C247      1.0  0.09452  0.56576  0.51444  1.0000
  H   H393      1.0  0.14035  0.55171  0.94119  1.0000
  H   H394      1.0  0.15985  0.52118  0.91827  1.0000
  C   C248      1.0  0.00857  0.46999  0.70440  1.0000
  C   C249      1.0  0.23737  0.66574  0.69501  1.0000
  H   H395      1.0  0.00836  0.60410  0.77244  1.0000
  H   H396      1.0  0.22047  0.66587  0.49564  1.0000
  H   H397      1.0  0.13531  0.63844  0.56420  1.0000
  C   C250      1.0  0.12792  0.64756  0.81320  1.0000
  H   H398      1.0  0.00134  0.58928  0.71850  1.0000
  H   H399      1.0  0.00995  0.57514  0.74312  1.0000
  H   H400      1.0  0.17048  0.61855  0.89705  1.0000
  N   N16       1.0  0.19179  0.62417  0.91871  1.0000
  H   H401      1.0  0.01389  0.61447  0.71006  1.0000
  H   H402      1.0  0.14395  0.66782  0.98014  1.0000
  H   H403      1.0  0.08761  0.56073  0.50655  1.0000
  H   H404      1.0  0.00464  0.46506  0.66803  1.0000
  C   C251      1.0  0.24445  0.62670  0.68850  1.0000
  C   C252      1.0  0.22663  0.61431  0.48391  1.0000
  H   H405      1.0  0.21474  0.64851  0.52893  1.0000
  H   H406      1.0  0.11244  0.59165  0.65455  1.0000
  S   S82       1.0  0.24050  0.63138  0.76861  1.0000
  H   H407      1.0  0.09724  0.59153  0.56368  1.0000
  H   H408      1.0  0.22641  0.64141  0.51973  1.0000
  H   H409      1.0  0.12240  0.59577  0.62025  1.0000
  H   H410      1.0  0.10666  0.55669  0.49854  1.0000
  H   H411      1.0  0.02858  0.54418  0.70559  1.0000
  C   C253      1.0  0.00329  0.59073  0.73881  1.0000
  H   H412      1.0  0.15542  0.52949  0.87559  1.0000
  C   C254      1.0  0.02634  0.54219  0.68613  1.0000
  H   H413      1.0  0.11315  0.56900  0.50973  1.0000
  H   H414      1.0  0.09920  0.63301  0.82347  1.0000
  C   C255      1.0  0.11014  0.58296  0.57525  1.0000
  C   C256      1.0  0.04666  0.60849  0.68440  1.0000
  H   H415      1.0  0.03457  0.61919  0.67895  1.0000
  C   C257      1.0  0.11304  0.59190  0.63170  1.0000
  Fe  Fe40      1.0  0.13510  0.65337  0.94090  1.0000
  C   C258      1.0  0.24391  0.59675  0.95251  1.0000
  C   C259      1.0  0.11705  0.60844  0.57241  1.0000
  H   H416      1.0  0.24499  0.60548  0.93800  1.0000
  C   C260      1.0  0.04828  0.59719  0.68556  1.0000
  C   C261      1.0  0.25010  0.58872  0.53933  1.0000
  H   H417      1.0  0.18224  0.62996  0.87039  1.0000
  C   C262      1.0  0.20047  0.61898  0.93186  1.0000
  H   H418      1.0  0.22354  0.61344  0.94276  1.0000
  H   H419      1.0  0.01688  0.54168  0.68894  1.0000
  C   C263      1.0  0.10301  0.52810  0.97473  1.0000
  C   C264      1.0  0.11623  0.64158  0.82740  1.0000
  C   C265      1.0  0.11967  0.64826  0.51842  1.0000
  H   H420      1.0  0.04311  0.54179  0.58473  1.0000
  Fe  Fe41      1.0  0.24380  0.62378  0.55927  1.0000
  C   C266      1.0  0.15789  0.54462  0.90986  1.0000
  C   C267      1.0  0.17012  0.54529  0.89146  1.0000
  C   C268      1.0  0.18808  0.61682  0.89916  1.0000
  C   C269      1.0  0.03933  0.58808  0.68300  1.0000
  H   H421      1.0  0.04080  0.57947  0.68380  1.0000
  H   H422      1.0  0.17000  0.54535  0.86906  1.0000
  H   H423      1.0  0.09909  0.61719  0.59177  1.0000
  C   C270      1.0  0.17938  0.62060  0.88263  1.0000
  Fe  Fe42      1.0  0.16124  0.66084  0.90827  1.0000
  H   H424      1.0  0.11327  0.64039  0.85021  1.0000
  S   S83       1.0  0.23268  0.61513  0.53378  1.0000
  H   H425      1.0  0.01243  0.59632  0.73277  1.0000
  H   H426      1.0  0.09319  0.56092  0.53706  1.0000
  H   H427      1.0  0.17862  0.61530  0.86684  1.0000
  C   C271      1.0  0.11846  0.61233  0.53989  1.0000
  S   S84       1.0  0.13851  0.65362  0.83115  1.0000
  H   H428      1.0  0.02756  0.53887  0.58700  1.0000
  C   C272      1.0  0.19814  0.63652  0.90107  1.0000
  Fe  Fe43      1.0  0.14154  0.65303  0.87666  1.0000
  H   H429      1.0  0.24410  0.66076  0.69201  1.0000
  H   H430      1.0  0.07826  0.60933  0.59413  1.0000
  H   H431      1.0  0.13681  0.64508  0.51225  1.0000
  H   H432      1.0  0.20222  0.60374  0.96169  1.0000
  H   H433      1.0  0.11791  0.58490  0.58368  1.0000
  H   H434      1.0  0.10262  0.60283  0.84194  1.0000
  H   H435      1.0  0.12795  0.61538  0.52872  1.0000
  H   H436      1.0  0.19590  0.61652  0.88314  1.0000
  H   H437      1.0  0.24701  0.63227  0.66694  1.0000
  H   H438      1.0  0.08162  0.60097  0.62377  1.0000
  H   H439      1.0  0.11973  0.61655  0.57964  1.0000
  H   H440      1.0  0.17978  0.64215  0.93589  1.0000
  C   C273      1.0  0.02849  0.58999  0.67957  1.0000
  H   H441      1.0  0.23127  0.65408  0.78062  1.0000
  H   H442      1.0  0.09351  0.58379  0.60032  1.0000
  C   C274      1.0  0.13702  0.53420  0.93258  1.0000
  C   C275      1.0  0.10686  0.56609  0.49736  1.0000
  H   H443      1.0  0.20613  0.65400  0.90482  1.0000
  C   C276      1.0  0.14729  0.53096  0.88796  1.0000
  H   H444      1.0  0.19219  0.64109  0.89154  1.0000
  H   H445      1.0  0.14747  0.52400  0.97658  1.0000
  H   H446      1.0  0.23029  0.65078  0.74798  1.0000
  H   H447      1.0  0.00958  0.45441  0.68999  1.0000
  H   H448      1.0  0.09684  0.61156  0.56225  1.0000
  H   H449      1.0  0.24300  0.60218  0.48532  1.0000
  H   H450      1.0  0.21718  0.66640  0.77768  1.0000
  H   H451      1.0  0.24166  0.58708  0.49264  1.0000
  H   H452      1.0  0.14503  0.51466  0.93757  1.0000
  C   C277      1.0  0.23051  0.65804  0.75891  1.0000
  N   N17       1.0  0.23611  0.66725  0.51099  1.0000
  C   C278      1.0  0.00370  0.57870  0.75656  1.0000
  H   H453      1.0  0.24619  0.63732  0.49219  1.0000
  H   H454      1.0  0.20503  0.63630  0.88247  1.0000
  H   H455      1.0  0.00871  0.62090  0.73866  1.0000
  Fe  Fe44      1.0  0.24765  0.61969  0.61964  1.0000
  H   H456      1.0  0.14580  0.53886  0.87432  1.0000
  H   H457      1.0  0.00870  0.46648  0.72681  1.0000
  H   H458      1.0  0.13121  0.52536  0.94492  1.0000
  H   H459      1.0  0.02792  0.53344  0.68548  1.0000
  C   C279      1.0  0.00254  0.49384  0.65328  1.0000
  H   H460      1.0  0.00699  0.57950  0.77560  1.0000
  C   C280      1.0  0.19600  0.60593  0.94899  1.0000
  H   H461      1.0  0.15807  0.51596  0.96911  1.0000
  H   H462      1.0  0.12742  0.56055  0.48609  1.0000
  H   H463      1.0  0.01037  0.55990  0.60112  1.0000
  H   H464      1.0  0.18405  0.62452  0.96222  1.0000
  C   C281      1.0  0.24188  0.66297  0.48646  1.0000
  N   N18       1.0  0.24089  0.66838  0.74333  1.0000
  H   H465      1.0  0.19880  0.64373  0.93878  1.0000
  H   H466      1.0  0.18728  0.60399  0.96418  1.0000
  H   H467      1.0  0.24193  0.66702  0.96361  1.0000
  C   C282      1.0  0.08610  0.53719  0.48732  1.0000
  H   H468      1.0  0.10751  0.59216  0.49969  1.0000
  C   C283      1.0  0.00358  0.46035  0.69065  1.0000
  H   H469      1.0  0.23433  0.59264  0.96072  1.0000
  C   C284      1.0  0.00645  0.61736  0.72092  1.0000
  H   H470      1.0  0.00538  0.62480  0.70501  1.0000
  H   H471      1.0  0.24923  0.65440  0.78490  1.0000
  H   H472      1.0  0.16720  0.66160  0.97603  1.0000
  H   H473      1.0  0.14251  0.54047  0.96847  1.0000
  C   C285      1.0  0.15524  0.52389  0.96034  1.0000
  H   H474      1.0  0.16261  0.53162  0.95743  1.0000
  H   H475      1.0  0.24081  0.58708  0.53832  1.0000
  S   S85       1.0  0.12147  0.65559  0.97779  1.0000
  H   H476      1.0  0.12807  0.54101  0.96589  1.0000
  C   C286      1.0  0.16979  0.66423  0.48632  1.0000
  C   C287      1.0  0.23989  0.63358  0.98217  1.0000
  H   H477      1.0  0.25028  0.59088  0.56003  1.0000
  N   N19       1.0  0.24001  0.67329  0.00202  1.0000
  H   H478      1.0  0.15857  0.67822  0.45156  1.0000
  S   S86       1.0  0.24406  0.70939  0.41738  1.0000
  H   H479      1.0  0.17806  0.67097  0.98758  1.0000
  C   C288      1.0  0.13625  0.67685  0.02463  1.0000
  H   H480      1.0  0.24620  0.67233  0.30636  1.0000
  H   H481      1.0  0.22735  0.71162  0.25252  1.0000
  C   C289      1.0  0.20406  0.70416  0.41528  1.0000
  H   H482      1.0  0.17574  0.69462  0.41052  1.0000
  C   C290      1.0  0.14260  0.68267  0.46606  1.0000
  H   H483      1.0  0.22266  0.69840  0.28039  1.0000
  H   H484      1.0  0.19336  0.69598  0.32936  1.0000
  C   C291      1.0  0.22635  0.69810  0.33468  1.0000
  H   H485      1.0  0.23825  0.68896  0.47660  1.0000
  H   H486      1.0  0.22350  0.69141  0.32342  1.0000
  C   C292      1.0  0.17532  0.69434  0.99600  1.0000
  H   H487      1.0  0.22519  0.68411  0.46600  1.0000
  C   C293      1.0  0.18457  0.69430  0.41130  1.0000
  H   H488      1.0  0.24152  0.69082  0.33434  1.0000
  H   H489      1.0  0.23803  0.70630  0.26700  1.0000
  S   S87       1.0  0.24694  0.73651  0.37954  1.0000
  H   H490      1.0  0.22463  0.73386  0.31596  1.0000
  H   H491      1.0  0.22794  0.73507  0.34898  1.0000
  H   H492      1.0  0.21657  0.69371  0.41321  1.0000
  H   H493      1.0  0.20467  0.70022  0.29714  1.0000
  H   H494      1.0  0.24254  0.70354  0.34787  1.0000
  C   C294      1.0  0.23734  0.68423  0.04184  1.0000
  H   H495      1.0  0.15244  0.68579  0.03077  1.0000
  S   S88       1.0  0.24137  0.73087  0.44856  1.0000
  C   C295      1.0  0.18824  0.68415  0.40846  1.0000
  Fe  Fe45      1.0  0.23354  0.72278  0.41666  1.0000
  S   S89       1.0  0.21370  0.71716  0.41843  1.0000
  C   C296      1.0  0.24745  0.67211  0.45739  1.0000
  H   H496      1.0  0.22297  0.72158  0.28597  1.0000
  H   H497      1.0  0.13130  0.68104  0.03933  1.0000
  H   H498      1.0  0.20667  0.71478  0.32526  1.0000
  H   H499      1.0  0.22461  0.71316  0.36519  1.0000
  H   H500      1.0  0.17598  0.68299  0.46944  1.0000
  C   C297      1.0  0.23503  0.68251  0.01324  1.0000
  H   H501      1.0  0.13150  0.67597  0.00787  1.0000
  C   C298      1.0  0.23961  0.69960  0.33128  1.0000
  C   C299      1.0  0.20955  0.70671  0.33270  1.0000
  H   H502      1.0  0.24663  0.68879  0.03918  1.0000
  C   C300      1.0  0.19988  0.68411  0.40919  1.0000
  H   H503      1.0  0.20289  0.67636  0.40707  1.0000
  H   H504      1.0  0.24489  0.70504  0.30985  1.0000
  H   H505      1.0  0.20465  0.68855  0.32752  1.0000
  C   C301      1.0  0.20770  0.69397  0.41269  1.0000
  H   H506      1.0  0.20598  0.70391  0.35632  1.0000
  H   H507      1.0  0.17053  0.69884  0.01009  1.0000
  H   H508      1.0  0.23491  0.67581  0.05851  1.0000
  C   C302      1.0  0.15206  0.67636  0.47257  1.0000
  N   N20       1.0  0.15697  0.67987  0.99236  1.0000
  H   H509      1.0  0.24956  0.75525  0.47921  1.0000
  C   C303      1.0  0.22792  0.71523  0.29362  1.0000
  H   H510      1.0  0.16582  0.69765  0.46971  1.0000
  C   C304      1.0  0.22714  0.71764  0.34197  1.0000
  H   H511      1.0  0.22189  0.69383  0.35765  1.0000
  H   H512      1.0  0.16226  0.67150  0.02923  1.0000
  H   H513      1.0  0.23700  0.72064  0.29008  1.0000
  H   H514      1.0  0.23688  0.72047  0.33604  1.0000
  H   H515      1.0  0.23205  0.69001  0.04979  1.0000
  H   H516      1.0  0.24073  0.67526  0.44791  1.0000
  H   H517      1.0  0.23858  0.69124  0.99732  1.0000
  C   C305      1.0  0.20294  0.69728  0.32069  1.0000
  H   H518      1.0  0.13796  0.67839  0.45220  1.0000
  C   C306      1.0  0.22891  0.70719  0.27294  1.0000
  H   H519      1.0  0.18945  0.71198  0.41654  1.0000
  H   H520      1.0  0.21361  0.72731  0.34991  1.0000
  C   C307      1.0  0.22300  0.72908  0.33865  1.0000
  C   C308      1.0  0.14893  0.68458  0.01212  1.0000
  N   N21       1.0  0.22276  0.70929  0.32508  1.0000
  C   C309      1.0  0.19241  0.70417  0.41470  1.0000
  H   H521      1.0  0.14851  0.69356  0.00164  1.0000
  S   S90       1.0  0.17887  0.67138  0.40352  1.0000
  H   H522      1.0  0.22544  0.68074  0.01617  1.0000
  H   H523      1.0  0.24542  0.67935  0.22398  1.0000
  H   H524      1.0  0.14660  0.69202  0.45401  1.0000
  H   H525      1.0  0.17827  0.68741  0.00900  1.0000
  H   H526      1.0  0.24665  0.68751  0.26255  1.0000
  H   H527      1.0  0.23934  0.71485  0.84323  1.0000
  H   H528      1.0  0.24757  0.75478  0.51680  1.0000
  H   H529      1.0  0.16735  0.70697  0.50968  1.0000
  C   C310      1.0  0.20869  0.69242  0.91936  1.0000
  C   C311      1.0  0.24519  0.67612  0.51795  1.0000
  H   H530      1.0  0.21701  0.68389  0.82556  1.0000
  H   H531      1.0  0.23392  0.72634  0.80371  1.0000
  H   H532      1.0  0.19279  0.71217  0.90537  1.0000
  H   H533      1.0  0.13924  0.68432  0.53082  1.0000
  H   H534      1.0  0.24786  0.68106  0.70209  1.0000
  H   H535      1.0  0.16579  0.69717  0.96415  1.0000
  H   H536      1.0  0.21698  0.69183  0.92396  1.0000
  C   C312      1.0  0.23209  0.70678  0.84744  1.0000
  C   C313      1.0  0.16046  0.69276  0.49177  1.0000
  C   C314      1.0  0.15133  0.67585  0.97031  1.0000
  C   C315      1.0  0.20597  0.70335  0.91482  1.0000
  C   C316      1.0  0.22702  0.70654  0.77228  1.0000
  H   H537      1.0  0.23188  0.68783  0.85453  1.0000
  H   H538      1.0  0.23520  0.67615  0.56120  1.0000
  H   H539      1.0  0.17892  0.69428  0.90222  1.0000
  H   H540      1.0  0.13701  0.67228  0.56006  1.0000
  H   H541      1.0  0.23856  0.72698  0.55400  1.0000
  H   H542      1.0  0.23359  0.68082  0.76237  1.0000
  C   C317      1.0  0.19506  0.70381  0.90897  1.0000
  H   H543      1.0  0.17599  0.69662  0.50892  1.0000
  H   H544      1.0  0.22548  0.67214  0.94737  1.0000
  C   C318      1.0  0.22592  0.67192  0.50497  1.0000
  H   H545      1.0  0.20754  0.70279  0.82103  1.0000
  S   S91       1.0  0.24342  0.73188  0.94582  1.0000
  H   H546      1.0  0.21779  0.70129  0.77762  1.0000
  Fe  Fe46      1.0  0.23538  0.72238  0.91618  1.0000
  S   S92       1.0  0.21580  0.71669  0.91571  1.0000
  H   H547      1.0  0.15231  0.69577  0.49413  1.0000
  H   H548      1.0  0.24951  0.69569  0.73443  1.0000
  C   C319      1.0  0.16793  0.68949  0.97693  1.0000
  C   C320      1.0  0.22040  0.72592  0.83992  1.0000
  H   H549      1.0  0.15633  0.67316  0.54052  1.0000
  C   C321      1.0  0.23974  0.67409  0.71427  1.0000
  H   H550      1.0  0.21144  0.72093  0.85275  1.0000
  C   C322      1.0  0.21315  0.70027  0.83532  1.0000
  C   C323      1.0  0.21129  0.68680  0.84162  1.0000
  C   C324      1.0  0.16988  0.67680  0.48933  1.0000
  H   H551      1.0  0.20885  0.70189  0.85571  1.0000
  N   N22       1.0  0.22558  0.70786  0.82431  1.0000
  N   N23       1.0  0.15811  0.67966  0.49484  1.0000
  H   H552      1.0  0.15384  0.68943  0.93071  1.0000
  C   C325      1.0  0.23816  0.67359  0.97264  1.0000
  S   S93       1.0  0.24874  0.73521  0.87760  1.0000
  H   H553      1.0  0.17371  0.68649  0.96100  1.0000
  H   H554      1.0  0.13583  0.68217  0.48533  1.0000
  H   H555      1.0  0.21941  0.72163  0.80050  1.0000
  H   H556      1.0  0.24136  0.71080  0.79122  1.0000
  C   C326      1.0  0.15111  0.67253  0.52448  1.0000
  H   H557      1.0  0.15758  0.67290  0.95522  1.0000
  H   H558      1.0  0.24805  0.68773  0.54547  1.0000
  C   C327      1.0  0.20067  0.68221  0.91811  1.0000
  C   C328      1.0  0.23793  0.69648  0.85166  1.0000
  H   H559      1.0  0.14487  0.69208  0.96122  1.0000
  H   H560      1.0  0.22459  0.69025  0.49595  1.0000
  H   H561      1.0  0.21993  0.73500  0.83057  1.0000
  H   H562      1.0  0.24121  0.69609  0.87116  1.0000
  H   H563      1.0  0.24572  0.69795  0.83366  1.0000
  C   C329      1.0  0.24519  0.72235  0.54881  1.0000
  H   H564      1.0  0.22637  0.72674  0.85413  1.0000
  H   H565      1.0  0.23219  0.70342  0.75543  1.0000
  H   H566      1.0  0.24136  0.67346  0.78298  1.0000
  C   C330      1.0  0.24047  0.68230  0.54062  1.0000
  H   H567      1.0  0.22773  0.71594  0.76255  1.0000
  C   C331      1.0  0.24155  0.67742  0.76042  1.0000
  H   H568      1.0  0.22625  0.70622  0.86847  1.0000
  C   C332      1.0  0.22507  0.72053  0.81552  1.0000
  H   H569      1.0  0.13891  0.68073  0.94659  1.0000
  H   H570      1.0  0.23342  0.69604  0.80304  1.0000
  H   H571      1.0  0.21226  0.68311  0.86320  1.0000
  H   H572      1.0  0.23770  0.67104  0.67348  1.0000
  C   C333      1.0  0.23226  0.70509  0.79833  1.0000
  C   C334      1.0  0.18983  0.68270  0.91191  1.0000
  C   C335      1.0  0.18713  0.69364  0.90720  1.0000
  S   S94       1.0  0.24581  0.70894  0.91963  1.0000
  H   H573      1.0  0.17420  0.67795  0.50677  1.0000
  H   H574      1.0  0.24091  0.72014  0.50959  1.0000
  C   C336      1.0  0.24656  0.71856  0.52353  1.0000
  H   H575      1.0  0.23537  0.68837  0.53268  1.0000
  C   C337      1.0  0.16682  0.69741  0.51287  1.0000
  H   H576      1.0  0.23272  0.67885  0.71601  1.0000
  C   C338      1.0  0.22882  0.68446  0.48481  1.0000
  H   H577      1.0  0.20223  0.68272  0.84093  1.0000
  H   H578      1.0  0.16201  0.69303  0.53543  1.0000
  H   H579      1.0  0.20292  0.67385  0.92181  1.0000
  H   H580      1.0  0.22059  0.67712  0.97799  1.0000
  H   H581      1.0  0.21998  0.67200  0.52537  1.0000
  C   C339      1.0  0.14710  0.68514  0.95124  1.0000
  H   H582      1.0  0.24288  0.68238  0.95767  1.0000
  C   C340      1.0  0.13922  0.67493  0.53632  1.0000
  C   C341      1.0  0.22540  0.67097  0.97029  1.0000
  H   H583      1.0  0.18335  0.70101  0.98207  1.0000
  H   H584      1.0  0.48241  0.11046  0.11726  1.0000
  H   H585      1.0  0.46754  0.10955  0.13345  1.0000
  H   H586      1.0  0.48353  0.02292  0.18311  1.0000
  H   H587      1.0  0.43771  0.00453  0.21844  1.0000
  S   S95       1.0  0.45942  0.00885  0.12050  1.0000
  C   C342      1.0  0.49353  0.11368  0.18935  1.0000
  H   H588      1.0  0.46741  0.03426  0.10029  1.0000
  H   H589      1.0  0.45540  0.01563  0.21964  1.0000
  C   C343      1.0  0.48785  0.14063  0.14115  1.0000
  N   N24       1.0  0.49060  0.12005  0.16315  1.0000
  H   H590      1.0  0.49291  0.14026  0.12022  1.0000
  H   H591      1.0  0.45320  0.00427  0.28268  1.0000
  S   S96       1.0  0.49064  0.04833  0.16483  1.0000
  H   H592      1.0  0.47171  0.00744  0.16607  1.0000
  S   S97       1.0  0.49318  0.08379  0.15778  1.0000
  H   H593      1.0  0.47954  0.04975  0.11641  1.0000
  C   C344      1.0  0.46851  0.01968  0.13241  1.0000
  C   C345      1.0  0.47329  0.01664  0.15552  1.0000
  C   C346      1.0  0.48006  0.02547  0.16494  1.0000
  C   C347      1.0  0.48238  0.03754  0.15109  1.0000
  C   C348      1.0  0.47790  0.04057  0.12739  1.0000
  C   C349      1.0  0.47098  0.03172  0.11828  1.0000
  H   H594      1.0  0.47156  0.11420  0.17558  1.0000
  H   H595      1.0  0.46309  0.02019  0.24491  1.0000
  H   H596      1.0  0.47843  0.13925  0.14138  1.0000
  H   H597      1.0  0.49181  0.16268  0.45013  1.0000
  H   H598      1.0  0.48232  0.11853  0.22411  1.0000
  C   C350      1.0  0.45449  0.01575  0.24224  1.0000
  C   C351      1.0  0.47916  0.11271  0.16099  1.0000
  C   C352      1.0  0.48946  0.13196  0.16684  1.0000
  C   C353      1.0  0.47673  0.11437  0.13117  1.0000
  H   H599      1.0  0.47779  0.12367  0.12027  1.0000
  H   H600      1.0  0.49844  0.12994  0.44707  1.0000
  H   H601      1.0  0.48621  0.01165  0.06757  1.0000
  H   H602      1.0  0.47247  0.00496  0.25978  1.0000
  C   C354      1.0  0.50010  0.16649  0.43316  1.0000
  H   H603      1.0  0.44869  0.02163  0.24655  1.0000
  H   H604      1.0  0.49093  0.01231  0.09906  1.0000
  H   H605      1.0  0.48175  0.13096  0.18473  1.0000
  C   C355      1.0  0.49007  0.00692  0.08349  1.0000
  H   H606      1.0  0.49127  0.14979  0.14239  1.0000
  H   H607      1.0  0.49293  0.14295  0.44194  1.0000
  H   H608      1.0  0.49339  0.14761  0.48113  1.0000
  H   H609      1.0  0.47860  0.10312  0.16818  1.0000
  H   H610      1.0  0.48724  0.10575  0.23507  1.0000
  H   H611      1.0  0.47573  0.10462  0.21747  1.0000
  H   H612      1.0  0.49547  0.10526  0.18635  1.0000
  C   C356      1.0  0.48402  0.11057  0.21783  1.0000
  H   H613      1.0  0.49861  0.12473  0.11717  1.0000
  H   H614      1.0  0.49696  0.13651  0.17389  1.0000
  H   H615      1.0  0.50009  0.16227  0.41519  1.0000
  C   C357      1.0  0.44924  0.00362  0.26441  1.0000
  H   H616      1.0  0.45787  0.00904  0.56984  1.0000
  H   H617      1.0  0.48712  0.16250  0.79154  1.0000
  H   H618      1.0  0.45824  0.03766  0.61321  1.0000
  H   H619      1.0  0.43204  0.02027  0.55235  1.0000
  S   S98       1.0  0.45194  0.01221  0.63026  1.0000
  H   H620      1.0  0.43456  0.00595  0.50705  1.0000
  H   H621      1.0  0.47310  0.05320  0.62226  1.0000
  H   H622      1.0  0.49552  0.14181  0.75602  1.0000
  C   C358      1.0  0.49938  0.13216  0.81478  1.0000
  H   H623      1.0  0.46623  0.01558  0.53300  1.0000
  C   C359      1.0  0.44055  0.01810  0.54574  1.0000
  C   C360      1.0  0.44662  0.02638  0.51572  1.0000
  S   S99       1.0  0.49078  0.05182  0.65574  1.0000
  N   N25       1.0  0.43867  0.00509  0.54795  1.0000
  H   H624      1.0  0.44103  0.02546  0.50066  1.0000
  H   H625      1.0  0.49421  0.17499  0.76214  1.0000
  C   C361      1.0  0.46307  0.02305  0.63698  1.0000
  C   C362      1.0  0.47078  0.02002  0.65323  1.0000
  C   C363      1.0  0.47918  0.02891  0.65852  1.0000
  C   C364      1.0  0.48013  0.04100  0.64754  1.0000
  C   C365      1.0  0.47256  0.04401  0.63087  1.0000
  C   C366      1.0  0.46410  0.03512  0.62576  1.0000
  H   H626      1.0  0.47014  0.01083  0.66215  1.0000
  H   H627      1.0  0.48491  0.02639  0.67150  1.0000
  H   H628      1.0  0.42241  0.00480  0.53524  1.0000
  H   H629      1.0  0.48941  0.00632  0.60114  1.0000
  H   H630      1.0  0.44811  0.03565  0.51732  1.0000
  H   H631      1.0  0.49222  0.16068  0.75602  1.0000
  H   H632      1.0  0.49113  0.12654  0.83030  1.0000
  H   H633      1.0  0.49597  0.14772  0.82678  1.0000
  C   C367      1.0  0.46045  0.00740  0.54852  1.0000
  S   S100      1.0  0.49375  0.08855  0.64750  1.0000
  H   H634      1.0  0.42101  0.00841  0.59344  1.0000
  H   H635      1.0  0.49393  0.13302  0.52062  1.0000
  H   H636      1.0  0.49716  0.09740  0.77969  1.0000
  H   H637      1.0  0.45294  0.00515  0.51339  1.0000
  H   H638      1.0  0.45531  0.02512  0.50658  1.0000
  C   C368      1.0  0.49829  0.14493  0.80665  1.0000
  H   H639      1.0  0.49036  0.14434  0.79845  1.0000
  H   H640      1.0  0.44563  0.02082  0.56081  1.0000
  C   C369      1.0  0.49425  0.16575  0.77145  1.0000
  Fe  Fe47      1.0  0.49983  0.07181  0.64677  1.0000
  Fe  Fe48      1.0  0.46196  0.53415  0.12391  1.0000
  S   S101      1.0  0.44283  0.53352  0.13965  1.0000
  S   S102      1.0  0.46887  0.51934  0.11004  1.0000
  Fe  Fe49      1.0  0.46931  0.56025  0.11884  1.0000
  S   S103      1.0  0.45096  0.56177  0.13409  1.0000
  H   H641      1.0  0.36395  0.58317  0.27586  1.0000
  Fe  Fe50      1.0  0.44878  0.54513  0.16763  1.0000
  S   S104      1.0  0.44046  0.54089  0.21599  1.0000
  Fe  Fe51      1.0  0.44661  0.55028  0.10473  1.0000
  S   S105      1.0  0.43443  0.55420  0.07587  1.0000
  S   S106      1.0  0.46760  0.54443  0.15406  1.0000
  S   S107      1.0  0.46518  0.55012  0.08737  1.0000
  H   H642      1.0  0.40097  0.66290  0.23942  1.0000
  H   H643      1.0  0.36218  0.58769  0.23009  1.0000
  C   C370      1.0  0.47734  0.58504  0.18511  1.0000
  H   H644      1.0  0.47289  0.61154  0.08758  1.0000
  H   H645      1.0  0.27136  0.66238  0.27256  1.0000
  H   H646      1.0  0.37191  0.61155  0.01939  1.0000
  C   C371      1.0  0.31139  0.65200  0.08372  1.0000
  H   H647      1.0  0.44556  0.58010  0.08650  1.0000
  N   N26       1.0  0.37549  0.60742  0.45704  1.0000
  H   H648      1.0  0.27216  0.57685  0.45718  1.0000
  Fe  Fe52      1.0  0.42870  0.57041  0.35246  1.0000
  S   S108      1.0  0.41822  0.58328  0.36313  1.0000
  S   S109      1.0  0.43611  0.57313  0.30418  1.0000
  Fe  Fe53      1.0  0.42844  0.56133  0.41653  1.0000
  S   S110      1.0  0.41802  0.57345  0.43073  1.0000
  C   C372      1.0  0.45957  0.61208  0.03461  1.0000
  Fe  Fe54      1.0  0.40724  0.56862  0.40080  1.0000
  S   S111      1.0  0.38749  0.56270  0.41885  1.0000
  Fe  Fe55      1.0  0.42988  0.58689  0.39200  1.0000
  S   S112      1.0  0.43749  0.60508  0.39541  1.0000
  S   S113      1.0  0.41687  0.55530  0.38880  1.0000
  S   S114      1.0  0.44114  0.57521  0.37915  1.0000
  Fe  Fe56      1.0  0.35910  0.65270  0.11681  1.0000
  S   S115      1.0  0.35535  0.63292  0.13197  1.0000
  C   C373      1.0  0.26610  0.60316  0.99734  1.0000
  Fe  Fe57      1.0  0.33460  0.65161  0.10898  1.0000
  S   S116      1.0  0.32904  0.63199  0.12429  1.0000
  C   C374      1.0  0.47425  0.46825  0.25655  1.0000
  Fe  Fe58      1.0  0.33835  0.63431  0.15824  1.0000
  S   S117      1.0  0.32830  0.62446  0.20348  1.0000
  Fe  Fe59      1.0  0.34637  0.63262  0.09612  1.0000
  S   S118      1.0  0.34547  0.61944  0.06899  1.0000
  S   S119      1.0  0.34257  0.65403  0.14522  1.0000
  S   S120      1.0  0.35148  0.65228  0.07880  1.0000
  Fe  Fe60      1.0  0.34414  0.62232  0.34618  1.0000
  S   S121      1.0  0.33015  0.60522  0.36202  1.0000
  S   S122      1.0  0.35445  0.63064  0.30028  1.0000
  Fe  Fe61      1.0  0.34366  0.62515  0.40649  1.0000
  S   S123      1.0  0.32968  0.60832  0.42692  1.0000
  S   S124      1.0  0.28484  0.62722  0.05493  1.0000
  Fe  Fe62      1.0  0.34022  0.60105  0.39491  1.0000
  S   S125      1.0  0.34331  0.58300  0.40793  1.0000
  Fe  Fe63      1.0  0.32091  0.61410  0.39220  1.0000
  S   S126      1.0  0.30198  0.61561  0.40269  1.0000
  S   S127      1.0  0.35477  0.61745  0.37698  1.0000
  S   S128      1.0  0.33436  0.63160  0.37389  1.0000
  H   H649      1.0  0.28942  0.64576  0.45161  1.0000
  Fe  Fe64      1.0  0.26676  0.62928  0.07070  1.0000
  C   C375      1.0  0.37238  0.66385  0.26079  1.0000
  H   H650      1.0  0.42093  0.56015  0.98765  1.0000
  H   H651      1.0  0.37264  0.64333  0.32918  1.0000
  S   S129      1.0  0.37721  0.66427  0.11197  1.0000
  C   C376      1.0  0.29027  0.60967  0.38879  1.0000
  C   C377      1.0  0.28875  0.59859  0.38304  1.0000
  C   C378      1.0  0.27833  0.59339  0.37657  1.0000
  C   C379      1.0  0.26939  0.59927  0.37535  1.0000
  C   C380      1.0  0.27114  0.61054  0.38003  1.0000
  C   C381      1.0  0.28147  0.61566  0.38688  1.0000
  H   H652      1.0  0.45040  0.58576  0.04845  1.0000
  H   H653      1.0  0.30635  0.64658  0.39756  1.0000
  H   H654      1.0  0.26436  0.61515  0.37947  1.0000
  H   H655      1.0  0.28249  0.62419  0.39144  1.0000
  C   C382      1.0  0.34660  0.62429  0.03208  1.0000
  C   C383      1.0  0.35265  0.63580  0.01652  1.0000
  H   H656      1.0  0.36362  0.58281  0.34223  1.0000
  C   C384      1.0  0.33152  0.59156  0.29329  1.0000
  H   H657      1.0  0.38931  0.62628  0.40682  1.0000
  C   C385      1.0  0.34184  0.61629  0.01771  1.0000
  H   H658      1.0  0.35645  0.64200  0.02728  1.0000
  H   H659      1.0  0.47202  0.46382  0.27964  1.0000
  H   H660      1.0  0.45017  0.61622  0.32635  1.0000
  H   H661      1.0  0.33713  0.60738  0.02968  1.0000
  C   C386      1.0  0.33547  0.62693  0.23015  1.0000
  C   C387      1.0  0.32918  0.62290  0.25898  1.0000
  C   C388      1.0  0.33483  0.62440  0.28066  1.0000
  C   C389      1.0  0.34685  0.62976  0.27360  1.0000
  C   C390      1.0  0.35311  0.63392  0.24476  1.0000
  C   C391      1.0  0.34743  0.63257  0.22307  1.0000
  H   H662      1.0  0.31992  0.61858  0.26454  1.0000
  H   H663      1.0  0.32991  0.62123  0.30282  1.0000
  H   H664      1.0  0.36241  0.63798  0.23910  1.0000
  H   H665      1.0  0.35233  0.63571  0.20087  1.0000
  H   H666      1.0  0.30390  0.64181  0.00842  1.0000
  H   H667      1.0  0.30811  0.62710  0.06007  1.0000
  H   H668      1.0  0.34864  0.57674  0.28273  1.0000
  H   H669      1.0  0.48860  0.60652  0.33279  1.0000
  H   H670      1.0  0.47646  0.61272  0.00852  1.0000
  H   H671      1.0  0.38491  0.64587  0.23501  1.0000
  C   C392      1.0  0.36383  0.60133  0.29664  1.0000
  H   H672      1.0  0.49316  0.57592  0.20825  1.0000
  H   H673      1.0  0.46634  0.59024  0.37752  1.0000
  H   H674      1.0  0.28404  0.60322  0.13148  1.0000
  H   H675      1.0  0.47680  0.57656  0.28200  1.0000
  H   H676      1.0  0.37930  0.63200  0.42972  1.0000
  C   C393      1.0  0.37595  0.56946  0.41467  1.0000
  C   C394      1.0  0.37753  0.58089  0.39759  1.0000
  C   C395      1.0  0.36769  0.58552  0.39575  1.0000
  C   C396      1.0  0.35630  0.57860  0.41054  1.0000
  C   C397      1.0  0.35490  0.56728  0.42735  1.0000
  C   C398      1.0  0.36460  0.56281  0.42957  1.0000
  H   H677      1.0  0.38627  0.58605  0.38571  1.0000
  H   H678      1.0  0.36886  0.59422  0.38231  1.0000
  H   H679      1.0  0.28420  0.64881  0.07191  1.0000
  H   H680      1.0  0.36324  0.55399  0.44270  1.0000
  C   C399      1.0  0.46613  0.60623  0.44326  1.0000
  C   C400      1.0  0.46254  0.61638  0.43387  1.0000
  C   C401      1.0  0.45354  0.61592  0.41978  1.0000
  C   C402      1.0  0.44794  0.60525  0.41551  1.0000
  C   C403      1.0  0.45110  0.59495  0.42623  1.0000
  C   C404      1.0  0.46025  0.59546  0.43991  1.0000
  C   C405      1.0  0.48063  0.61478  0.06898  1.0000
  H   H681      1.0  0.45102  0.62388  0.41192  1.0000
  H   H682      1.0  0.44669  0.58663  0.42345  1.0000
  H   H683      1.0  0.46296  0.58756  0.44713  1.0000
  S   S130      1.0  0.26169  0.63609  0.10900  1.0000
  C   C406      1.0  0.26810  0.65958  0.23294  1.0000
  H   H684      1.0  0.46245  0.56811  0.30264  1.0000
  H   H685      1.0  0.32891  0.64106  0.01233  1.0000
  H   H686      1.0  0.46369  0.58012  0.27358  1.0000
  C   C407      1.0  0.30598  0.63472  0.06618  1.0000
  H   H687      1.0  0.48962  0.58651  0.99683  1.0000
  H   H688      1.0  0.38932  0.51941  0.43432  1.0000
  H   H689      1.0  0.44985  0.50304  0.01948  1.0000
  H   H690      1.0  0.25449  0.60164  0.43159  1.0000
  C   C408      1.0  0.43644  0.55596  0.03825  1.0000
  C   C409      1.0  0.44667  0.55495  0.02065  1.0000
  H   H691      1.0  0.27579  0.60650  0.99286  1.0000
  H   H692      1.0  0.25621  0.61923  0.45461  1.0000
  H   H693      1.0  0.48772  0.62130  0.35708  1.0000
  C   C410      1.0  0.42726  0.55799  0.02590  1.0000
  H   H694      1.0  0.45390  0.55361  0.02964  1.0000
  H   H695      1.0  0.25735  0.61687  0.00877  1.0000
  H   H696      1.0  0.46748  0.62594  0.33080  1.0000
  H   H697      1.0  0.41932  0.55885  0.03917  1.0000
  C   C411      1.0  0.43829  0.54993  0.24013  1.0000
  C   C412      1.0  0.44010  0.56214  0.23074  1.0000
  C   C413      1.0  0.43884  0.56899  0.25073  1.0000
  C   C414      1.0  0.43577  0.56378  0.28037  1.0000
  C   C415      1.0  0.43363  0.55153  0.28979  1.0000
  C   C416      1.0  0.43487  0.54468  0.26979  1.0000
  H   H698      1.0  0.44258  0.56632  0.20807  1.0000
  H   H699      1.0  0.44046  0.57844  0.24314  1.0000
  H   H700      1.0  0.43131  0.54736  0.31244  1.0000
  H   H701      1.0  0.43336  0.53524  0.27736  1.0000
  C   C417      1.0  0.47791  0.51155  0.12596  1.0000
  C   C418      1.0  0.47839  0.51082  0.15426  1.0000
  C   C419      1.0  0.48494  0.50373  0.16677  1.0000
  C   C420      1.0  0.49129  0.49752  0.15095  1.0000
  C   C421      1.0  0.39230  0.66412  0.23691  1.0000
  C   C422      1.0  0.48427  0.50536  0.11015  1.0000
  H   H702      1.0  0.47347  0.51546  0.16673  1.0000
  C   C423      1.0  0.49105  0.49850  0.12244  1.0000
  C   C424      1.0  0.42417  0.52355  0.07683  1.0000
  H   H703      1.0  0.48392  0.50582  0.08830  1.0000
  H   H704      1.0  0.40396  0.51621  0.45977  1.0000
  H   H705      1.0  0.37761  0.61690  0.27217  1.0000
  H   H706      1.0  0.38052  0.65715  0.21210  1.0000
  H   H707      1.0  0.36845  0.65580  0.25476  1.0000
  C   C425      1.0  0.47744  0.58900  0.03277  1.0000
  H   H708      1.0  0.40285  0.66821  0.29244  1.0000
  H   H709      1.0  0.36180  0.66721  0.16222  1.0000
  H   H710      1.0  0.30988  0.65607  0.41935  1.0000
  C   C426      1.0  0.35419  0.63918  0.98678  1.0000
  S   S131      1.0  0.47785  0.66247  0.45121  1.0000
  H   H711      1.0  0.45597  0.57429  0.06644  1.0000
  N   N27       1.0  0.39839  0.52991  0.47738  1.0000
  H   H712      1.0  0.43903  0.49110  0.10117  1.0000
  C   C427      1.0  0.40389  0.52557  0.45267  1.0000
  C   C428      1.0  0.31418  0.64234  0.07488  1.0000
  H   H713      1.0  0.46199  0.54362  0.24622  1.0000
  N   N28       1.0  0.31011  0.63914  0.46601  1.0000
  C   C429      1.0  0.25942  0.66430  0.12888  1.0000
  S   S132      1.0  0.49873  0.48807  0.16818  1.0000
  C   C430      1.0  0.38827  0.60739  0.45117  1.0000
  C   C431      1.0  0.35540  0.58534  0.27579  1.0000
  H   H714      1.0  0.34664  0.60550  0.26943  1.0000
  N   N29       1.0  0.28650  0.62422  0.17177  1.0000
  C   C432      1.0  0.28386  0.61231  0.16530  1.0000
  C   C433      1.0  0.28297  0.62205  0.20385  1.0000
  C   C434      1.0  0.29957  0.62947  0.16099  1.0000
  C   C435      1.0  0.27989  0.63180  0.15672  1.0000
  C   C436      1.0  0.28753  0.61224  0.13354  1.0000
  C   C437      1.0  0.26985  0.61629  0.21831  1.0000
  C   C438      1.0  0.30443  0.64156  0.16592  1.0000
  C   C439      1.0  0.27778  0.64256  0.16781  1.0000
  H   H715      1.0  0.28810  0.60623  0.17728  1.0000
  H   H716      1.0  0.27427  0.60803  0.17248  1.0000
  H   H717      1.0  0.28521  0.63021  0.21085  1.0000
  H   H718      1.0  0.28803  0.61633  0.21388  1.0000
  H   H719      1.0  0.30436  0.62332  0.17064  1.0000
  H   H720      1.0  0.30249  0.63081  0.13748  1.0000
  H   H721      1.0  0.28439  0.63513  0.13354  1.0000
  H   H722      1.0  0.27104  0.62635  0.15780  1.0000
  C   C440      1.0  0.49449  0.57635  0.12460  1.0000
  H   H723      1.0  0.29719  0.61435  0.12519  1.0000
  H   H724      1.0  0.42093  0.53126  0.06847  1.0000
  H   H725      1.0  0.26742  0.60681  0.21880  1.0000
  H   H726      1.0  0.26792  0.61679  0.24092  1.0000
  H   H727      1.0  0.26412  0.62084  0.20791  1.0000
  H   H728      1.0  0.30238  0.64166  0.18870  1.0000
  H   H729      1.0  0.30158  0.64851  0.15273  1.0000
  H   H730      1.0  0.31415  0.64393  0.15855  1.0000
  H   H731      1.0  0.27981  0.65034  0.14929  1.0000
  H   H732      1.0  0.28304  0.64515  0.18235  1.0000
  H   H733      1.0  0.26836  0.64103  0.17852  1.0000
  H   H734      1.0  0.28384  0.61821  0.11979  1.0000
  C   C441      1.0  0.34324  0.61973  0.98798  1.0000
  C   C442      1.0  0.47919  0.60182  0.33833  1.0000
  S   S133      1.0  0.25133  0.61357  0.08550  1.0000
  H   H735      1.0  0.39493  0.65531  0.20269  1.0000
  H   H736      1.0  0.37665  0.62956  0.39707  1.0000
  H   H737      1.0  0.45808  0.56126  0.26099  1.0000
  H   H738      1.0  0.48753  0.61986  0.29221  1.0000
  H   H739      1.0  0.39558  0.55833  0.47903  1.0000
  H   H740      1.0  0.48032  0.56180  0.19529  1.0000
  H   H741      1.0  0.46500  0.56027  0.20617  1.0000
  C   C443      1.0  0.37952  0.65170  0.31864  1.0000
  H   H742      1.0  0.43669  0.49151  0.03282  1.0000
  H   H743      1.0  0.39111  0.60558  0.40666  1.0000
  H   H744      1.0  0.47041  0.54139  0.21480  1.0000
  H   H745      1.0  0.46925  0.55629  0.27316  1.0000
  C   C444      1.0  0.47068  0.54684  0.23042  1.0000
  C   C445      1.0  0.42815  0.55875  0.99660  1.0000
  H   H746      1.0  0.40985  0.54749  0.46031  1.0000
  H   H747      1.0  0.47888  0.59428  0.32843  1.0000
  C   C446      1.0  0.46734  0.56429  0.26147  1.0000
  H   H748      1.0  0.45513  0.61219  0.29333  1.0000
  H   H749      1.0  0.29617  0.63711  0.98497  1.0000
  N   N30       1.0  0.47302  0.59816  0.04566  1.0000
  C   C447      1.0  0.47157  0.57971  0.21739  1.0000
  N   N31       1.0  0.47503  0.56897  0.23135  1.0000
  C   C448      1.0  0.49325  0.56336  0.24508  1.0000
  C   C449      1.0  0.47289  0.55989  0.21450  1.0000
  C   C450      1.0  0.34801  0.58458  0.32647  1.0000
  H   H750      1.0  0.38677  0.65136  0.32925  1.0000
  H   H751      1.0  0.48753  0.55753  0.26556  1.0000
  H   H752      1.0  0.47056  0.58380  0.02504  1.0000
  H   H753      1.0  0.48825  0.61789  0.07736  1.0000
  H   H754      1.0  0.48684  0.59929  0.06767  1.0000
  H   H755      1.0  0.50011  0.59527  0.11512  1.0000
  C   C451      1.0  0.34381  0.59924  0.29084  1.0000
  H   H756      1.0  0.46450  0.66527  0.04111  1.0000
  H   H757      1.0  0.41854  0.51571  0.07337  1.0000
  H   H758      1.0  0.32863  0.64021  0.45119  1.0000
  H   H759      1.0  0.29537  0.59381  0.38476  1.0000
  H   H760      1.0  0.36014  0.57981  0.98523  1.0000
  C   C452      1.0  0.35560  0.59062  0.24430  1.0000
  H   H761      1.0  0.26099  0.65470  0.22542  1.0000
  C   C453      1.0  0.37248  0.61336  0.43057  1.0000
  C   C454      1.0  0.46330  0.59174  0.07215  1.0000
  N   N32       1.0  0.35282  0.59265  0.29663  1.0000
  H   H762      1.0  0.38010  0.62256  0.47405  1.0000
  H   H763      1.0  0.48691  0.58885  0.18074  1.0000
  C   C455      1.0  0.29505  0.63688  0.06569  1.0000
  C   C456      1.0  0.48312  0.60525  0.05376  1.0000
  C   C457      1.0  0.35607  0.57727  0.33751  1.0000
  H   H764      1.0  0.48723  0.44766  0.27719  1.0000
  H   H765      1.0  0.25810  0.65494  0.13167  1.0000
  H   H766      1.0  0.31426  0.63157  0.43043  1.0000
  H   H767      1.0  0.39022  0.60263  0.47070  1.0000
  H   H768      1.0  0.47705  0.47794  0.25309  1.0000
  H   H769      1.0  0.49787  0.48350  0.22884  1.0000
  H   H770      1.0  0.32537  0.65397  0.44768  1.0000
  C   C458      1.0  0.45328  0.58251  0.06781  1.0000
  S   S134      1.0  0.48969  0.63667  0.47817  1.0000
  S   S135      1.0  0.35208  0.63805  0.42868  1.0000
  S   S136      1.0  0.25251  0.66494  0.07882  1.0000
  H   H771      1.0  0.33187  0.58439  0.28243  1.0000
  H   H772      1.0  0.35584  0.60188  0.99780  1.0000
  H   H773      1.0  0.26646  0.61257  0.03052  1.0000
  H   H774      1.0  0.29839  0.66186  0.08888  1.0000
  H   H775      1.0  0.46663  0.62462  0.43757  1.0000
  H   H776      1.0  0.36486  0.59365  0.01044  1.0000
  H   H777      1.0  0.35493  0.66513  0.27899  1.0000
  H   H778      1.0  0.37831  0.64475  0.28206  1.0000
  H   H779      1.0  0.42302  0.52276  0.10004  1.0000
  H   H780      1.0  0.39401  0.61650  0.44583  1.0000
  H   H781      1.0  0.44663  0.49341  0.05465  1.0000
  C   C459      1.0  0.26822  0.60834  0.46490  1.0000
  H   H782      1.0  0.34618  0.56184  0.43867  1.0000
  H   H783      1.0  0.47760  0.54512  0.24103  1.0000
  H   H784      1.0  0.49583  0.49372  0.11008  1.0000
  C   C460      1.0  0.37032  0.61061  0.26834  1.0000
  H   H785      1.0  0.31457  0.62729  0.00922  1.0000
  H   H786      1.0  0.46684  0.58709  0.08895  1.0000
  C   C461      1.0  0.47823  0.60686  0.27561  1.0000
  H   H787      1.0  0.25910  0.65068  0.27579  1.0000
  H   H788      1.0  0.27667  0.60977  0.47121  1.0000
  H   H789      1.0  0.32653  0.58778  0.31600  1.0000
  H   H790      1.0  0.47551  0.60307  0.38325  1.0000
  C   C462      1.0  0.45992  0.60254  0.33070  1.0000
  C   C463      1.0  0.38388  0.65244  0.28644  1.0000
  C   C464      1.0  0.35470  0.59325  0.47487  1.0000
  S   S137      1.0  0.47791  0.60691  0.45930  1.0000
  H   H791      1.0  0.32128  0.65268  0.01060  1.0000
  H   H792      1.0  0.30566  0.60906  0.99867  1.0000
  H   H793      1.0  0.39694  0.53482  0.41862  1.0000
  H   H794      1.0  0.36053  0.65223  0.46381  1.0000
  H   H795      1.0  0.36184  0.60619  0.31327  1.0000
  H   H796      1.0  0.45541  0.59934  0.35384  1.0000
  H   H797      1.0  0.48503  0.50299  0.18887  1.0000
  C   C465      1.0  0.46890  0.60583  0.02368  1.0000
  H   H798      1.0  0.27125  0.62704  0.44579  1.0000
  H   H799      1.0  0.46593  0.61589  0.36365  1.0000
  H   H800      1.0  0.29844  0.66486  0.17343  1.0000
  C   C466      1.0  0.48834  0.59374  0.00699  1.0000
  H   H801      1.0  0.35121  0.59301  0.45580  1.0000
  N   N33       1.0  0.38436  0.66366  0.26530  1.0000
  H   H802      1.0  0.45921  0.59790  0.08201  1.0000
  H   H803      1.0  0.30692  0.65646  0.46468  1.0000
  C   C467      1.0  0.30056  0.65433  0.08252  1.0000
  H   H804      1.0  0.36033  0.65627  0.30371  1.0000
  H   H805      1.0  0.25202  0.66838  0.21279  1.0000
  H   H806      1.0  0.49108  0.55746  0.13702  1.0000
  C   C468      1.0  0.47166  0.61947  0.34153  1.0000
  H   H807      1.0  0.37047  0.59673  0.30228  1.0000
  N   N34       1.0  0.44225  0.51524  0.06430  1.0000
  C   C469      1.0  0.43722  0.52583  0.06129  1.0000
  C   C470      1.0  0.45522  0.51963  0.05024  1.0000
  C   C471      1.0  0.44049  0.51003  0.09581  1.0000
  C   C472      1.0  0.43592  0.50649  0.05092  1.0000
  H   H808      1.0  0.35920  0.57212  0.32272  1.0000
  C   C473      1.0  0.45857  0.52681  0.01874  1.0000
  C   C474      1.0  0.44482  0.49893  0.10428  1.0000
  H   H809      1.0  0.49912  0.44237  0.24118  1.0000
  H   H810      1.0  0.44230  0.53282  0.06907  1.0000
  H   H811      1.0  0.43795  0.52989  0.03844  1.0000
  H   H812      1.0  0.45959  0.51232  0.05119  1.0000
  H   H813      1.0  0.45962  0.52541  0.06203  1.0000
  H   H814      1.0  0.44483  0.51675  0.10545  1.0000
  H   H815      1.0  0.43106  0.50745  0.10739  1.0000
  H   H816      1.0  0.42768  0.50079  0.06650  1.0000
  H   H817      1.0  0.43300  0.51107  0.03272  1.0000
  H   H818      1.0  0.48334  0.60041  0.28111  1.0000
  C   C475      1.0  0.31174  0.64824  0.41276  1.0000
  H   H819      1.0  0.48129  0.59106  0.37706  1.0000
  H   H820      1.0  0.46772  0.52699  0.00844  1.0000
  H   H821      1.0  0.45277  0.52316  0.00622  1.0000
  H   H822      1.0  0.45831  0.53608  0.01743  1.0000
  H   H823      1.0  0.45409  0.49999  0.09327  1.0000
  Fe  Fe65      1.0  0.49085  0.65155  0.44051  1.0000
  H   H824      1.0  0.44439  0.49710  0.12748  1.0000
  H   H825      1.0  0.39718  0.54570  0.44834  1.0000
  C   C476      1.0  0.32820  0.64935  0.99882  1.0000
  C   C477      1.0  0.47522  0.59634  0.37089  1.0000
  C   C478      1.0  0.48781  0.57274  0.23066  1.0000
  C   C479      1.0  0.29244  0.64683  0.07330  1.0000
  H   H826      1.0  0.31002  0.61453  0.46418  1.0000
  H   H827      1.0  0.47358  0.59241  0.17727  1.0000
  H   H828      1.0  0.45992  0.59443  0.32309  1.0000
  C   C480      1.0  0.47815  0.61536  0.29519  1.0000
  H   H829      1.0  0.49155  0.44694  0.21420  1.0000
  H   H830      1.0  0.34124  0.61660  0.47484  1.0000
  H   H831      1.0  0.34708  0.58702  0.23995  1.0000
  H   H832      1.0  0.25183  0.66772  0.44220  1.0000
  H   H833      1.0  0.27707  0.58467  0.37303  1.0000
  H   H834      1.0  0.32271  0.64076  0.07448  1.0000
  H   H835      1.0  0.34563  0.58967  0.34230  1.0000
  H   H836      1.0  0.47372  0.58701  0.22770  1.0000
  C   C481      1.0  0.35092  0.63470  0.46579  1.0000
  H   H837      1.0  0.25228  0.60281  0.03435  1.0000
  H   H838      1.0  0.37435  0.60651  0.25203  1.0000
  H   H839      1.0  0.46201  0.61733  0.04935  1.0000
  S   S138      1.0  0.43523  0.54945  0.44810  1.0000
  C   C482      1.0  0.48348  0.46362  0.23862  1.0000
  H   H840      1.0  0.38030  0.53426  0.45427  1.0000
  H   H841      1.0  0.25649  0.65963  0.99478  1.0000
  C   C483      1.0  0.30855  0.63712  0.43785  1.0000
  H   H842      1.0  0.48971  0.63095  0.32223  1.0000
  H   H843      1.0  0.38187  0.61435  0.98601  1.0000
  H   H844      1.0  0.46194  0.57768  0.22007  1.0000
  C   C484      1.0  0.26013  0.60917  0.01881  1.0000
  C   C485      1.0  0.46777  0.57293  0.28064  1.0000
  H   H845      1.0  0.34267  0.60492  0.30581  1.0000
  Fe  Fe66      1.0  0.48936  0.62542  0.44732  1.0000
  H   H846      1.0  0.47996  0.62261  0.05364  1.0000
  C   C486      1.0  0.38776  0.65500  0.22117  1.0000
  H   H847      1.0  0.29954  0.63182  0.43985  1.0000
  C   C487      1.0  0.49583  0.56568  0.13949  1.0000
  C   C488      1.0  0.48351  0.62669  0.34347  1.0000
  N   N35       1.0  0.49507  0.46474  0.24646  1.0000
  H   H848      1.0  0.34278  0.58879  0.98763  1.0000
  H   H849      1.0  0.48770  0.45963  0.29227  1.0000
  H   H850      1.0  0.37128  0.51968  0.46958  1.0000
  S   S139      1.0  0.48409  0.57664  0.10469  1.0000
  H   H851      1.0  0.32117  0.65042  0.40130  1.0000
  H   H852      1.0  0.40350  0.52359  0.41023  1.0000
  H   H853      1.0  0.44314  0.60254  0.32118  1.0000
  C   C489      1.0  0.36812  0.59487  0.46710  1.0000
  H   H854      1.0  0.47957  0.58249  0.04916  1.0000
  H   H855      1.0  0.45090  0.60574  0.04500  1.0000
  H   H856      1.0  0.32644  0.59716  0.28314  1.0000
  H   H857      1.0  0.46928  0.60219  0.27570  1.0000
  C   C490      1.0  0.40030  0.54308  0.46755  1.0000
  H   H858      1.0  0.47420  0.62243  0.28630  1.0000
  C   C491      1.0  0.36296  0.66447  0.28624  1.0000
  H   H859      1.0  0.49044  0.61004  0.03456  1.0000
  H   H860      1.0  0.26435  0.59380  0.00938  1.0000
  H   H861      1.0  0.27233  0.66839  0.21809  1.0000
  H   H862      1.0  0.35797  0.60034  0.23714  1.0000
  C   C492      1.0  0.37242  0.61250  0.99630  1.0000
  H   H863      1.0  0.48984  0.58063  0.23909  1.0000
  C   C493      1.0  0.45180  0.60892  0.31685  1.0000
  H   H864      1.0  0.36984  0.59014  0.45019  1.0000
  H   H865      1.0  0.27061  0.60734  0.44293  1.0000
  H   H866      1.0  0.46494  0.60055  0.01036  1.0000
  H   H867      1.0  0.35103  0.57084  0.35812  1.0000
  S   S140      1.0  0.25589  0.59195  0.37001  1.0000
  S   S141      1.0  0.48889  0.63974  0.41085  1.0000
  C   C494      1.0  0.26336  0.66956  0.14922  1.0000
  H   H868      1.0  0.48195  0.63385  0.35369  1.0000
  H   H869      1.0  0.33976  0.57801  0.32808  1.0000
  N   N36       1.0  0.47223  0.60980  0.32642  1.0000
  C   C495      1.0  0.44278  0.49822  0.03903  1.0000
  H   H870      1.0  0.36470  0.61593  0.25996  1.0000
  H   H871      1.0  0.45841  0.61825  0.01593  1.0000
  C   C496      1.0  0.49957  0.47740  0.24691  1.0000
  C   C497      1.0  0.39794  0.52599  0.42783  1.0000
  H   H872      1.0  0.47561  0.57864  0.17220  1.0000
  S   S142      1.0  0.32119  0.66094  0.09717  1.0000
  H   H873      1.0  0.46603  0.46639  0.24949  1.0000
  H   H874      1.0  0.37566  0.65883  0.32373  1.0000
  C   C498      1.0  0.30282  0.64705  0.47618  1.0000
  S   S143      1.0  0.25844  0.64029  0.04290  1.0000
  C   C499      1.0  0.26356  0.65998  0.26406  1.0000
  H   H875      1.0  0.39274  0.65073  0.28352  1.0000
  H   H876      1.0  0.38895  0.59198  0.43365  1.0000
  H   H877      1.0  0.26521  0.66424  0.16735  1.0000
  H   H878      1.0  0.27943  0.59214  0.44707  1.0000
  H   H879      1.0  0.40238  0.60306  0.42361  1.0000
  C   C500      1.0  0.36499  0.60110  0.99265  1.0000
  C   C501      1.0  0.39273  0.60166  0.42732  1.0000
  H   H880      1.0  0.41328  0.53060  0.44352  1.0000
  H   H881      1.0  0.47918  0.45426  0.24041  1.0000
  H   H882      1.0  0.29592  0.61835  0.99952  1.0000
  H   H883      1.0  0.48266  0.61205  0.25328  1.0000
  H   H884      1.0  0.49479  0.47913  0.26674  1.0000
  C   C502      1.0  0.27064  0.58578  0.45499  1.0000
  C   C503      1.0  0.35613  0.64350  0.47748  1.0000
  C   C504      1.0  0.25233  0.66685  0.30102  1.0000
  C   C505      1.0  0.49291  0.45648  0.27556  1.0000
  H   H885      1.0  0.49598  0.55801  0.23033  1.0000
  C   C506      1.0  0.26432  0.61990  0.46214  1.0000
  C   C507      1.0  0.37661  0.52735  0.47454  1.0000
  H   H886      1.0  0.48736  0.60098  0.99043  1.0000
  C   C508      1.0  0.37999  0.62600  0.41547  1.0000
  C   C509      1.0  0.44747  0.55544  0.99147  1.0000
  C   C510      1.0  0.30444  0.64315  0.98532  1.0000
  H   H887      1.0  0.26566  0.58703  0.43868  1.0000
  H   H888      1.0  0.37288  0.60803  0.41463  1.0000
  H   H889      1.0  0.36321  0.61395  0.43574  1.0000
  H   H890      1.0  0.27484  0.65450  0.23209  1.0000
  N   N37       1.0  0.25560  0.66796  0.26923  1.0000
  H   H891      1.0  0.49643  0.59672  0.01379  1.0000
  H   H892      1.0  0.33667  0.65591  0.99529  1.0000
  C   C511      1.0  0.32286  0.64493  0.46220  1.0000
  H   H893      1.0  0.38205  0.58879  0.99828  1.0000
  H   H894      1.0  0.49781  0.41515  0.98283  1.0000
  C   C512      1.0  0.26023  0.66917  0.98474  1.0000
  H   H895      1.0  0.29796  0.65827  0.99148  1.0000
  H   H896      1.0  0.48482  0.46836  0.21585  1.0000
  H   H897      1.0  0.36905  0.62018  0.98855  1.0000
  H   H898      1.0  0.49655  0.43226  0.99551  1.0000
  H   H899      1.0  0.32228  0.62145  0.47627  1.0000
  C   C513      1.0  0.49977  0.44886  0.22106  1.0000
  H   H900      1.0  0.25265  0.64889  0.32236  1.0000
  H   H901      1.0  0.48439  0.43678  0.98520  1.0000
  C   C514      1.0  0.28999  0.64417  0.47411  1.0000
  Fe  Fe67      1.0  0.25191  0.64584  0.08274  1.0000
  C   C515      1.0  0.37317  0.61416  0.47932  1.0000
  H   H902      1.0  0.36501  0.61703  0.47953  1.0000
  C   C516      1.0  0.31264  0.61808  0.48159  1.0000
  H   H903      1.0  0.26312  0.62271  0.48228  1.0000
  C   C517      1.0  0.30436  0.61750  0.98730  1.0000
  C   C518      1.0  0.31477  0.62764  0.98650  1.0000
  Fe  Fe68      1.0  0.46261  0.53399  0.62539  1.0000
  S   S144      1.0  0.44277  0.52837  0.64054  1.0000
  S   S145      1.0  0.47660  0.52494  0.60891  1.0000
  Fe  Fe69      1.0  0.46329  0.55945  0.62503  1.0000
  S   S146      1.0  0.44379  0.55600  0.64010  1.0000
  S   S147      1.0  0.47480  0.57790  0.61416  1.0000
  Fe  Fe70      1.0  0.44485  0.54001  0.67115  1.0000
  S   S148      1.0  0.43592  0.53456  0.71925  1.0000
  Fe  Fe71      1.0  0.44315  0.54495  0.60825  1.0000
  S   S149      1.0  0.43061  0.54828  0.57998  1.0000
  S   S150      1.0  0.46453  0.54426  0.65812  1.0000
  S   S151      1.0  0.46267  0.54976  0.59121  1.0000
  C   C519      1.0  0.37881  0.55707  0.81744  1.0000
  C   C520      1.0  0.47807  0.58302  0.87355  1.0000
  H   H904      1.0  0.46808  0.62914  0.90965  1.0000
  H   H905      1.0  0.39283  0.58125  0.83852  1.0000
  H   H906      1.0  0.39248  0.53872  0.86297  1.0000
  C   C521      1.0  0.39784  0.57225  0.80465  1.0000
  H   H907      1.0  0.37891  0.62343  0.94168  1.0000
  H   H908      1.0  0.40141  0.55975  0.85133  1.0000
  H   H909      1.0  0.25921  0.67015  0.72296  1.0000
  H   H910      1.0  0.45817  0.61459  0.53718  1.0000
  Fe  Fe72      1.0  0.42575  0.56867  0.85057  1.0000
  S   S152      1.0  0.41571  0.58224  0.85741  1.0000
  S   S153      1.0  0.42949  0.56821  0.80329  1.0000
  Fe  Fe73      1.0  0.42884  0.56472  0.91309  1.0000
  S   S154      1.0  0.41869  0.57768  0.92348  1.0000
  H   H911      1.0  0.30244  0.64678  0.49896  1.0000
  Fe  Fe74      1.0  0.40631  0.56984  0.90004  1.0000
  S   S155      1.0  0.38660  0.56491  0.91858  1.0000
  Fe  Fe75      1.0  0.42899  0.58887  0.87988  1.0000
  S   S156      1.0  0.43814  0.60795  0.87182  1.0000
  S   S157      1.0  0.41554  0.55566  0.89266  1.0000
  S   S158      1.0  0.43980  0.57646  0.87011  1.0000
  H   H912      1.0  0.39391  0.65462  0.76789  1.0000
  S   S159      1.0  0.36084  0.64004  0.62176  1.0000
  C   C522      1.0  0.34517  0.62095  0.51276  1.0000
  Fe  Fe76      1.0  0.33584  0.65430  0.60805  1.0000
  S   S160      1.0  0.33345  0.63481  0.62002  1.0000
  H   H913      1.0  0.32097  0.65055  0.50254  1.0000
  Fe  Fe77      1.0  0.34352  0.63802  0.65223  1.0000
  S   S161      1.0  0.33702  0.62525  0.69614  1.0000
  Fe  Fe78      1.0  0.35079  0.63860  0.58829  1.0000
  S   S162      1.0  0.35162  0.62587  0.56001  1.0000
  H   H914      1.0  0.27325  0.58186  0.94611  1.0000
  H   H915      1.0  0.46176  0.58129  0.56179  1.0000
  Fe  Fe79      1.0  0.34520  0.62699  0.84408  1.0000
  S   S163      1.0  0.33132  0.61003  0.85403  1.0000
  S   S164      1.0  0.35291  0.64009  0.80085  1.0000
  Fe  Fe80      1.0  0.34428  0.62513  0.90744  1.0000
  S   S165      1.0  0.33027  0.60815  0.92222  1.0000
  H   H916      1.0  0.37780  0.54081  0.86689  1.0000
  Fe  Fe81      1.0  0.34123  0.60342  0.88548  1.0000
  S   S166      1.0  0.34418  0.58515  0.89099  1.0000
  Fe  Fe82      1.0  0.32171  0.61632  0.88948  1.0000
  S   S167      1.0  0.30327  0.61913  0.89838  1.0000
  S   S168      1.0  0.35578  0.61994  0.87285  1.0000
  S   S169      1.0  0.33509  0.63372  0.87743  1.0000
  H   H917      1.0  0.26349  0.61466  0.71591  1.0000
  Fe  Fe83      1.0  0.26840  0.62951  0.56712  1.0000
  C   C523      1.0  0.29142  0.61174  0.62447  1.0000
  H   H918      1.0  0.36326  0.56355  0.82838  1.0000
  H   H919      1.0  0.29002  0.63616  0.81261  1.0000
  H   H920      1.0  0.36306  0.58321  0.94754  1.0000
  C   C524      1.0  0.29134  0.61258  0.88616  1.0000
  C   C525      1.0  0.28990  0.60132  0.88155  1.0000
  C   C526      1.0  0.27975  0.59604  0.87419  1.0000
  C   C527      1.0  0.27097  0.60197  0.87120  1.0000
  C   C528      1.0  0.27254  0.61334  0.87526  1.0000
  C   C529      1.0  0.28263  0.61857  0.88287  1.0000
  C   C530      1.0  0.48553  0.45893  0.61889  1.0000
  H   H921      1.0  0.27859  0.58722  0.87127  1.0000
  H   H922      1.0  0.26584  0.61799  0.87325  1.0000
  H   H923      1.0  0.28364  0.62728  0.88641  1.0000
  C   C531      1.0  0.35051  0.62972  0.52439  1.0000
  H   H924      1.0  0.40170  0.53126  0.51833  1.0000
  H   H925      1.0  0.37318  0.66245  0.71336  1.0000
  C   C532      1.0  0.38259  0.65678  0.80508  1.0000
  C   C533      1.0  0.25637  0.66881  0.60907  1.0000
  H   H926      1.0  0.37940  0.65041  0.72534  1.0000
  H   H927      1.0  0.36003  0.64786  0.51541  1.0000
  H   H928      1.0  0.43985  0.58609  0.59669  1.0000
  C   C534      1.0  0.34691  0.58619  0.96856  1.0000
  H   H929      1.0  0.34113  0.61212  0.52628  1.0000
  C   C535      1.0  0.34243  0.62946  0.72403  1.0000
  C   C536      1.0  0.34154  0.62079  0.74877  1.0000
  C   C537      1.0  0.34488  0.62396  0.77231  1.0000
  C   C538      1.0  0.34912  0.63583  0.77125  1.0000
  C   C539      1.0  0.35016  0.64449  0.74638  1.0000
  C   C540      1.0  0.34688  0.64132  0.72277  1.0000
  H   H930      1.0  0.33819  0.61159  0.74976  1.0000
  H   H931      1.0  0.34422  0.61721  0.79120  1.0000
  H   H932      1.0  0.35322  0.65369  0.74553  1.0000
  H   H933      1.0  0.34755  0.64806  0.70385  1.0000
  C   C541      1.0  0.31192  0.65320  0.58312  1.0000
  H   H934      1.0  0.45623  0.60022  0.50156  1.0000
  H   H935      1.0  0.26805  0.66229  0.66573  1.0000
  C   C542      1.0  0.29681  0.63863  0.56082  1.0000
  C   C543      1.0  0.29371  0.64826  0.56910  1.0000
  C   C544      1.0  0.30126  0.65553  0.58017  1.0000
  H   H936      1.0  0.46634  0.57055  0.53006  1.0000
  C   C545      1.0  0.30448  0.59866  0.81136  1.0000
  H   H937      1.0  0.28541  0.65004  0.56730  1.0000
  H   H938      1.0  0.47603  0.47638  0.63351  1.0000
  C   C546      1.0  0.36966  0.56039  0.83924  1.0000
  C   C547      1.0  0.46176  0.57416  0.69785  1.0000
  C   C548      1.0  0.37564  0.57129  0.90803  1.0000
  C   C549      1.0  0.36416  0.56414  0.91696  1.0000
  C   C550      1.0  0.35484  0.56858  0.91089  1.0000
  C   C551      1.0  0.35671  0.58038  0.89649  1.0000
  C   C552      1.0  0.36823  0.58767  0.88709  1.0000
  C   C553      1.0  0.37774  0.58308  0.89261  1.0000
  H   H939      1.0  0.48760  0.56638  0.73297  1.0000
  H   H940      1.0  0.34603  0.56286  0.91804  1.0000
  H   H941      1.0  0.36980  0.59677  0.87554  1.0000
  H   H942      1.0  0.38658  0.58869  0.88563  1.0000
  C   C554      1.0  0.46223  0.61070  0.93150  1.0000
  C   C555      1.0  0.45453  0.59991  0.93389  1.0000
  C   C556      1.0  0.44708  0.59912  0.91569  1.0000
  C   C557      1.0  0.44714  0.60914  0.89536  1.0000
  C   C558      1.0  0.45466  0.62001  0.89339  1.0000
  H   H943      1.0  0.38463  0.58234  0.81137  1.0000
  H   H944      1.0  0.26579  0.60934  0.66835  1.0000
  H   H945      1.0  0.44148  0.59067  0.91716  1.0000
  H   H946      1.0  0.44460  0.60457  0.55745  1.0000
  C   C559      1.0  0.42634  0.55481  0.49906  1.0000
  C   C560      1.0  0.26027  0.66216  0.63017  1.0000
  H   H947      1.0  0.29645  0.59653  0.88439  1.0000
  H   H948      1.0  0.29866  0.66276  0.58714  1.0000
  H   H949      1.0  0.48619  0.65442  0.50886  1.0000
  H   H950      1.0  0.25034  0.65578  0.73185  1.0000
  H   H951      1.0  0.39120  0.55392  0.76710  1.0000
  H   H952      1.0  0.39942  0.59065  0.80375  1.0000
  C   C561      1.0  0.50025  0.58539  0.54679  1.0000
  C   C562      1.0  0.39208  0.55731  0.85061  1.0000
  H   H953      1.0  0.31026  0.62925  0.55585  1.0000
  C   C563      1.0  0.43212  0.54842  0.54333  1.0000
  C   C564      1.0  0.42504  0.55386  0.52850  1.0000
  C   C565      1.0  0.25614  0.66072  0.76683  1.0000
  C   C566      1.0  0.25808  0.59924  0.51481  1.0000
  C   C567      1.0  0.49075  0.66258  0.51337  1.0000
  C   C568      1.0  0.44043  0.54377  0.52836  1.0000
  H   H954      1.0  0.41861  0.55753  0.53978  1.0000
  H   H955      1.0  0.26038  0.59927  0.71879  1.0000
  C   C569      1.0  0.26780  0.58490  0.96264  1.0000
  H   H956      1.0  0.44598  0.53960  0.53939  1.0000
  C   C570      1.0  0.43355  0.54385  0.74252  1.0000
  C   C571      1.0  0.43370  0.55566  0.73224  1.0000
  C   C572      1.0  0.43222  0.56285  0.75130  1.0000
  C   C573      1.0  0.43064  0.55840  0.78084  1.0000
  C   C574      1.0  0.43023  0.54653  0.79124  1.0000
  C   C575      1.0  0.43161  0.53930  0.77218  1.0000
  H   H957      1.0  0.43501  0.55926  0.70957  1.0000
  H   H958      1.0  0.43243  0.57199  0.74301  1.0000
  H   H959      1.0  0.42897  0.54293  0.81388  1.0000
  H   H960      1.0  0.43139  0.53016  0.78041  1.0000
  C   C576      1.0  0.48163  0.51332  0.62683  1.0000
  C   C577      1.0  0.26415  0.58674  0.48438  1.0000
  H   H961      1.0  0.49580  0.48181  0.60500  1.0000
  C   C578      1.0  0.48967  0.49396  0.65134  1.0000
  C   C579      1.0  0.47879  0.49556  0.66436  1.0000
  C   C580      1.0  0.47482  0.50523  0.65233  1.0000
  H   H962      1.0  0.48151  0.57686  0.55343  1.0000
  H   H963      1.0  0.48696  0.47161  0.53163  1.0000
  H   H964      1.0  0.47332  0.48919  0.68371  1.0000
  H   H965      1.0  0.46637  0.50625  0.66236  1.0000
  H   H966      1.0  0.40635  0.56193  0.76196  1.0000
  H   H967      1.0  0.49445  0.59834  0.82817  1.0000
  H   H968      1.0  0.37317  0.56741  0.84889  1.0000
  S   S170      1.0  0.47234  0.61099  0.95234  1.0000
  H   H969      1.0  0.38612  0.54421  0.89157  1.0000
  H   H970      1.0  0.39778  0.57416  0.78174  1.0000
  H   H971      1.0  0.45531  0.55436  0.97828  1.0000
  H   H972      1.0  0.26307  0.61712  0.93199  1.0000
  H   H973      1.0  0.43170  0.58055  0.50442  1.0000
  H   H974      1.0  0.35787  0.61029  0.94916  1.0000
  H   H975      1.0  0.37541  0.54745  0.81998  1.0000
  H   H976      1.0  0.29975  0.61175  0.63068  1.0000
  H   H977      1.0  0.25309  0.58055  0.54002  1.0000
  H   H978      1.0  0.48828  0.46222  0.63665  1.0000
  S   S171      1.0  0.35270  0.65808  0.57440  1.0000
  H   H979      1.0  0.49396  0.65222  0.68815  1.0000
  N   N38       1.0  0.39129  0.55967  0.82005  1.0000
  S   S172      1.0  0.25804  0.59473  0.86359  1.0000
  C   C581      1.0  0.49257  0.51179  0.61400  1.0000
  H   H980      1.0  0.37847  0.56147  0.79561  1.0000
  H   H981      1.0  0.36441  0.55249  0.85658  1.0000
  H   H982      1.0  0.37035  0.53058  0.48881  1.0000
  C   C582      1.0  0.27307  0.60951  0.67911  1.0000
  H   H983      1.0  0.44783  0.57091  0.57412  1.0000
  H   H984      1.0  0.27609  0.60150  0.67704  1.0000
  H   H985      1.0  0.30298  0.61084  0.76147  1.0000
  H   H986      1.0  0.33384  0.64512  0.95880  1.0000
  H   H987      1.0  0.45426  0.57663  0.70991  1.0000
  C   C583      1.0  0.49143  0.58924  0.63639  1.0000
  N   N39       1.0  0.36799  0.59839  0.96399  1.0000
  H   H988      1.0  0.37371  0.65800  0.81238  1.0000
  H   H989      1.0  0.25694  0.57851  0.49382  1.0000
  C   C584      1.0  0.48648  0.46404  0.54942  1.0000
  N   N40       1.0  0.48210  0.46839  0.59960  1.0000
  N   N41       1.0  0.28285  0.62059  0.66497  1.0000
  N   N42       1.0  0.26211  0.60393  0.97027  1.0000
  H   H990      1.0  0.43611  0.59594  0.50402  1.0000
  C   C585      1.0  0.27821  0.63092  0.67057  1.0000
  C   C586      1.0  0.29298  0.61963  0.67802  1.0000
  H   H991      1.0  0.46028  0.58452  0.89219  1.0000
  H   H992      1.0  0.25680  0.62039  0.96366  1.0000
  C   C587      1.0  0.28473  0.64322  0.65066  1.0000
  C   C588      1.0  0.30469  0.62905  0.66382  1.0000
  H   H993      1.0  0.31918  0.63297  0.93306  1.0000
  H   H994      1.0  0.36445  0.60012  0.51903  1.0000
  H   H995      1.0  0.29214  0.62991  0.62089  1.0000
  H   H996      1.0  0.38920  0.66310  0.81087  1.0000
  H   H997      1.0  0.26896  0.62958  0.66899  1.0000
  H   H998      1.0  0.27796  0.63159  0.69278  1.0000
  H   H999      1.0  0.29067  0.62001  0.70068  1.0000
  H   H1000     1.0  0.29480  0.61081  0.67950  1.0000
  H   H1001     1.0  0.48475  0.49431  0.58303  1.0000
  Fe  Fe84      1.0  0.36126  0.65933  0.61072  1.0000
  C   C589      1.0  0.35998  0.58657  0.96627  1.0000
  H   H1002     1.0  0.26678  0.60145  0.51969  1.0000
  H   H1003     1.0  0.45463  0.46626  0.64438  1.0000
  H   H1004     1.0  0.29356  0.61352  0.60081  1.0000
  H   H1005     1.0  0.29432  0.64537  0.64756  1.0000
  H   H1006     1.0  0.28153  0.65000  0.65992  1.0000
  H   H1007     1.0  0.28272  0.64417  0.62957  1.0000
  H   H1008     1.0  0.30527  0.63666  0.67346  1.0000
  H   H1009     1.0  0.30647  0.63230  0.64040  1.0000
  H   H1010     1.0  0.31201  0.62507  0.66711  1.0000
  S   S173      1.0  0.43927  0.55690  0.94282  1.0000
  H   H1011     1.0  0.40261  0.54641  0.76712  1.0000
  H   H1012     1.0  0.40724  0.57377  0.80498  1.0000
  C   C590      1.0  0.39941  0.55375  0.77375  1.0000
  H   H1013     1.0  0.38029  0.60466  0.51222  1.0000
  H   H1014     1.0  0.38521  0.65996  0.69022  1.0000
  H   H1015     1.0  0.38791  0.56290  0.86230  1.0000
  C   C591      1.0  0.49652  0.60583  0.90243  1.0000
  C   C592      1.0  0.38566  0.65742  0.77298  1.0000
  C   C593      1.0  0.39474  0.54900  0.48983  1.0000
  H   H1016     1.0  0.27878  0.60252  0.94663  1.0000
  H   H1017     1.0  0.44680  0.56899  0.52552  1.0000
  H   H1018     1.0  0.40635  0.55248  0.81069  1.0000
  H   H1019     1.0  0.26337  0.65640  0.76209  1.0000
  H   H1020     1.0  0.47144  0.46905  0.56940  1.0000
  H   H1021     1.0  0.35039  0.58486  0.49152  1.0000
  H   H1022     1.0  0.44653  0.61205  0.52063  1.0000
  H   H1023     1.0  0.29553  0.63792  0.77470  1.0000
  H   H1024     1.0  0.48595  0.56028  0.63705  1.0000
  H   H1025     1.0  0.28526  0.60286  0.63287  1.0000
  S   S174      1.0  0.48921  0.64439  0.90948  1.0000
  C   C594      1.0  0.49022  0.57628  0.54222  1.0000
  H   H1026     1.0  0.31717  0.64924  0.89643  1.0000
  H   H1027     1.0  0.40915  0.66941  0.76518  1.0000
  H   H1028     1.0  0.37138  0.61384  0.52409  1.0000
  S   S175      1.0  0.26309  0.63531  0.60685  1.0000
  S   S176      1.0  0.35201  0.63587  0.93490  1.0000
  H   H1029     1.0  0.46627  0.59608  0.84285  1.0000
  H   H1030     1.0  0.48483  0.63151  0.71510  1.0000
  C   C595      1.0  0.48610  0.57856  0.63167  1.0000
  H   H1031     1.0  0.49690  0.60495  0.92499  1.0000
  H   H1032     1.0  0.36243  0.55505  0.92885  1.0000
  H   H1033     1.0  0.49810  0.58161  0.75051  1.0000
  H   H1034     1.0  0.30750  0.59626  0.79111  1.0000
  C   C596      1.0  0.49627  0.59829  0.84932  1.0000
  H   H1035     1.0  0.28327  0.62181  0.94296  1.0000
  H   H1036     1.0  0.39272  0.54230  0.81579  1.0000
  H   H1037     1.0  0.49764  0.44758  0.98169  1.0000
  H   H1038     1.0  0.25427  0.60681  0.51687  1.0000
  H   H1039     1.0  0.46144  0.56986  0.89352  1.0000
  C   C597      1.0  0.45078  0.60759  0.53607  1.0000
  H   H1040     1.0  0.46330  0.45653  0.65394  1.0000
  C   C598      1.0  0.25176  0.66385  0.73974  1.0000
  H   H1041     1.0  0.49789  0.51799  0.59425  1.0000
  H   H1042     1.0  0.28881  0.61310  0.79772  1.0000
  H   H1043     1.0  0.32643  0.63750  0.50322  1.0000
  C   C599      1.0  0.45577  0.59803  0.52476  1.0000
  C   C600      1.0  0.26507  0.66745  0.64943  1.0000
  H   H1044     1.0  0.36758  0.66387  0.76404  1.0000
  C   C601      1.0  0.49410  0.43860  0.97959  1.0000
  H   H1045     1.0  0.46686  0.57719  0.91788  1.0000
  Fe  Fe85      1.0  0.48538  0.62823  0.94526  1.0000
  H   H1046     1.0  0.37256  0.62508  0.91222  1.0000
  C   C602      1.0  0.48732  0.59507  0.90129  1.0000
  H   H1047     1.0  0.45472  0.62777  0.87769  1.0000
  C   C603      1.0  0.38675  0.54448  0.86870  1.0000
  C   C604      1.0  0.44140  0.54431  0.49915  1.0000
  H   H1048     1.0  0.28541  0.65006  0.48396  1.0000
  C   C605      1.0  0.32649  0.64616  0.48980  1.0000
  H   H1049     1.0  0.33563  0.65172  0.48400  1.0000
  C   C606      1.0  0.26756  0.60753  0.71134  1.0000
  N   N43       1.0  0.47040  0.56966  0.74147  1.0000
  C   C607      1.0  0.46319  0.57555  0.75986  1.0000
  C   C608      1.0  0.47242  0.57616  0.71063  1.0000
  C   C609      1.0  0.48210  0.57004  0.74808  1.0000
  C   C610      1.0  0.46388  0.55695  0.74726  1.0000
  C   C611      1.0  0.46102  0.57086  0.79246  1.0000
  S   S177      1.0  0.48600  0.63773  0.97950  1.0000
  C   C612      1.0  0.47256  0.47206  0.61798  1.0000
  C   C613      1.0  0.46966  0.54961  0.72907  1.0000
  H   H1050     1.0  0.46716  0.58523  0.75428  1.0000
  H   H1051     1.0  0.45438  0.57469  0.75572  1.0000
  H   H1052     1.0  0.47960  0.57395  0.69664  1.0000
  H   H1053     1.0  0.47549  0.58585  0.70756  1.0000
  H   H1054     1.0  0.48108  0.56424  0.76958  1.0000
  C   C614      1.0  0.46602  0.57855  0.89559  1.0000
  H   H1055     1.0  0.46273  0.55220  0.76985  1.0000
  H   H1056     1.0  0.45476  0.55607  0.74548  1.0000
  H   H1057     1.0  0.46926  0.57149  0.79936  1.0000
  H   H1058     1.0  0.45611  0.57630  0.80328  1.0000
  H   H1059     1.0  0.45542  0.56169  0.80032  1.0000
  H   H1060     1.0  0.36413  0.60365  0.92301  1.0000
  H   H1061     1.0  0.49845  0.63542  0.84883  1.0000
  H   H1062     1.0  0.40877  0.51456  0.53142  1.0000
  C   C615      1.0  0.49748  0.56867  0.65900  1.0000
  H   H1063     1.0  0.30669  0.59253  0.82833  1.0000
  H   H1064     1.0  0.27648  0.63369  0.93712  1.0000
  C   C616      1.0  0.32634  0.64803  0.96956  1.0000
  H   H1065     1.0  0.47479  0.55476  0.70731  1.0000
  H   H1066     1.0  0.46270  0.54270  0.72595  1.0000
  C   C617      1.0  0.46223  0.62078  0.91144  1.0000
  H   H1067     1.0  0.48340  0.45605  0.54214  1.0000
  C   C618      1.0  0.39324  0.58199  0.81565  1.0000
  S   S178      1.0  0.25881  0.63997  0.54180  1.0000
  H   H1068     1.0  0.47163  0.58558  0.50757  1.0000
  C   C619      1.0  0.39755  0.55172  0.80636  1.0000
  C   C620      1.0  0.36587  0.60750  0.94089  1.0000
  H   H1069     1.0  0.43144  0.57406  0.55485  1.0000
  C   C621      1.0  0.45220  0.58052  0.56562  1.0000
  N   N44       1.0  0.30737  0.62106  0.79105  1.0000
  C   C622      1.0  0.31079  0.61142  0.80986  1.0000
  C   C623      1.0  0.31547  0.63262  0.79016  1.0000
  H   H1070     1.0  0.49744  0.44770  0.62175  1.0000
  C   C624      1.0  0.29461  0.62032  0.80324  1.0000
  N   N45       1.0  0.31493  0.63981  0.97018  1.0000
  C   C625      1.0  0.31554  0.63521  0.81941  1.0000
  H   H1071     1.0  0.31166  0.66248  0.96659  1.0000
  C   C626      1.0  0.29042  0.63161  0.79513  1.0000
  H   H1072     1.0  0.32039  0.61229  0.80285  1.0000
  H   H1073     1.0  0.30908  0.61213  0.83232  1.0000
  H   H1074     1.0  0.31353  0.64026  0.77707  1.0000
  H   H1075     1.0  0.32465  0.63302  0.77941  1.0000
  H   H1076     1.0  0.39316  0.58842  0.96869  1.0000
  H   H1077     1.0  0.46935  0.47876  0.60480  1.0000
  H   H1078     1.0  0.29675  0.62334  0.49124  1.0000
  H   H1079     1.0  0.29257  0.61788  0.82691  1.0000
  H   H1080     1.0  0.25976  0.66870  0.77344  1.0000
  H   H1081     1.0  0.26723  0.59947  0.93016  1.0000
  H   H1082     1.0  0.27393  0.60638  0.72427  1.0000
  H   H1083     1.0  0.30658  0.63367  0.83310  1.0000
  H   H1084     1.0  0.32046  0.62989  0.83093  1.0000
  H   H1085     1.0  0.32019  0.64459  0.81606  1.0000
  N   N46       1.0  0.48501  0.59513  0.87242  1.0000
  S   S179      1.0  0.28685  0.62871  0.55006  1.0000
  H   H1086     1.0  0.47188  0.45458  0.58589  1.0000
  N   N47       1.0  0.44909  0.58533  0.53830  1.0000
  H   H1087     1.0  0.45451  0.59206  0.94930  1.0000
  H   H1088     1.0  0.49415  0.61420  0.89525  1.0000
  C   C627      1.0  0.47739  0.46380  0.57683  1.0000
  H   H1089     1.0  0.46425  0.57983  0.67566  1.0000
  H   H1090     1.0  0.38336  0.61695  0.91261  1.0000
  C   C628      1.0  0.31937  0.65080  0.91633  1.0000
  H   H1091     1.0  0.32294  0.62525  0.97742  1.0000
  C   C629      1.0  0.38365  0.58775  0.97619  1.0000
  H   H1092     1.0  0.48996  0.58704  0.91026  1.0000
  C   C630      1.0  0.48952  0.58237  0.74649  1.0000
  H   H1093     1.0  0.38237  0.64781  0.81720  1.0000
  H   H1094     1.0  0.49070  0.57695  0.51933  1.0000
  S   S180      1.0  0.32051  0.66148  0.60050  1.0000
  H   H1095     1.0  0.41444  0.53258  0.49130  1.0000
  C   C631      1.0  0.30775  0.63666  0.56230  1.0000
  H   H1096     1.0  0.45789  0.45672  0.62214  1.0000
  H   H1097     1.0  0.48208  0.59540  0.55129  1.0000
  C   C632      1.0  0.39043  0.66806  0.72275  1.0000
  H   H1098     1.0  0.40999  0.51114  0.49793  1.0000
  H   H1099     1.0  0.32909  0.65350  0.91151  1.0000
  H   H1100     1.0  0.46503  0.59943  0.52614  1.0000
  H   H1101     1.0  0.34561  0.59167  0.94908  1.0000
  C   C633      1.0  0.28594  0.62140  0.63338  1.0000
  H   H1102     1.0  0.47998  0.60576  0.81942  1.0000
  H   H1103     1.0  0.49791  0.62019  0.53137  1.0000
  H   H1104     1.0  0.29874  0.65594  0.95630  1.0000
  C   C634      1.0  0.48950  0.61386  0.54368  1.0000
  C   C635      1.0  0.46518  0.57701  0.51200  1.0000
  C   C636      1.0  0.37233  0.60767  0.51028  1.0000
  C   C637      1.0  0.49738  0.64851  0.70629  1.0000
  H   H1105     1.0  0.38693  0.60576  0.95336  1.0000
  C   C638      1.0  0.37584  0.61881  0.92641  1.0000
  H   H1106     1.0  0.38279  0.52393  0.51253  1.0000
  H   H1107     1.0  0.49089  0.56729  0.55171  1.0000
  H   H1108     1.0  0.45141  0.58155  0.60913  1.0000
  H   H1109     1.0  0.35199  0.60023  0.48407  1.0000
  H   H1110     1.0  0.47099  0.60338  0.88398  1.0000
  C   C639      1.0  0.48951  0.56839  0.64199  1.0000
  H   H1111     1.0  0.35909  0.64805  0.97487  1.0000
  H   H1112     1.0  0.43259  0.58829  0.55945  1.0000
  H   H1113     1.0  0.48533  0.58637  0.76281  1.0000
  H   H1114     1.0  0.49848  0.49660  0.55832  1.0000
  S   S181      1.0  0.34443  0.65733  0.64314  1.0000
  C   C640      1.0  0.40469  0.51484  0.51315  1.0000
  C   C641      1.0  0.44928  0.58642  0.59006  1.0000
  H   H1115     1.0  0.45485  0.59555  0.58476  1.0000
  C   C642      1.0  0.31531  0.64396  0.57334  1.0000
  H   H1116     1.0  0.30704  0.62862  0.50928  1.0000
  H   H1117     1.0  0.37900  0.57877  0.97603  1.0000
  C   C643      1.0  0.38566  0.52337  0.49005  1.0000
  C   C644      1.0  0.38143  0.65970  0.71286  1.0000
  H   H1118     1.0  0.39849  0.66483  0.71951  1.0000
  H   H1119     1.0  0.47672  0.58250  0.85221  1.0000
  C   C645      1.0  0.49001  0.48998  0.56938  1.0000
  H   H1120     1.0  0.49194  0.64995  0.72576  1.0000
  H   H1121     1.0  0.32370  0.64234  0.57449  1.0000
  H   H1122     1.0  0.47912  0.59461  0.91722  1.0000
  H   H1123     1.0  0.49541  0.46407  0.55164  1.0000
  C   C646      1.0  0.43597  0.58350  0.54412  1.0000
  C   C647      1.0  0.49965  0.58959  0.65279  1.0000
  C   C648      1.0  0.30934  0.61898  0.76160  1.0000
  H   H1124     1.0  0.49928  0.58331  0.57026  1.0000
  H   H1125     1.0  0.45900  0.56494  0.69639  1.0000
  H   H1126     1.0  0.47550  0.54532  0.73982  1.0000
  H   H1127     1.0  0.48301  0.57636  0.87899  1.0000
  C   C649      1.0  0.47319  0.60426  0.83953  1.0000
  C   C650      1.0  0.47838  0.60427  0.86558  1.0000
  H   H1128     1.0  0.31575  0.65811  0.92117  1.0000
  N   N48       1.0  0.38665  0.66911  0.75299  1.0000
  C   C651      1.0  0.31431  0.63925  0.94025  1.0000
  H   H1129     1.0  0.49144  0.58837  0.72494  1.0000
  C   C652      1.0  0.49242  0.47906  0.58744  1.0000
  H   H1130     1.0  0.32754  0.65707  0.95651  1.0000
  H   H1131     1.0  0.38233  0.59562  0.93422  1.0000
  S   S182      1.0  0.25394  0.61292  0.58177  1.0000
  C   C653      1.0  0.46153  0.46218  0.63538  1.0000
  H   H1132     1.0  0.29938  0.62954  0.73942  1.0000
  H   H1133     1.0  0.47796  0.45112  0.62921  1.0000
  H   H1134     1.0  0.27802  0.62117  0.62502  1.0000
  H   H1135     1.0  0.28123  0.62903  0.79349  1.0000
  Fe  Fe86      1.0  0.49136  0.65423  0.94318  1.0000
  C   C654      1.0  0.26386  0.61657  0.95422  1.0000
  C   C655      1.0  0.35581  0.64107  0.50673  1.0000
  H   H1136     1.0  0.39935  0.54918  0.50702  1.0000
  H   H1137     1.0  0.46852  0.65836  0.89771  1.0000
  C   C656      1.0  0.26926  0.59823  0.95127  1.0000
  H   H1138     1.0  0.31110  0.62623  0.71696  1.0000
  H   H1139     1.0  0.29481  0.59708  0.81703  1.0000
  C   C657      1.0  0.49853  0.43755  0.94888  1.0000
  C   C658      1.0  0.30849  0.62875  0.73722  1.0000
  H   H1140     1.0  0.46709  0.57352  0.49289  1.0000
  H   H1141     1.0  0.46886  0.61160  0.83668  1.0000
  H   H1142     1.0  0.33954  0.61350  0.97717  1.0000
  H   H1143     1.0  0.48312  0.61448  0.53045  1.0000
  C   C659      1.0  0.34957  0.63116  0.97237  1.0000
  H   H1144     1.0  0.46840  0.66497  0.86205  1.0000
  H   H1145     1.0  0.48895  0.59718  0.62820  1.0000
  H   H1146     1.0  0.30509  0.63571  0.93967  1.0000
  H   H1147     1.0  0.31471  0.63734  0.73449  1.0000
  H   H1148     1.0  0.42194  0.58691  0.52463  1.0000
  H   H1149     1.0  0.31816  0.61741  0.75499  1.0000
  H   H1150     1.0  0.48403  0.61329  0.86193  1.0000
  H   H1151     1.0  0.49164  0.59636  0.50218  1.0000
  C   C660      1.0  0.49042  0.60103  0.55250  1.0000
  H   H1152     1.0  0.49246  0.44873  0.59023  1.0000
  C   C661      1.0  0.38044  0.59739  0.95572  1.0000
  H   H1153     1.0  0.48653  0.61688  0.56306  1.0000
  C   C662      1.0  0.46889  0.66683  0.88286  1.0000
  C   C663      1.0  0.45245  0.57810  0.51778  1.0000
  S   S183      1.0  0.47940  0.66633  0.95223  1.0000
  H   H1154     1.0  0.45101  0.58166  0.49659  1.0000
  H   H1155     1.0  0.37874  0.65036  0.77020  1.0000
  C   C664      1.0  0.27573  0.62507  0.95183  1.0000
  C   C665      1.0  0.49532  0.45393  0.60484  1.0000
  H   H1156     1.0  0.28510  0.63502  0.48597  1.0000
  C   C666      1.0  0.30324  0.65566  0.97379  1.0000
  H   H1157     1.0  0.25865  0.57967  0.96653  1.0000
  H   H1158     1.0  0.30379  0.61666  0.96568  1.0000
  H   H1159     1.0  0.48558  0.48786  0.55287  1.0000
  H   H1160     1.0  0.30203  0.66616  0.66949  1.0000
  Fe  Fe87      1.0  0.25210  0.64433  0.58325  1.0000
  C   C667      1.0  0.30621  0.62745  0.48806  1.0000
  H   H1161     1.0  0.49003  0.59875  0.57565  1.0000
  H   H1162     1.0  0.49437  0.62604  0.81027  1.0000
  S   S184      1.0  0.25072  0.66262  0.58386  1.0000
  H   H1163     1.0  0.49312  0.42920  0.94705  1.0000
  H   H1164     1.0  0.31010  0.61055  0.50087  1.0000
  C   C668      1.0  0.43132  0.58699  0.51758  1.0000
  H   H1165     1.0  0.50000  0.47719  0.57404  1.0000
  H   H1166     1.0  0.38527  0.54485  0.49931  1.0000
  H   H1167     1.0  0.48413  0.66763  0.51731  1.0000
  C   C669      1.0  0.40502  0.52778  0.49998  1.0000
  H   H1168     1.0  0.25944  0.65293  0.63200  1.0000
  C   C670      1.0  0.43820  0.55729  0.97922  1.0000
  H   H1169     1.0  0.44763  0.54039  0.48801  1.0000
  H   H1170     1.0  0.27637  0.62676  0.97275  1.0000
  H   H1171     1.0  0.38452  0.51379  0.49155  1.0000
  H   H1172     1.0  0.49792  0.63310  0.68861  1.0000
  C   C671      1.0  0.49664  0.50226  0.62632  1.0000
  H   H1173     1.0  0.49625  0.44455  0.93414  1.0000
  H   H1174     1.0  0.37059  0.58966  0.48524  1.0000
  S   S185      1.0  0.49374  0.48102  0.66573  1.0000
  H   H1175     1.0  0.49367  0.65982  0.53298  1.0000
  C   C672      1.0  0.43440  0.54986  0.48426  1.0000
  H   H1176     1.0  0.49962  0.56063  0.66805  1.0000
  H   H1177     1.0  0.39564  0.50909  0.52176  1.0000
  H   H1178     1.0  0.42095  0.55918  0.48797  1.0000
  H   H1179     1.0  0.49781  0.63030  0.72606  1.0000
  H   H1180     1.0  0.45053  0.66430  0.90035  1.0000
  C   C673      1.0  0.34523  0.62346  0.48364  1.0000
  C   C674      1.0  0.49450  0.63511  0.70917  1.0000
  H   H1181     1.0  0.27051  0.58625  0.49782  1.0000
  H   H1182     1.0  0.34205  0.57701  0.97058  1.0000
  N   N49       1.0  0.25947  0.59749  0.48503  1.0000
  H   H1183     1.0  0.50015  0.63938  0.59077  1.0000
  H   H1184     1.0  0.27098  0.58288  0.98213  1.0000
  S   S186      1.0  0.44523  0.95414  0.16185  1.0000
  H   H1185     1.0  0.28157  0.77779  0.34060  1.0000
  H   H1186     1.0  0.35264  0.85690  0.99529  1.0000
  H   H1187     1.0  0.40776  0.81661  0.32510  1.0000
  C   C675      1.0  0.47488  0.70109  0.00855  1.0000
  H   H1188     1.0  0.41081  0.84216  0.30898  1.0000
  C   C676      1.0  0.38819  0.84270  0.32308  1.0000
  H   H1189     1.0  0.31221  0.78273  0.03068  1.0000
  S   S187      1.0  0.26330  0.73716  0.08232  1.0000
  H   H1190     1.0  0.47445  0.71965  0.00601  1.0000
  H   H1191     1.0  0.28168  0.74890  0.02955  1.0000
  S   S188      1.0  0.26744  0.73053  0.41104  1.0000
  Fe  Fe88      1.0  0.41464  0.92877  0.46228  1.0000
  H   H1192     1.0  0.45689  0.96318  0.02173  1.0000
  C   C677      1.0  0.41729  0.95151  0.28620  1.0000
  Fe  Fe89      1.0  0.42328  0.93170  0.39639  1.0000
  S   S189      1.0  0.42430  0.91290  0.40379  1.0000
  S   S190      1.0  0.43319  0.94303  0.35082  1.0000
  Fe  Fe90      1.0  0.40657  0.90787  0.43520  1.0000
  S   S191      1.0  0.39526  0.89040  0.43060  1.0000
  Fe  Fe91      1.0  0.43195  0.91589  0.43996  1.0000
  S   S192      1.0  0.44807  0.91017  0.44661  1.0000
  S   S193      1.0  0.40516  0.92688  0.42699  1.0000
  S   S194      1.0  0.43228  0.93501  0.43084  1.0000
  Fe  Fe92      1.0  0.47558  0.85264  0.44991  1.0000
  H   H1193     1.0  0.43554  0.98602  0.31036  1.0000
  S   S195      1.0  0.48424  0.87265  0.43455  1.0000
  C   C678      1.0  0.25842  0.73425  0.03211  1.0000
  C   C679      1.0  0.39269  0.69989  0.08022  1.0000
  C   C680      1.0  0.47598  0.92947  0.46440  1.0000
  Fe  Fe93      1.0  0.45588  0.83502  0.43719  1.0000
  S   S196      1.0  0.44302  0.82997  0.41125  1.0000
  C   C681      1.0  0.26033  0.71754  0.01256  1.0000
  H   H1194     1.0  0.29439  0.79434  0.11726  1.0000
  S   S197      1.0  0.47548  0.83996  0.42142  1.0000
  C   C682      1.0  0.43402  0.79884  0.04460  1.0000
  Fe  Fe94      1.0  0.45102  0.81672  0.19755  1.0000
  S   S198      1.0  0.43334  0.80384  0.21069  1.0000
  S   S199      1.0  0.46275  0.82191  0.15262  1.0000
  Fe  Fe95      1.0  0.45053  0.81835  0.25878  1.0000
  S   S200      1.0  0.43283  0.80561  0.27672  1.0000
  S   S201      1.0  0.46206  0.82612  0.28480  1.0000
  Fe  Fe96      1.0  0.43948  0.79512  0.24733  1.0000
  S   S202      1.0  0.43609  0.77544  0.26362  1.0000
  Fe  Fe97      1.0  0.42820  0.81542  0.23860  1.0000
  S   S203      1.0  0.41031  0.81887  0.24547  1.0000
  S   S204      1.0  0.45760  0.80702  0.23227  1.0000
  S   S205      1.0  0.44544  0.82918  0.22267  1.0000
  Fe  Fe98      1.0  0.32345  0.81040  0.42796  1.0000
  S   S206      1.0  0.33524  0.79828  0.42963  1.0000
  Fe  Fe99      1.0  0.34399  0.83201  0.42713  1.0000
  S   S207      1.0  0.35670  0.82073  0.42756  1.0000
  S   S208      1.0  0.34954  0.85141  0.42959  1.0000
  Fe  Fe100     1.0  0.34852  0.81314  0.39603  1.0000
  S   S209      1.0  0.35875  0.80837  0.35826  1.0000
  Fe  Fe101     1.0  0.34194  0.80724  0.46100  1.0000
  H   H1195     1.0  0.31135  0.68042  0.08821  1.0000
  S   S210      1.0  0.33662  0.82524  0.39300  1.0000
  S   S211      1.0  0.32928  0.81855  0.46199  1.0000
  Fe  Fe102     1.0  0.36367  0.79947  0.17320  1.0000
  S   S212      1.0  0.35556  0.81476  0.16900  1.0000
  S   S213      1.0  0.38321  0.80255  0.15802  1.0000
  Fe  Fe103     1.0  0.34029  0.78141  0.19891  1.0000
  S   S214      1.0  0.33040  0.79531  0.19761  1.0000
  S   S215      1.0  0.32958  0.76265  0.21784  1.0000
  Fe  Fe104     1.0  0.34224  0.80341  0.15350  1.0000
  S   S216      1.0  0.33397  0.81018  0.11834  1.0000
  Fe  Fe105     1.0  0.34461  0.80515  0.21338  1.0000
  S   S217      1.0  0.34004  0.81501  0.24669  1.0000
  S   S218      1.0  0.35132  0.78888  0.15390  1.0000
  S   S219      1.0  0.35353  0.79048  0.21859  1.0000
  H   H1196     1.0  0.39725  0.82787  0.35249  1.0000
  S   S220      1.0  0.43307  0.73245  0.36298  1.0000
  C   C683      1.0  0.26232  0.68851  0.12282  1.0000
  C   C684      1.0  0.35245  0.83695  0.07102  1.0000
  H   H1197     1.0  0.29835  0.75693  0.08643  1.0000
  C   C685      1.0  0.35179  0.83792  0.00899  1.0000
  Fe  Fe106     1.0  0.41804  0.72986  0.18769  1.0000
  S   S221      1.0  0.43508  0.72553  0.18948  1.0000
  S   S222      1.0  0.41776  0.74883  0.17770  1.0000
  Fe  Fe107     1.0  0.40513  0.70453  0.19628  1.0000
  S   S223      1.0  0.42117  0.69799  0.19878  1.0000
  S   S224      1.0  0.38694  0.69316  0.20220  1.0000
  Fe  Fe108     1.0  0.42434  0.71046  0.22665  1.0000
  S   S225      1.0  0.43115  0.70498  0.26569  1.0000
  Fe  Fe109     1.0  0.43044  0.71371  0.16151  1.0000
  S   S226      1.0  0.44463  0.71500  0.12241  1.0000
  S   S227      1.0  0.40752  0.71575  0.22706  1.0000
  S   S228      1.0  0.41413  0.71923  0.15691  1.0000
  C   C686      1.0  0.38451  0.68439  0.17840  1.0000
  C   C687      1.0  0.39376  0.68361  0.15725  1.0000
  C   C688      1.0  0.39144  0.67694  0.13779  1.0000
  C   C689      1.0  0.44228  0.68380  0.03648  1.0000
  C   C690      1.0  0.25310  0.67677  0.99865  1.0000
  H   H1198     1.0  0.40267  0.68824  0.15566  1.0000
  H   H1199     1.0  0.34263  0.84928  0.02984  1.0000
  C   C691      1.0  0.37815  0.70639  0.13122  1.0000
  C   C692      1.0  0.43234  0.72441  0.33674  1.0000
  C   C693      1.0  0.29998  0.75762  0.06316  1.0000
  C   C694      1.0  0.43793  0.70988  0.31267  1.0000
  C   C695      1.0  0.43131  0.71252  0.29300  1.0000
  C   C696      1.0  0.42513  0.72110  0.29540  1.0000
  C   C697      1.0  0.42556  0.72692  0.31735  1.0000
  C   C698      1.0  0.37546  0.83871  0.34187  1.0000
  C   C699      1.0  0.45683  0.92039  0.45936  1.0000
  H   H1200     1.0  0.41997  0.72319  0.28049  1.0000
  H   H1201     1.0  0.42067  0.73346  0.31913  1.0000
  C   C700      1.0  0.44000  0.71478  0.09098  1.0000
  C   C701      1.0  0.43648  0.94097  0.04686  1.0000
  H   H1202     1.0  0.47310  0.82798  0.09260  1.0000
  H   H1203     1.0  0.30475  0.80919  0.35129  1.0000
  H   H1204     1.0  0.31035  0.80553  0.16477  1.0000
  H   H1205     1.0  0.47862  0.98783  0.15723  1.0000
  H   H1206     1.0  0.42692  0.69829  0.10945  1.0000
  H   H1207     1.0  0.25492  0.73237  0.99207  1.0000
  H   H1208     1.0  0.28287  0.76001  0.06306  1.0000
  S   S229      1.0  0.25964  0.73469  0.22038  1.0000
  C   C702      1.0  0.32504  0.75545  0.19287  1.0000
  C   C703      1.0  0.31455  0.74655  0.20151  1.0000
  C   C704      1.0  0.31032  0.74131  0.18147  1.0000
  C   C705      1.0  0.31666  0.74480  0.15278  1.0000
  C   C706      1.0  0.32746  0.75326  0.14440  1.0000
  C   C707      1.0  0.33157  0.75867  0.16435  1.0000
  H   H1209     1.0  0.30951  0.74396  0.22358  1.0000
  H   H1210     1.0  0.30202  0.73478  0.18820  1.0000
  H   H1211     1.0  0.33242  0.75600  0.12225  1.0000
  H   H1212     1.0  0.33980  0.76531  0.15762  1.0000
  C   C708      1.0  0.35385  0.81051  0.32680  1.0000
  C   C709      1.0  0.35707  0.80440  0.30638  1.0000
  C   C710      1.0  0.35321  0.80596  0.28120  1.0000
  C   C711      1.0  0.34619  0.81372  0.27624  1.0000
  C   C712      1.0  0.34328  0.82007  0.29627  1.0000
  C   C713      1.0  0.34709  0.81847  0.32144  1.0000
  H   H1213     1.0  0.36244  0.79834  0.31017  1.0000
  H   H1214     1.0  0.35557  0.80107  0.26585  1.0000
  H   H1215     1.0  0.33794  0.82616  0.29245  1.0000
  H   H1216     1.0  0.34482  0.82347  0.33656  1.0000
  C   C714      1.0  0.34113  0.79900  0.03463  1.0000
  C   C715      1.0  0.34643  0.79506  0.05617  1.0000
  C   C716      1.0  0.34422  0.79834  0.08203  1.0000
  C   C717      1.0  0.33652  0.80541  0.08675  1.0000
  C   C718      1.0  0.33092  0.80905  0.06556  1.0000
  C   C719      1.0  0.33326  0.80590  0.03951  1.0000
  H   H1217     1.0  0.35249  0.78967  0.05260  1.0000
  H   H1218     1.0  0.34863  0.79551  0.09805  1.0000
  H   H1219     1.0  0.32491  0.81448  0.06910  1.0000
  H   H1220     1.0  0.46498  0.83217  0.05056  1.0000
  C   C720      1.0  0.43147  0.76790  0.23943  1.0000
  C   C721      1.0  0.42617  0.75577  0.24857  1.0000
  C   C722      1.0  0.42241  0.74971  0.22929  1.0000
  C   C723      1.0  0.42363  0.75587  0.20113  1.0000
  C   C724      1.0  0.42894  0.76797  0.19204  1.0000
  C   C725      1.0  0.43306  0.77391  0.21101  1.0000
  H   H1221     1.0  0.42499  0.75104  0.27050  1.0000
  H   H1222     1.0  0.41823  0.74036  0.23642  1.0000
  H   H1223     1.0  0.42989  0.77272  0.17028  1.0000
  H   H1224     1.0  0.43766  0.78310  0.20342  1.0000
  C   C726      1.0  0.40296  0.81557  0.21969  1.0000
  C   C727      1.0  0.39073  0.81345  0.22590  1.0000
  C   C728      1.0  0.38466  0.80994  0.20645  1.0000
  C   C729      1.0  0.39078  0.80845  0.18078  1.0000
  C   C730      1.0  0.40304  0.81089  0.17418  1.0000
  C   C731      1.0  0.40912  0.81454  0.19350  1.0000
  H   H1225     1.0  0.38585  0.81416  0.24606  1.0000
  H   H1226     1.0  0.37522  0.80820  0.21157  1.0000
  H   H1227     1.0  0.40782  0.80987  0.15420  1.0000
  H   H1228     1.0  0.41857  0.81657  0.18804  1.0000
  H   H1229     1.0  0.29717  0.79558  0.32459  1.0000
  H   H1230     1.0  0.31738  0.70452  0.06279  1.0000
  H   H1231     1.0  0.47698  0.92710  0.35893  1.0000
  H   H1232     1.0  0.46787  0.71068  0.08219  1.0000
  H   H1233     1.0  0.38350  0.81956  0.35089  1.0000
  H   H1234     1.0  0.48510  0.92963  0.46219  1.0000
  H   H1235     1.0  0.45782  0.71830  0.26220  1.0000
  C   C732      1.0  0.44472  0.82452  0.12727  1.0000
  C   C733      1.0  0.45662  0.82489  0.12341  1.0000
  C   C734      1.0  0.26837  0.72173  0.26000  1.0000
  C   C735      1.0  0.42864  0.70443  0.06423  1.0000
  Fe  Fe110     1.0  0.46223  0.96753  0.15433  1.0000
  H   H1236     1.0  0.43906  0.82239  0.14862  1.0000
  H   H1237     1.0  0.46270  0.77833  0.03581  1.0000
  H   H1238     1.0  0.47023  0.86764  0.00640  1.0000
  C   C736      1.0  0.44831  0.82909  0.37593  1.0000
  C   C737      1.0  0.44070  0.82286  0.36287  1.0000
  C   C738      1.0  0.44470  0.82204  0.33471  1.0000
  C   C739      1.0  0.45631  0.82760  0.31934  1.0000
  C   C740      1.0  0.46383  0.83402  0.33223  1.0000
  C   C741      1.0  0.45989  0.83465  0.36049  1.0000
  H   H1239     1.0  0.43170  0.81861  0.37467  1.0000
  H   H1240     1.0  0.43884  0.81711  0.32496  1.0000
  H   H1241     1.0  0.47275  0.83853  0.32029  1.0000
  H   H1242     1.0  0.46574  0.83968  0.37011  1.0000
  C   C742      1.0  0.38247  0.87955  0.43058  1.0000
  C   C743      1.0  0.38363  0.86881  0.42439  1.0000
  C   C744      1.0  0.37375  0.86008  0.42405  1.0000
  C   C745      1.0  0.36250  0.86200  0.42965  1.0000
  C   C746      1.0  0.36139  0.87277  0.43563  1.0000
  C   C747      1.0  0.37123  0.88142  0.43622  1.0000
  H   H1243     1.0  0.39224  0.86719  0.41994  1.0000
  H   H1244     1.0  0.37485  0.85190  0.41937  1.0000
  H   H1245     1.0  0.35280  0.87443  0.44004  1.0000
  H   H1246     1.0  0.31636  0.78735  0.15933  1.0000
  H   H1247     1.0  0.29762  0.68652  0.06721  1.0000
  H   H1248     1.0  0.31147  0.76619  0.00515  1.0000
  H   H1249     1.0  0.34447  0.83237  0.06609  1.0000
  C   C748      1.0  0.49176  0.88319  0.44985  1.0000
  C   C749      1.0  0.31378  0.71192  0.11934  1.0000
  H   H1250     1.0  0.37197  0.71158  0.12544  1.0000
  C   C750      1.0  0.46389  0.82768  0.09564  1.0000
  H   H1251     1.0  0.45475  0.91286  0.09709  1.0000
  H   H1252     1.0  0.45049  0.92355  0.38532  1.0000
  C   C751      1.0  0.49035  0.99435  0.18106  1.0000
  C   C752      1.0  0.49567  0.97844  0.08196  1.0000
  H   H1253     1.0  0.45235  0.77745  0.08175  1.0000
  H   H1254     1.0  0.35758  0.82094  0.04306  1.0000
  H   H1255     1.0  0.26967  0.76267  0.46772  1.0000
  C   C753      1.0  0.37071  0.67167  0.16086  1.0000
  H   H1256     1.0  0.48365  0.99832  0.09427  1.0000
  Fe  Fe111     1.0  0.25603  0.74307  0.41148  1.0000
  H   H1257     1.0  0.25665  0.73605  0.31979  1.0000
  S   S230      1.0  0.47853  0.96325  0.16314  1.0000
  H   H1258     1.0  0.40853  0.67794  0.25666  1.0000
  C   C754      1.0  0.38570  0.71812  0.06680  1.0000
  H   H1259     1.0  0.47439  0.96378  0.06837  1.0000
  C   C755      1.0  0.39266  0.82390  0.33798  1.0000
  C   C756      1.0  0.42665  0.95483  0.26142  1.0000
  C   C757      1.0  0.44743  0.82977  0.07562  1.0000
  C   C758      1.0  0.41901  0.94758  0.31363  1.0000
  C   C759      1.0  0.43016  0.94686  0.31670  1.0000
  H   H1260     1.0  0.26926  0.67146  0.98758  1.0000
  H   H1261     1.0  0.45340  0.78550  0.01793  1.0000
  H   H1262     1.0  0.29526  0.78915  0.36135  1.0000
  C   C760      1.0  0.29877  0.78815  0.33960  1.0000
  C   C761      1.0  0.31415  0.80994  0.34209  1.0000
  C   C762      1.0  0.43259  0.94867  0.06255  1.0000
  C   C763      1.0  0.40613  0.71929  0.06886  1.0000
  C   C764      1.0  0.43033  0.93665  0.02792  1.0000
  C   C765      1.0  0.42017  0.93996  0.02397  1.0000
  C   C766      1.0  0.41623  0.94758  0.03979  1.0000
  C   C767      1.0  0.42234  0.95189  0.05881  1.0000
  H   H1263     1.0  0.28840  0.78308  0.01523  1.0000
  H   H1264     1.0  0.40837  0.95024  0.03724  1.0000
  H   H1265     1.0  0.41912  0.95777  0.07050  1.0000
  H   H1266     1.0  0.46358  0.75719  0.18533  1.0000
  H   H1267     1.0  0.29281  0.78082  0.10551  1.0000
  H   H1268     1.0  0.37517  0.69718  0.13005  1.0000
  C   C768      1.0  0.48560  0.97411  0.17742  1.0000
  H   H1269     1.0  0.32191  0.78655  0.26500  1.0000
  H   H1270     1.0  0.38787  0.84073  0.00304  1.0000
  C   C769      1.0  0.26542  0.72298  0.30946  1.0000
  H   H1271     1.0  0.47653  0.69605  0.99227  1.0000
  C   C770      1.0  0.47226  0.80482  0.03083  1.0000
  C   C771      1.0  0.46987  0.92953  0.37298  1.0000
  H   H1272     1.0  0.44858  0.78183  0.12370  1.0000
  H   H1273     1.0  0.36262  0.83489  0.48040  1.0000
  H   H1274     1.0  0.37507  0.70391  0.05331  1.0000
  S   S231      1.0  0.41228  0.93512  0.99919  1.0000
  C   C772      1.0  0.45224  0.92871  0.47077  1.0000
  C   C773      1.0  0.26483  0.71848  0.05811  1.0000
  C   C774      1.0  0.46867  0.92063  0.45669  1.0000
  H   H1275     1.0  0.40965  0.73323  0.09134  1.0000
  H   H1276     1.0  0.30944  0.76191  0.05356  1.0000
  H   H1277     1.0  0.35554  0.83026  0.08457  1.0000
  H   H1278     1.0  0.33894  0.84712  0.99780  1.0000
  N   N50       1.0  0.39250  0.77259  0.23318  1.0000
  C   C775      1.0  0.39626  0.76134  0.23361  1.0000
  C   C776      1.0  0.40272  0.78184  0.23487  1.0000
  C   C777      1.0  0.38905  0.77684  0.20606  1.0000
  C   C778      1.0  0.38202  0.77028  0.25804  1.0000
  C   C779      1.0  0.38765  0.75119  0.22793  1.0000
  C   C780      1.0  0.40566  0.78029  0.26411  1.0000
  C   C781      1.0  0.39856  0.77901  0.17805  1.0000
  C   C782      1.0  0.37736  0.78107  0.26206  1.0000
  H   H1279     1.0  0.40470  0.76306  0.21760  1.0000
  H   H1280     1.0  0.39798  0.75779  0.25450  1.0000
  H   H1281     1.0  0.40145  0.79084  0.22861  1.0000
  H   H1282     1.0  0.41088  0.78213  0.21908  1.0000
  H   H1283     1.0  0.38098  0.77070  0.20493  1.0000
  H   H1284     1.0  0.38659  0.78527  0.20580  1.0000
  H   H1285     1.0  0.37446  0.76382  0.25568  1.0000
  H   H1286     1.0  0.38357  0.76586  0.27853  1.0000
  H   H1287     1.0  0.37915  0.74816  0.24431  1.0000
  H   H1288     1.0  0.38620  0.75351  0.20629  1.0000
  H   H1289     1.0  0.39157  0.74355  0.22879  1.0000
  H   H1290     1.0  0.41364  0.78726  0.26217  1.0000
  H   H1291     1.0  0.39859  0.78139  0.28077  1.0000
  H   H1292     1.0  0.40766  0.77171  0.27116  1.0000
  H   H1293     1.0  0.40637  0.78611  0.17636  1.0000
  H   H1294     1.0  0.39493  0.78201  0.15973  1.0000
  H   H1295     1.0  0.40123  0.77091  0.17541  1.0000
  H   H1296     1.0  0.37111  0.78250  0.24884  1.0000
  H   H1297     1.0  0.38436  0.78931  0.25676  1.0000
  H   H1298     1.0  0.37285  0.77965  0.28489  1.0000
  N   N51       1.0  0.36302  0.83913  0.01849  1.0000
  S   S232      1.0  0.25785  0.71667  0.16179  1.0000
  H   H1299     1.0  0.48497  0.79083  0.33251  1.0000
  H   H1300     1.0  0.46579  0.80798  0.07098  1.0000
  C   C783      1.0  0.36230  0.84413  0.04415  1.0000
  H   H1301     1.0  0.49622  0.70375  0.39476  1.0000
  H   H1302     1.0  0.44950  0.81192  0.04291  1.0000
  H   H1303     1.0  0.39231  0.72163  0.11575  1.0000
  H   H1304     1.0  0.35314  0.83646  0.98715  1.0000
  H   H1305     1.0  0.29160  0.75217  0.18563  1.0000
  H   H1306     1.0  0.26596  0.78617  0.41315  1.0000
  H   H1307     1.0  0.41278  0.70782  0.46373  1.0000
  H   H1308     1.0  0.28327  0.78192  0.16752  1.0000
  C   C784      1.0  0.44485  0.79625  0.09386  1.0000
  H   H1309     1.0  0.46058  0.95900  0.41049  1.0000
  C   C785      1.0  0.39077  0.71249  0.11329  1.0000
  H   H1310     1.0  0.36172  0.85344  0.03899  1.0000
  S   S233      1.0  0.26394  0.76257  0.40997  1.0000
  H   H1311     1.0  0.44638  0.73117  0.23940  1.0000
  H   H1312     1.0  0.46058  0.73255  0.28376  1.0000
  H   H1313     1.0  0.41946  0.69826  0.44674  1.0000
  H   H1314     1.0  0.25613  0.74257  0.03041  1.0000
  H   H1315     1.0  0.43101  0.78950  0.04432  1.0000
  C   C786      1.0  0.49810  0.99177  0.19742  1.0000
  H   H1316     1.0  0.32507  0.69449  0.05246  1.0000
  H   H1317     1.0  0.48834  0.96240  0.04811  1.0000
  H   H1318     1.0  0.37009  0.88957  0.44105  1.0000
  H   H1319     1.0  0.26736  0.77230  0.00926  1.0000
  H   H1320     1.0  0.38366  0.69415  0.08982  1.0000
  H   H1321     1.0  0.47831  0.81994  0.32069  1.0000
  H   H1322     1.0  0.43434  0.99220  0.20403  1.0000
  H   H1323     1.0  0.29008  0.76914  0.35601  1.0000
  N   N52       1.0  0.39286  0.83328  0.31214  1.0000
  C   C787      1.0  0.40549  0.83844  0.29540  1.0000
  C   C788      1.0  0.38565  0.82761  0.29459  1.0000
  C   C789      1.0  0.39804  0.81374  0.33195  1.0000
  C   C790      1.0  0.40785  0.84801  0.26743  1.0000
  C   C791      1.0  0.38068  0.83567  0.27415  1.0000
  H   H1324     1.0  0.38862  0.85030  0.30559  1.0000
  H   H1325     1.0  0.40947  0.83154  0.28880  1.0000
  H   H1326     1.0  0.39079  0.82296  0.28167  1.0000
  H   H1327     1.0  0.37797  0.82063  0.30889  1.0000
  H   H1328     1.0  0.39569  0.80663  0.35204  1.0000
  H   H1329     1.0  0.39462  0.80977  0.31596  1.0000
  H   H1330     1.0  0.37474  0.83304  0.36323  1.0000
  H   H1331     1.0  0.40460  0.85574  0.27064  1.0000
  H   H1332     1.0  0.40427  0.84430  0.25126  1.0000
  H   H1333     1.0  0.41748  0.85126  0.25815  1.0000
  H   H1334     1.0  0.38159  0.83305  0.25368  1.0000
  H   H1335     1.0  0.38500  0.84517  0.26852  1.0000
  H   H1336     1.0  0.37110  0.83423  0.28284  1.0000
  N   N53       1.0  0.30502  0.69044  0.11716  1.0000
  C   C792      1.0  0.29810  0.67886  0.13823  1.0000
  C   C793      1.0  0.29657  0.69531  0.10250  1.0000
  C   C794      1.0  0.30985  0.69861  0.13390  1.0000
  C   C795      1.0  0.31474  0.68799  0.09661  1.0000
  C   C796      1.0  0.25612  0.69002  0.26158  1.0000
  C   C797      1.0  0.29096  0.68784  0.08449  1.0000
  H   H1337     1.0  0.43935  0.68552  0.05757  1.0000
  C   C798      1.0  0.45398  0.96751  0.00329  1.0000
  H   H1338     1.0  0.45495  0.85176  0.10160  1.0000
  C   C799      1.0  0.37989  0.67120  0.13906  1.0000
  H   H1339     1.0  0.30066  0.70424  0.08811  1.0000
  H   H1340     1.0  0.28931  0.69653  0.11861  1.0000
  H   H1341     1.0  0.39820  0.69592  0.09287  1.0000
  H   H1342     1.0  0.49373  0.87120  0.03057  1.0000
  H   H1343     1.0  0.29515  0.67211  0.12704  1.0000
  H   H1344     1.0  0.45346  0.95163  0.98915  1.0000
  H   H1345     1.0  0.46431  0.00201  0.21460  1.0000
  C   C800      1.0  0.39667  0.69831  0.04983  1.0000
  C   C801      1.0  0.47358  0.99864  0.24664  1.0000
  C   C802      1.0  0.45362  0.77925  0.03749  1.0000
  C   C803      1.0  0.44091  0.99699  0.21328  1.0000
  H   H1346     1.0  0.34492  0.82998  0.02262  1.0000
  H   H1347     1.0  0.46140  0.67582  0.46534  1.0000
  H   H1348     1.0  0.49768  0.67027  0.46838  1.0000
  C   C804      1.0  0.43846  0.97874  0.30293  1.0000
  H   H1349     1.0  0.45777  0.91267  0.37770  1.0000
  C   C805      1.0  0.34632  0.84850  0.00807  1.0000
  H   H1350     1.0  0.47841  0.81563  0.38422  1.0000
  C   C806      1.0  0.25844  0.68325  0.10243  1.0000
  C   C807      1.0  0.37302  0.67822  0.18049  1.0000
  C   C808      1.0  0.46973  0.89217  0.02487  1.0000
  H   H1351     1.0  0.39381  0.84655  0.33593  1.0000
  H   H1352     1.0  0.36928  0.83404  0.33163  1.0000
  H   H1353     1.0  0.37248  0.84656  0.34564  1.0000
  H   H1354     1.0  0.45637  0.75703  0.28481  1.0000
  H   H1355     1.0  0.47534  0.99076  0.25943  1.0000
  H   H1356     1.0  0.46268  0.76264  0.23445  1.0000
  C   C809      1.0  0.45699  0.75448  0.23222  1.0000
  C   C810      1.0  0.46020  0.74951  0.29070  1.0000
  C   C811      1.0  0.45567  0.75705  0.20134  1.0000
  H   H1357     1.0  0.47813  0.75484  0.24174  1.0000
  H   H1358     1.0  0.46978  0.75271  0.28764  1.0000
  H   H1359     1.0  0.45634  0.74553  0.31400  1.0000
  H   H1360     1.0  0.44798  0.75062  0.19947  1.0000
  H   H1361     1.0  0.48476  0.86028  0.01798  1.0000
  H   H1362     1.0  0.31052  0.79372  0.13183  1.0000
  S   S234      1.0  0.25907  0.70986  0.98599  1.0000
  C   C812      1.0  0.47459  0.74694  0.23460  1.0000
  H   H1363     1.0  0.44814  0.75362  0.24589  1.0000
  H   H1364     1.0  0.31685  0.76950  0.10169  1.0000
  S   S235      1.0  0.48072  0.95009  0.48099  1.0000
  H   H1365     1.0  0.46028  0.80357  0.33898  1.0000
  N   N54       1.0  0.46139  0.74385  0.24246  1.0000
  C   C813      1.0  0.48086  0.74982  0.20261  1.0000
  H   H1366     1.0  0.47795  0.73998  0.24650  1.0000
  H   H1367     1.0  0.45396  0.76588  0.19572  1.0000
  H   H1368     1.0  0.47625  0.74442  0.19068  1.0000
  H   H1369     1.0  0.45910  0.97684  0.99669  1.0000
  H   H1370     1.0  0.44509  0.80561  0.09330  1.0000
  C   C814      1.0  0.37278  0.84736  0.99411  1.0000
  C   C815      1.0  0.45714  0.74000  0.27466  1.0000
  Fe  Fe112     1.0  0.47445  0.82601  0.46071  1.0000
  H   H1371     1.0  0.49026  0.94557  0.34875  1.0000
  C   C816      1.0  0.44015  0.82698  0.10339  1.0000
  C   C817      1.0  0.48646  0.82015  0.36675  1.0000
  H   H1372     1.0  0.48197  0.94785  0.41057  1.0000
  H   H1373     1.0  0.44744  0.73667  0.28122  1.0000
  H   H1374     1.0  0.45777  0.73609  0.20786  1.0000
  C   C818      1.0  0.30529  0.76950  0.14177  1.0000
  H   H1375     1.0  0.46309  0.87335  0.09070  1.0000
  S   S236      1.0  0.44110  0.95425  0.08545  1.0000
  H   H1376     1.0  0.45519  0.79030  0.41461  1.0000
  C   C819      1.0  0.47889  0.81117  0.33216  1.0000
  H   H1377     1.0  0.48032  0.80651  0.31513  1.0000
  C   C820      1.0  0.45613  0.73370  0.23142  1.0000
  C   C821      1.0  0.43131  0.70524  0.09019  1.0000
  H   H1378     1.0  0.43093  0.82670  0.10649  1.0000
  H   H1379     1.0  0.42474  0.91871  0.34180  1.0000
  H   H1380     1.0  0.28925  0.76445  0.47287  1.0000
  S   S237      1.0  0.31066  0.73973  0.12666  1.0000
  H   H1381     1.0  0.32899  0.80885  0.02326  1.0000
  C   C822      1.0  0.25988  0.73200  0.30328  1.0000
  H   H1382     1.0  0.29312  0.77441  0.31757  1.0000
  C   C823      1.0  0.42250  0.91132  0.33204  1.0000
  H   H1383     1.0  0.48159  0.80710  0.03154  1.0000
  C   C824      1.0  0.46042  0.72248  0.23894  1.0000
  C   C825      1.0  0.48861  0.69766  0.41022  1.0000
  C   C826      1.0  0.40999  0.90332  0.34637  1.0000
  C   C827      1.0  0.43854  0.71587  0.33427  1.0000
  H   H1384     1.0  0.47002  0.72414  0.23050  1.0000
  C   C828      1.0  0.45247  0.86892  0.01971  1.0000
  H   H1385     1.0  0.44798  0.77071  0.03724  1.0000
  H   H1386     1.0  0.44377  0.71382  0.34906  1.0000
  H   H1387     1.0  0.44269  0.70322  0.31108  1.0000
  H   H1388     1.0  0.46260  0.89314  0.04154  1.0000
  H   H1389     1.0  0.47310  0.96401  0.38163  1.0000
  C   C829      1.0  0.40092  0.91785  0.36276  1.0000
  H   H1390     1.0  0.43354  0.77665  0.42263  1.0000
  H   H1391     1.0  0.45620  0.71587  0.22886  1.0000
  H   H1392     1.0  0.43970  0.00271  0.27280  1.0000
  H   H1393     1.0  0.40861  0.92384  0.30701  1.0000
  H   H1394     1.0  0.45435  0.87256  0.99625  1.0000
  C   C830      1.0  0.43777  0.95401  0.26448  1.0000
  C   C831      1.0  0.28960  0.75466  0.01316  1.0000
  H   H1395     1.0  0.44507  0.95650  0.24570  1.0000
  H   H1396     1.0  0.46327  0.80665  0.43422  1.0000
  H   H1397     1.0  0.40308  0.73717  0.06193  1.0000
  C   C832      1.0  0.47855  0.67766  0.43865  1.0000
  H   H1398     1.0  0.40097  0.91333  0.38476  1.0000
  H   H1399     1.0  0.37310  0.67143  0.24268  1.0000
  H   H1400     1.0  0.26477  0.68210  0.23116  1.0000
  S   S238      1.0  0.43977  0.74120  0.42773  1.0000
  Fe  Fe113     1.0  0.43741  0.96654  0.18341  1.0000
  C   C833      1.0  0.39104  0.92428  0.36592  1.0000
  C   C834      1.0  0.42997  0.77650  0.40365  1.0000
  H   H1401     1.0  0.44689  0.78002  0.37626  1.0000
  H   H1402     1.0  0.42921  0.78555  0.39543  1.0000
  C   C835      1.0  0.45776  0.92261  0.08950  1.0000
  Fe  Fe114     1.0  0.44412  0.73106  0.39538  1.0000
  H   H1403     1.0  0.44039  0.76475  0.39266  1.0000
  H   H1404     1.0  0.45704  0.78549  0.31737  1.0000
  N   N55       1.0  0.29326  0.76653  0.01914  1.0000
  H   H1405     1.0  0.36824  0.81212  0.01046  1.0000
  Fe  Fe115     1.0  0.44291  0.72697  0.45988  1.0000
  H   H1406     1.0  0.42892  0.90602  0.33487  1.0000
  S   S239      1.0  0.44547  0.71579  0.42868  1.0000
  C   C836      1.0  0.43862  0.77300  0.38149  1.0000
  C   C837      1.0  0.45710  0.77642  0.32786  1.0000
  H   H1407     1.0  0.46298  0.77344  0.31206  1.0000
  H   H1408     1.0  0.42125  0.77010  0.41144  1.0000
  H   H1409     1.0  0.25650  0.68858  0.08442  1.0000
  H   H1410     1.0  0.40955  0.89934  0.36914  1.0000
  N   N56       1.0  0.40010  0.90916  0.34461  1.0000
  H   H1411     1.0  0.40926  0.92485  0.35435  1.0000
  C   C838      1.0  0.28300  0.79317  0.41888  1.0000
  H   H1412     1.0  0.31009  0.76444  0.15433  1.0000
  H   H1413     1.0  0.43539  0.79158  0.09904  1.0000
  C   C839      1.0  0.47562  0.77898  0.44078  1.0000
  H   H1414     1.0  0.25698  0.68606  0.98578  1.0000
  H   H1415     1.0  0.40658  0.91505  0.27049  1.0000
  H   H1416     1.0  0.40433  0.68373  0.28633  1.0000
  H   H1417     1.0  0.46110  0.77642  0.34614  1.0000
  H   H1418     1.0  0.33135  0.78286  0.35510  1.0000
  C   C840      1.0  0.46669  0.79894  0.43636  1.0000
  H   H1419     1.0  0.45871  0.70959  0.04325  1.0000
  C   C841      1.0  0.45931  0.83008  0.07180  1.0000
  C   C842      1.0  0.46275  0.93543  0.14315  1.0000
  H   H1420     1.0  0.40930  0.89580  0.33651  1.0000
  C   C843      1.0  0.47865  0.95969  0.05237  1.0000
  C   C844      1.0  0.44479  0.76778  0.33683  1.0000
  H   H1421     1.0  0.44563  0.75905  0.34811  1.0000
  H   H1422     1.0  0.45263  0.73098  0.06624  1.0000
  H   H1423     1.0  0.46180  0.69699  0.44993  1.0000
  H   H1424     1.0  0.43515  0.68436  0.02551  1.0000
  H   H1425     1.0  0.45609  0.69025  0.99757  1.0000
  H   H1426     1.0  0.38577  0.89853  0.38093  1.0000
  C   C845      1.0  0.38831  0.90024  0.35720  1.0000
  H   H1427     1.0  0.42388  0.91483  0.30872  1.0000
  C   C846      1.0  0.44581  0.72364  0.06577  1.0000
  H   H1428     1.0  0.44492  0.86103  0.02558  1.0000
  H   H1429     1.0  0.43223  0.80430  0.02576  1.0000
  C   C847      1.0  0.32217  0.69818  0.07075  1.0000
  C   C848      1.0  0.40107  0.91585  0.31455  1.0000
  C   C849      1.0  0.46210  0.78962  0.42526  1.0000
  N   N57       1.0  0.43508  0.77141  0.35474  1.0000
  H   H1430     1.0  0.42574  0.75321  0.37529  1.0000
  Fe  Fe116     1.0  0.44377  0.96480  0.11979  1.0000
  H   H1431     1.0  0.40668  0.90215  0.29471  1.0000
  H   H1432     1.0  0.43918  0.77811  0.07300  1.0000
  H   H1433     1.0  0.43945  0.97256  0.32183  1.0000
  C   C850      1.0  0.31374  0.77728  0.34776  1.0000
  C   C851      1.0  0.40172  0.90888  0.29159  1.0000
  H   H1434     1.0  0.40635  0.70008  0.04298  1.0000
  H   H1435     1.0  0.49959  0.79163  0.33723  1.0000
  C   C852      1.0  0.47393  0.94619  0.06096  1.0000
  C   C853      1.0  0.28700  0.77130  0.41554  1.0000
  H   H1436     1.0  0.43337  0.93066  0.01645  1.0000
  C   C854      1.0  0.42422  0.76133  0.36261  1.0000
  H   H1437     1.0  0.44276  0.76662  0.31650  1.0000
  H   H1438     1.0  0.44063  0.79040  0.33821  1.0000
  H   H1439     1.0  0.46092  0.85548  0.03365  1.0000
  S   S240      1.0  0.43480  0.97672  0.14193  1.0000
  H   H1440     1.0  0.37779  0.88284  0.35985  1.0000
  C   C855      1.0  0.38713  0.88793  0.35158  1.0000
  S   S241      1.0  0.27828  0.74160  0.14242  1.0000
  N   N58       1.0  0.48887  0.81263  0.34627  1.0000
  H   H1441     1.0  0.38981  0.88826  0.32866  1.0000
  H   H1442     1.0  0.39215  0.88288  0.36357  1.0000
  H   H1443     1.0  0.26999  0.77344  0.04342  1.0000
  C   C856      1.0  0.46114  0.70157  0.05303  1.0000
  H   H1444     1.0  0.27170  0.71777  0.24345  1.0000
  H   H1445     1.0  0.41671  0.76289  0.37692  1.0000
  H   H1446     1.0  0.49415  0.96260  0.19994  1.0000
  Fe  Fe117     1.0  0.25763  0.72325  0.38174  1.0000
  H   H1447     1.0  0.41633  0.78105  0.36850  1.0000
  C   C857      1.0  0.43365  0.78279  0.33784  1.0000
  C   C858      1.0  0.43950  0.95012  0.29190  1.0000
  H   H1448     1.0  0.29534  0.79859  0.16875  1.0000
  H   H1449     1.0  0.31450  0.79442  0.37207  1.0000
  H   H1450     1.0  0.46349  0.80937  0.36753  1.0000
  H   H1451     1.0  0.39279  0.90468  0.29032  1.0000
  H   H1452     1.0  0.44923  0.00018  0.19629  1.0000
  Fe  Fe118     1.0  0.45298  0.98853  0.13627  1.0000
  H   H1453     1.0  0.32039  0.71429  0.09870  1.0000
  H   H1454     1.0  0.36583  0.67875  0.19689  1.0000
  H   H1455     1.0  0.30302  0.79358  0.19510  1.0000
  H   H1456     1.0  0.39431  0.67295  0.22178  1.0000
  H   H1457     1.0  0.47224  0.91415  0.44806  1.0000
  H   H1458     1.0  0.31594  0.80154  0.29306  1.0000
  C   C859      1.0  0.30371  0.79688  0.17203  1.0000
  H   H1459     1.0  0.31163  0.78250  0.09897  1.0000
  H   H1460     1.0  0.26332  0.69784  0.12048  1.0000
  S   S242      1.0  0.46327  0.74024  0.38358  1.0000
  Fe  Fe119     1.0  0.45900  0.74963  0.41784  1.0000
  H   H1461     1.0  0.46472  0.94454  0.05910  1.0000
  N   N59       1.0  0.46828  0.87029  0.04887  1.0000
  C   C860      1.0  0.32669  0.77694  0.34417  1.0000
  H   H1462     1.0  0.44270  0.98015  0.23483  1.0000
  H   H1463     1.0  0.47136  0.79829  0.01811  1.0000
  H   H1464     1.0  0.44511  0.87156  0.46904  1.0000
  H   H1465     1.0  0.43496  0.78276  0.31495  1.0000
  H   H1466     1.0  0.48750  0.78796  0.46145  1.0000
  C   C861      1.0  0.25767  0.72844  0.01037  1.0000
  S   S243      1.0  0.30426  0.80318  0.42676  1.0000
  C   C862      1.0  0.29062  0.77668  0.33810  1.0000
  H   H1467     1.0  0.32736  0.79532  0.29875  1.0000
  H   H1468     1.0  0.31788  0.71659  0.13350  1.0000
  S   S244      1.0  0.27021  0.68826  0.17105  1.0000
  H   H1469     1.0  0.32685  0.79985  0.34221  1.0000
  C   C863      1.0  0.30452  0.67316  0.15912  1.0000
  H   H1470     1.0  0.29792  0.74847  0.06085  1.0000
  H   H1471     1.0  0.28996  0.67991  0.15162  1.0000
  C   C864      1.0  0.47601  0.86286  0.05946  1.0000
  H   H1472     1.0  0.30420  0.77859  0.42150  1.0000
  H   H1473     1.0  0.44819  0.94971  0.29388  1.0000
  H   H1474     1.0  0.48713  0.92715  0.12445  1.0000
  H   H1475     1.0  0.28126  0.80157  0.42014  1.0000
  H   H1476     1.0  0.37770  0.83451  0.46794  1.0000
  H   H1477     1.0  0.44340  0.85883  0.10713  1.0000
  S   S245      1.0  0.28205  0.71833  0.18442  1.0000
  N   N60       1.0  0.39352  0.71239  0.08217  1.0000
  H   H1478     1.0  0.45143  0.92628  0.10226  1.0000
  H   H1479     1.0  0.44363  0.79266  0.13938  1.0000
  H   H1480     1.0  0.31917  0.81584  0.35251  1.0000
  H   H1481     1.0  0.48656  0.94050  0.13648  1.0000
  H   H1482     1.0  0.48031  0.88586  0.05171  1.0000
  N   N61       1.0  0.29958  0.77679  0.15913  1.0000
  C   C865      1.0  0.31170  0.78388  0.00821  1.0000
  N   N62       1.0  0.46378  0.69462  0.03144  1.0000
  H   H1483     1.0  0.29247  0.77528  0.20426  1.0000
  H   H1484     1.0  0.30944  0.77462  0.37109  1.0000
  C   C866      1.0  0.26979  0.71797  0.28763  1.0000
  C   C867      1.0  0.31713  0.79790  0.34840  1.0000
  H   H1485     1.0  0.39337  0.91955  0.31373  1.0000
  Fe  Fe120     1.0  0.46451  0.72556  0.41893  1.0000
  S   S246      1.0  0.28326  0.71948  0.11651  1.0000
  C   C868      1.0  0.47036  0.92677  0.09238  1.0000
  C   C869      1.0  0.47601  0.79850  0.44902  1.0000
  H   H1486     1.0  0.41902  0.76583  0.32207  1.0000
  S   S247      1.0  0.44144  0.83275  0.04615  1.0000
  H   H1487     1.0  0.32109  0.68495  0.10791  1.0000
  H   H1488     1.0  0.39105  0.93002  0.34529  1.0000
  C   C870      1.0  0.29588  0.78025  0.41956  1.0000
  H   H1489     1.0  0.49643  0.68926  0.46637  1.0000
  H   H1490     1.0  0.30747  0.79105  0.00207  1.0000
  C   C871      1.0  0.36523  0.82712  0.02640  1.0000
  H   H1491     1.0  0.30958  0.77001  0.33958  1.0000
  H   H1492     1.0  0.39303  0.68900  0.04993  1.0000
  S   S248      1.0  0.42408  0.96034  0.22746  1.0000
  H   H1493     1.0  0.46762  0.92877  0.14800  1.0000
  C   C872      1.0  0.31436  0.78482  0.28382  1.0000
  H   H1494     1.0  0.45699  0.98585  0.29148  1.0000
  C   C873      1.0  0.42172  0.78574  0.34673  1.0000
  H   H1495     1.0  0.29862  0.76275  0.13713  1.0000
  H   H1496     1.0  0.45127  0.70131  0.01117  1.0000
  H   H1497     1.0  0.49974  0.93917  0.11511  1.0000
  H   H1498     1.0  0.39029  0.72230  0.04385  1.0000
  H   H1499     1.0  0.42335  0.79530  0.34561  1.0000
  H   H1500     1.0  0.36552  0.67234  0.29418  1.0000
  C   C874      1.0  0.31457  0.77605  0.11334  1.0000
  H   H1501     1.0  0.33152  0.77904  0.32137  1.0000
  H   H1502     1.0  0.49260  0.98614  0.11728  1.0000
  C   C875      1.0  0.48408  0.98554  0.17115  1.0000
  N   N63       1.0  0.47453  0.93976  0.09007  1.0000
  H   H1503     1.0  0.38127  0.90375  0.34989  1.0000
  H   H1504     1.0  0.32699  0.76787  0.35421  1.0000
  H   H1505     1.0  0.26909  0.74384  0.46263  1.0000
  S   S249      1.0  0.46199  0.73592  0.45223  1.0000
  H   H1506     1.0  0.41648  0.78427  0.33113  1.0000
  C   C876      1.0  0.30577  0.77231  0.00209  1.0000
  H   H1507     1.0  0.40887  0.71935  0.04592  1.0000
  H   H1508     1.0  0.31667  0.81437  0.31897  1.0000
  S   S250      1.0  0.47521  0.94265  0.99034  1.0000
  N   N64       1.0  0.31174  0.78891  0.33419  1.0000
  N   N65       1.0  0.45140  0.79527  0.06528  1.0000
  H   H1509     1.0  0.38226  0.91810  0.37599  1.0000
  H   H1510     1.0  0.30622  0.71552  0.11661  1.0000
  C   C877      1.0  0.46921  0.69389  0.44114  1.0000
  H   H1511     1.0  0.25722  0.69187  0.28211  1.0000
  H   H1512     1.0  0.46811  0.79369  0.07355  1.0000
  C   C878      1.0  0.48694  0.86269  0.03707  1.0000
  H   H1513     1.0  0.26022  0.67025  0.30832  1.0000
  H   H1514     1.0  0.41112  0.75170  0.34554  1.0000
  H   H1515     1.0  0.48290  0.88313  0.01732  1.0000
  H   H1516     1.0  0.45336  0.69644  0.07080  1.0000
  H   H1517     1.0  0.47885  0.94287  0.04407  1.0000
  C   C879      1.0  0.46670  0.80449  0.35211  1.0000
  C   C880      1.0  0.31767  0.79306  0.30267  1.0000
  H   H1518     1.0  0.47327  0.69808  0.07993  1.0000
  H   H1519     1.0  0.29641  0.74973  0.01490  1.0000
  H   H1520     1.0  0.44963  0.87561  0.02972  1.0000
  Fe  Fe121     1.0  0.27263  0.70787  0.15940  1.0000
  C   C881      1.0  0.28918  0.78510  0.12181  1.0000
  H   H1521     1.0  0.37124  0.85630  0.98899  1.0000
  H   H1522     1.0  0.39254  0.93017  0.38017  1.0000
  H   H1523     1.0  0.49270  0.94031  0.07300  1.0000
  H   H1524     1.0  0.41182  0.94556  0.33241  1.0000
  C   C882      1.0  0.45811  0.92217  0.37084  1.0000
  C   C883      1.0  0.46336  0.86530  0.02689  1.0000
  H   H1525     1.0  0.47917  0.86570  0.07727  1.0000
  H   H1526     1.0  0.48951  0.74772  0.20040  1.0000
  H   H1527     1.0  0.48272  0.79750  0.38315  1.0000
  C   C884      1.0  0.37387  0.71008  0.06687  1.0000
  H   H1528     1.0  0.47192  0.95252  0.11439  1.0000
  H   H1529     1.0  0.28860  0.76287  0.41417  1.0000
  H   H1530     1.0  0.45327  0.93101  0.14776  1.0000
  Fe  Fe122     1.0  0.26929  0.72919  0.12053  1.0000
  H   H1531     1.0  0.45226  0.97528  0.27307  1.0000
  H   H1532     1.0  0.40867  0.95223  0.28419  1.0000
  S   S251      1.0  0.45461  0.97908  0.17865  1.0000
  H   H1533     1.0  0.30314  0.69767  0.15404  1.0000
  H   H1534     1.0  0.42213  0.69685  0.06371  1.0000
  C   C885      1.0  0.47582  0.88273  0.03601  1.0000
  H   H1535     1.0  0.29363  0.77333  0.05647  1.0000
  H   H1536     1.0  0.39860  0.67645  0.12125  1.0000
  H   H1537     1.0  0.47084  0.92121  0.11265  1.0000
  C   C886      1.0  0.29389  0.79129  0.42132  1.0000
  H   H1538     1.0  0.48441  0.96140  0.31186  1.0000
  H   H1539     1.0  0.47630  0.92423  0.07558  1.0000
  H   H1540     1.0  0.45382  0.94211  0.38653  1.0000
  H   H1541     1.0  0.28482  0.74798  0.45837  1.0000
  C   C887      1.0  0.44877  0.78240  0.06551  1.0000
  H   H1542     1.0  0.26762  0.71459  0.07642  1.0000
  H   H1543     1.0  0.45710  0.92392  0.34870  1.0000
  H   H1544     1.0  0.45117  0.75528  0.48128  1.0000
  C   C888      1.0  0.30799  0.78861  0.15452  1.0000
  C   C889      1.0  0.38941  0.67463  0.27378  1.0000
  S   S252      1.0  0.47987  0.71718  0.41049  1.0000
  S   S253      1.0  0.48276  0.81059  0.46061  1.0000
  H   H1545     1.0  0.41204  0.71507  0.07955  1.0000
  Fe  Fe123     1.0  0.29138  0.73083  0.14172  1.0000
  H   H1546     1.0  0.30670  0.78649  0.27599  1.0000
  H   H1547     1.0  0.47632  0.90086  0.01722  1.0000
  C   C890      1.0  0.46668  0.77971  0.42690  1.0000
  C   C891      1.0  0.45366  0.69286  0.01778  1.0000
  H   H1548     1.0  0.39675  0.70839  0.12415  1.0000
  H   H1549     1.0  0.44434  0.93833  0.04927  1.0000
  H   H1550     1.0  0.47041  0.92611  0.39522  1.0000
  H   H1551     1.0  0.49899  0.70778  0.47901  1.0000
  H   H1552     1.0  0.26017  0.69837  0.24462  1.0000
  C   C892      1.0  0.48833  0.68560  0.41858  1.0000
  C   C893      1.0  0.45052  0.85779  0.09039  1.0000
  H   H1553     1.0  0.28530  0.69257  0.07408  1.0000
  C   C894      1.0  0.49910  0.98021  0.20505  1.0000
  C   C895      1.0  0.45896  0.86999  0.07474  1.0000
  C   C896      1.0  0.29687  0.77043  0.19036  1.0000
  C   C897      1.0  0.27428  0.78439  0.41478  1.0000
  C   C898      1.0  0.46902  0.68189  0.44986  1.0000
  H   H1554     1.0  0.42871  0.80058  0.06365  1.0000
  C   C899      1.0  0.44170  0.98849  0.24033  1.0000
  H   H1555     1.0  0.48269  0.70176  0.01742  1.0000
  C   C900      1.0  0.46937  0.94648  0.33663  1.0000
  C   C901      1.0  0.46713  0.94382  0.11266  1.0000
  H   H1556     1.0  0.46660  0.79550  0.36353  1.0000
  C   C902      1.0  0.48030  0.78838  0.45166  1.0000
  C   C903      1.0  0.46436  0.80027  0.06162  1.0000
  S   S254      1.0  0.46166  0.97743  0.11144  1.0000
  H   H1557     1.0  0.27420  0.71108  0.29219  1.0000
  S   S255      1.0  0.46246  0.76967  0.40692  1.0000
  H   H1558     1.0  0.30515  0.76988  0.19675  1.0000
  H   H1559     1.0  0.44301  0.92826  0.47421  1.0000
  C   C904      1.0  0.41988  0.75808  0.33727  1.0000
  H   H1560     1.0  0.31268  0.77536  0.29421  1.0000
  C   C905      1.0  0.44924  0.79140  0.12000  1.0000
  H   H1561     1.0  0.45185  0.80253  0.02069  1.0000
  H   H1562     1.0  0.28516  0.67922  0.09777  1.0000
  H   H1563     1.0  0.49564  0.68246  0.40942  1.0000
  C   C906      1.0  0.47903  0.70187  0.42132  1.0000
  C   C907      1.0  0.45962  0.93774  0.47769  1.0000
  C   C908      1.0  0.27606  0.77334  0.41323  1.0000
  H   H1564     1.0  0.46384  0.98710  0.22663  1.0000
  H   H1565     1.0  0.27095  0.68255  0.26025  1.0000
  H   H1566     1.0  0.49102  0.85591  0.04681  1.0000
  C   C909      1.0  0.49006  0.93688  0.11856  1.0000
  H   H1567     1.0  0.34959  0.84295  0.08375  1.0000
  C   C910      1.0  0.40199  0.67603  0.27745  1.0000
  H   H1568     1.0  0.45913  0.94536  0.10624  1.0000
  H   H1569     1.0  0.41811  0.73676  0.05543  1.0000
  C   C911      1.0  0.49102  0.89496  0.44241  1.0000
  H   H1570     1.0  0.48670  0.78250  0.36409  1.0000
  C   C912      1.0  0.27241  0.76975  0.02488  1.0000
  H   H1571     1.0  0.49069  0.95224  0.08792  1.0000
  C   C913      1.0  0.49620  0.82363  0.38178  1.0000
  C   C914      1.0  0.46538  0.68303  0.04649  1.0000
  H   H1572     1.0  0.44739  0.72986  0.02059  1.0000
  C   C915      1.0  0.46286  0.94545  0.38834  1.0000
  C   C916      1.0  0.48721  0.94264  0.09092  1.0000
  H   H1573     1.0  0.45339  0.87596  0.06968  1.0000
  H   H1574     1.0  0.45179  0.92927  0.99967  1.0000
  S   S256      1.0  0.45584  0.84856  0.46254  1.0000
  H   H1575     1.0  0.46509  0.87603  0.47570  1.0000
  C   C917      1.0  0.44293  0.72297  0.03989  1.0000
  H   H1576     1.0  0.45832  0.79628  0.11847  1.0000
  S   S257      1.0  0.45492  0.82070  0.47530  1.0000
  C   C918      1.0  0.28820  0.77795  0.15217  1.0000
  H   H1577     1.0  0.47059  0.81305  0.01940  1.0000
  H   H1578     1.0  0.48233  0.75931  0.19220  1.0000
  C   C919      1.0  0.26485  0.68168  0.14612  1.0000
  C   C920      1.0  0.40920  0.73234  0.06967  1.0000
  H   H1579     1.0  0.33012  0.70295  0.07570  1.0000
  H   H1580     1.0  0.36023  0.82026  0.99121  1.0000
  Fe  Fe124     1.0  0.26817  0.72820  0.18353  1.0000
  H   H1581     1.0  0.47660  0.96325  0.03193  1.0000
  C   C921      1.0  0.28873  0.75781  0.19931  1.0000
  H   H1582     1.0  0.38397  0.67537  0.29386  1.0000
  H   H1583     1.0  0.27952  0.75789  0.19956  1.0000
  H   H1584     1.0  0.36857  0.71567  0.05767  1.0000
  H   H1585     1.0  0.47101  0.85349  0.06852  1.0000
  H   H1586     1.0  0.32281  0.78060  0.11750  1.0000
  C   C922      1.0  0.49305  0.97144  0.19463  1.0000
  H   H1587     1.0  0.32089  0.78694  0.99493  1.0000
  H   H1588     1.0  0.45873  0.96238  0.37477  1.0000
  H   H1589     1.0  0.47898  0.71160  0.05136  1.0000
  H   H1590     1.0  0.47304  0.68452  0.05578  1.0000
  H   H1591     1.0  0.28869  0.75347  0.22147  1.0000
  C   C923      1.0  0.43440  0.71329  0.03903  1.0000
  C   C924      1.0  0.38526  0.84911  0.99855  1.0000
  S   S258      1.0  0.26653  0.71730  0.34435  1.0000
  S   S259      1.0  0.47249  0.84031  0.98865  1.0000
  C   C925      1.0  0.26254  0.73051  0.25403  1.0000
  H   H1592     1.0  0.48745  0.97188  0.09508  1.0000
  H   H1593     1.0  0.26944  0.76005  0.03261  1.0000
  H   H1594     1.0  0.28235  0.76911  0.15473  1.0000
  H   H1595     1.0  0.28025  0.78545  0.11971  1.0000
  H   H1596     1.0  0.25511  0.67646  0.01970  1.0000
  C   C926      1.0  0.50027  0.98601  0.10082  1.0000
  H   H1597     1.0  0.37268  0.82737  0.03655  1.0000
  N   N66       1.0  0.47159  0.94274  0.36574  1.0000
  S   S260      1.0  0.41461  0.90948  0.47229  1.0000
  H   H1598     1.0  0.44457  0.96684  0.01153  1.0000
  H   H1599     1.0  0.43283  0.98624  0.25513  1.0000
  C   C927      1.0  0.47512  0.71356  0.99203  1.0000
  H   H1600     1.0  0.40390  0.69430  0.46022  1.0000
  H   H1601     1.0  0.48476  0.82847  0.35566  1.0000
  C   C928      1.0  0.26395  0.71259  0.03647  1.0000
  H   H1602     1.0  0.37778  0.70602  0.15403  1.0000
  C   C929      1.0  0.26203  0.72932  0.05604  1.0000
  C   C930      1.0  0.29205  0.76475  0.05076  1.0000
  H   H1603     1.0  0.42572  0.75361  0.32565  1.0000
  H   H1604     1.0  0.37054  0.84468  0.05118  1.0000
  H   H1605     1.0  0.46265  0.94055  0.41022  1.0000
  C   C931      1.0  0.27635  0.74217  0.47217  1.0000
  Fe  Fe125     1.0  0.25264  0.71819  0.44661  1.0000
  C   C932      1.0  0.25845  0.73575  0.27564  1.0000
  H   H1606     1.0  0.47935  0.77149  0.44180  1.0000
  H   H1607     1.0  0.44627  0.85360  0.07584  1.0000
  H   H1608     1.0  0.37943  0.85233  0.47776  1.0000
  H   H1609     1.0  0.26608  0.70419  0.03825  1.0000
  H   H1610     1.0  0.49671  0.95033  0.39055  1.0000
  H   H1611     1.0  0.43150  0.97364  0.29537  1.0000
  C   C933      1.0  0.45029  0.98310  0.28001  1.0000
  H   H1612     1.0  0.49319  0.98337  0.06374  1.0000
  C   C934      1.0  0.47102  0.70561  0.06711  1.0000
  H   H1613     1.0  0.46659  0.89064  0.00608  1.0000
  C   C935      1.0  0.48414  0.94821  0.36492  1.0000
  H   H1614     1.0  0.27661  0.73296  0.47220  1.0000
  H   H1615     1.0  0.45791  0.67830  0.06545  1.0000
  H   H1616     1.0  0.38368  0.72548  0.07573  1.0000
  H   H1617     1.0  0.39381  0.70407  0.03359  1.0000
  H   H1618     1.0  0.48733  0.93581  0.40049  1.0000
  H   H1619     1.0  0.44914  0.88612  0.47282  1.0000
  Fe  Fe126     1.0  0.45287  0.83596  0.00163  1.0000
  H   H1620     1.0  0.25433  0.67964  0.45813  1.0000
  H   H1621     1.0  0.36853  0.70490  0.08838  1.0000
  H   H1622     1.0  0.46296  0.67485  0.01082  1.0000
  H   H1623     1.0  0.45746  0.92496  0.06679  1.0000
  H   H1624     1.0  0.49661  0.81928  0.28237  1.0000
  C   C936      1.0  0.28569  0.77444  0.01036  1.0000
  C   C937      1.0  0.49894  0.88037  0.46775  1.0000
  H   H1625     1.0  0.31754  0.69623  0.14051  1.0000
  H   H1626     1.0  0.38630  0.85367  0.01557  1.0000
  C   C938      1.0  0.47153  0.93823  0.47410  1.0000
  H   H1627     1.0  0.25403  0.74264  0.27109  1.0000
  H   H1628     1.0  0.44146  0.76078  0.46278  1.0000
  H   H1629     1.0  0.38949  0.68264  0.25763  1.0000
  C   C939      1.0  0.36754  0.82118  0.00171  1.0000
  H   H1630     1.0  0.30706  0.67876  0.17324  1.0000
  S   S261      1.0  0.43072  0.71188  0.00701  1.0000
  C   C940      1.0  0.26238  0.68054  0.25467  1.0000
  H   H1631     1.0  0.49661  0.91273  0.44678  1.0000
  H   H1632     1.0  0.46348  0.94072  0.15898  1.0000
  C   C941      1.0  0.46771  0.67450  0.02771  1.0000
  C   C942      1.0  0.44726  0.80249  0.04253  1.0000
  H   H1633     1.0  0.49347  0.82925  0.39579  1.0000
  S   S262      1.0  0.34479  0.79540  0.00172  1.0000
  H   H1634     1.0  0.48645  0.95796  0.35770  1.0000
  H   H1635     1.0  0.47722  0.67631  0.01741  1.0000
  Fe  Fe127     1.0  0.49900  0.94841  0.47889  1.0000
  H   H1636     1.0  0.44323  0.67466  0.03951  1.0000
  C   C943      1.0  0.46399  0.95849  0.38826  1.0000
  H   H1637     1.0  0.48555  0.89729  0.42847  1.0000
  H   H1638     1.0  0.47288  0.94126  0.32226  1.0000
  C   C944      1.0  0.46300  0.99509  0.23428  1.0000
  C   C945      1.0  0.48987  0.80107  0.36318  1.0000
  N   N67       1.0  0.45110  0.99289  0.25444  1.0000
  C   C946      1.0  0.49730  0.90375  0.45276  1.0000
  C   C947      1.0  0.47473  0.95948  0.31978  1.0000
  C   C948      1.0  0.49040  0.79113  0.34792  1.0000
  H   H1639     1.0  0.49789  0.80238  0.37120  1.0000
  H   H1640     1.0  0.49752  0.81586  0.39602  1.0000
  H   H1641     1.0  0.45977  0.94457  0.33827  1.0000
  H   H1642     1.0  0.47248  0.96574  0.33216  1.0000
  C   C949      1.0  0.25707  0.67115  0.10526  1.0000
  H   H1643     1.0  0.47128  0.96118  0.30057  1.0000
  H   H1644     1.0  0.37590  0.82591  0.98556  1.0000
  H   H1645     1.0  0.49975  0.87142  0.47344  1.0000
  C   C950      1.0  0.48755  0.94525  0.39345  1.0000
  H   H1646     1.0  0.28699  0.77687  0.98678  1.0000
  Fe  Fe128     1.0  0.49470  0.94541  0.98314  1.0000
  H   H1647     1.0  0.43448  0.96199  0.98284  1.0000
  C   C951      1.0  0.41221  0.69839  0.46453  1.0000
  H   H1648     1.0  0.31230  0.67082  0.14784  1.0000
  C   C952      1.0  0.28720  0.75483  0.98366  1.0000
  H   H1649     1.0  0.39181  0.87008  0.48141  1.0000
  H   H1650     1.0  0.45159  0.77597  0.48175  1.0000
  C   C953      1.0  0.50026  0.81919  0.32422  1.0000
  H   H1651     1.0  0.48962  0.00330  0.17497  1.0000
  H   H1652     1.0  0.48156  0.00298  0.22885  1.0000
  S   S263      1.0  0.44452  0.95825  0.65017  1.0000
  H   H1653     1.0  0.38928  0.83338  0.88212  1.0000
  H   H1654     1.0  0.45654  0.86983  0.87175  1.0000
  H   H1655     1.0  0.33516  0.69869  0.58934  1.0000
  H   H1656     1.0  0.32321  0.79021  0.85675  1.0000
  C   C954      1.0  0.31063  0.81101  0.80344  1.0000
  H   H1657     1.0  0.31973  0.71521  0.60452  1.0000
  C   C955      1.0  0.28938  0.77121  0.91019  1.0000
  C   C956      1.0  0.47138  0.97018  0.54748  1.0000
  H   H1658     1.0  0.49118  0.96942  0.77166  1.0000
  N   N68       1.0  0.27380  0.75534  0.50723  1.0000
  C   C957      1.0  0.29165  0.76942  0.61751  1.0000
  C   C958      1.0  0.39581  0.67894  0.75669  1.0000
  N   N69       1.0  0.44564  0.76710  0.52693  1.0000
  H   H1659     1.0  0.47839  0.96084  0.79870  1.0000
  Fe  Fe129     1.0  0.41729  0.93142  0.89585  1.0000
  S   S264      1.0  0.42083  0.91405  0.89304  1.0000
  S   S265      1.0  0.41853  0.94659  0.85756  1.0000
  Fe  Fe130     1.0  0.40594  0.90571  0.93293  1.0000
  S   S266      1.0  0.39599  0.88704  0.93171  1.0000
  Fe  Fe131     1.0  0.43198  0.91713  0.92312  1.0000
  S   S267      1.0  0.45029  0.91497  0.91442  1.0000
  S   S268      1.0  0.40170  0.92326  0.93443  1.0000
  S   S269      1.0  0.42971  0.93514  0.92311  1.0000
  Fe  Fe132     1.0  0.47138  0.85514  0.95364  1.0000
  H   H1660     1.0  0.32102  0.79861  0.58312  1.0000
  H   H1661     1.0  0.31160  0.71869  0.63463  1.0000
  Fe  Fe133     1.0  0.46956  0.82852  0.95872  1.0000
  C   C959      1.0  0.38263  0.85154  0.49731  1.0000
  H   H1662     1.0  0.32742  0.69694  0.62469  1.0000
  Fe  Fe134     1.0  0.45101  0.83913  0.93946  1.0000
  S   S270      1.0  0.43775  0.83790  0.91298  1.0000
  H   H1663     1.0  0.27017  0.75719  0.80688  1.0000
  C   C960      1.0  0.44738  0.78695  0.66351  1.0000
  S   S271      1.0  0.47052  0.84381  0.92215  1.0000
  C   C961      1.0  0.48048  0.68156  0.94015  1.0000
  Fe  Fe135     1.0  0.45224  0.82599  0.69574  1.0000
  S   S272      1.0  0.43675  0.81050  0.70643  1.0000
  S   S273      1.0  0.46475  0.83260  0.65176  1.0000
  Fe  Fe136     1.0  0.44850  0.82780  0.75776  1.0000
  S   S274      1.0  0.43262  0.81240  0.77381  1.0000
  S   S275      1.0  0.45778  0.83814  0.78381  1.0000
  Fe  Fe137     1.0  0.44286  0.80383  0.74494  1.0000
  S   S276      1.0  0.44358  0.78499  0.75793  1.0000
  Fe  Fe138     1.0  0.42769  0.82029  0.73406  1.0000
  S   S277      1.0  0.40909  0.82144  0.73759  1.0000
  S   S278      1.0  0.45924  0.81846  0.73213  1.0000
  S   S279      1.0  0.44274  0.83656  0.72023  1.0000
  Fe  Fe139     1.0  0.32198  0.80902  0.93185  1.0000
  S   S280      1.0  0.33380  0.79695  0.93231  1.0000
  Fe  Fe140     1.0  0.34281  0.83076  0.92888  1.0000
  S   S281      1.0  0.35550  0.81945  0.92852  1.0000
  S   S282      1.0  0.34860  0.85022  0.93105  1.0000
  Fe  Fe141     1.0  0.34675  0.81176  0.89794  1.0000
  S   S283      1.0  0.35648  0.80672  0.86013  1.0000
  H   H1664     1.0  0.45509  0.79670  0.52814  1.0000
  H   H1665     1.0  0.38909  0.67503  0.54540  1.0000
  S   S284      1.0  0.33474  0.82379  0.89582  1.0000
  S   S285      1.0  0.32851  0.81737  0.96482  1.0000
  Fe  Fe142     1.0  0.36021  0.79519  0.68093  1.0000
  S   S286      1.0  0.35686  0.81314  0.67329  1.0000
  S   S287      1.0  0.37820  0.79212  0.67430  1.0000
  Fe  Fe143     1.0  0.33452  0.78249  0.69785  1.0000
  S   S288      1.0  0.32899  0.79935  0.69191  1.0000
  S   S289      1.0  0.32067  0.76526  0.71485  1.0000
  Fe  Fe144     1.0  0.34359  0.80554  0.65156  1.0000
  S   S290      1.0  0.34091  0.81630  0.61112  1.0000
  Fe  Fe145     1.0  0.34268  0.80531  0.71430  1.0000
  S   S291      1.0  0.33850  0.81531  0.74769  1.0000
  S   S292      1.0  0.34810  0.78813  0.65598  1.0000
  S   S293      1.0  0.34705  0.78786  0.72349  1.0000
  H   H1666     1.0  0.31128  0.81992  0.88160  1.0000
  S   S294      1.0  0.43064  0.72747  0.87089  1.0000
  S   S295      1.0  0.47782  0.87535  0.94289  1.0000
  H   H1667     1.0  0.29728  0.80071  0.55252  1.0000
  S   S296      1.0  0.43633  0.73685  0.93605  1.0000
  H   H1668     1.0  0.37928  0.83740  0.86222  1.0000
  Fe  Fe146     1.0  0.41432  0.73694  0.69922  1.0000
  S   S297      1.0  0.43268  0.73499  0.69093  1.0000
  S   S298      1.0  0.40931  0.75340  0.70620  1.0000
  Fe  Fe147     1.0  0.40409  0.71223  0.69533  1.0000
  S   S299      1.0  0.42165  0.70801  0.68786  1.0000
  S   S300      1.0  0.38642  0.69993  0.70006  1.0000
  Fe  Fe148     1.0  0.42480  0.71727  0.72218  1.0000
  S   S301      1.0  0.43434  0.71100  0.75533  1.0000
  Fe  Fe149     1.0  0.42802  0.72612  0.65742  1.0000
  S   S302      1.0  0.44162  0.73134  0.61484  1.0000
  S   S303      1.0  0.40661  0.71977  0.73242  1.0000
  S   S304      1.0  0.41027  0.72974  0.66287  1.0000
  C   C962      1.0  0.38424  0.69279  0.67296  1.0000
  C   C963      1.0  0.39338  0.69411  0.64910  1.0000
  C   C964      1.0  0.39146  0.68799  0.62837  1.0000
  C   C965      1.0  0.38044  0.68046  0.63134  1.0000
  C   C966      1.0  0.35610  0.84914  0.51041  1.0000
  H   H1669     1.0  0.40193  0.69981  0.64663  1.0000
  H   H1670     1.0  0.39862  0.68907  0.61012  1.0000
  H   H1671     1.0  0.29247  0.74167  0.67741  1.0000
  C   C967      1.0  0.43229  0.72330  0.83817  1.0000
  C   C968      1.0  0.44194  0.71944  0.82652  1.0000
  C   C969      1.0  0.44257  0.71587  0.80088  1.0000
  C   C970      1.0  0.43369  0.71635  0.78639  1.0000
  C   C971      1.0  0.42421  0.72048  0.79774  1.0000
  C   C972      1.0  0.42345  0.72378  0.82364  1.0000
  H   H1672     1.0  0.31550  0.68613  0.58346  1.0000
  H   H1673     1.0  0.31971  0.81675  0.79512  1.0000
  H   H1674     1.0  0.41728  0.72083  0.78697  1.0000
  H   H1675     1.0  0.41588  0.72660  0.83266  1.0000
  H   H1676     1.0  0.29364  0.74586  0.84240  1.0000
  C   C973      1.0  0.26892  0.75421  0.53851  1.0000
  C   C974      1.0  0.45945  0.96319  0.73355  1.0000
  H   H1677     1.0  0.39277  0.67686  0.70728  1.0000
  C   C975      1.0  0.26580  0.72034  0.81127  1.0000
  H   H1678     1.0  0.46488  0.79909  0.64329  1.0000
  H   H1679     1.0  0.41950  0.72091  0.60353  1.0000
  H   H1680     1.0  0.37554  0.93035  0.87785  1.0000
  H   H1681     1.0  0.44884  0.71912  0.83736  1.0000
  H   H1682     1.0  0.30527  0.83196  0.87114  1.0000
  C   C976      1.0  0.31646  0.75888  0.68834  1.0000
  C   C977      1.0  0.30502  0.75190  0.69389  1.0000
  C   C978      1.0  0.30142  0.74673  0.67314  1.0000
  H   H1683     1.0  0.48783  0.90610  0.86533  1.0000
  C   C979      1.0  0.32085  0.75512  0.64140  1.0000
  C   C980      1.0  0.32437  0.76053  0.66198  1.0000
  H   H1684     1.0  0.29883  0.75056  0.71409  1.0000
  C   C981      1.0  0.30472  0.82264  0.87078  1.0000
  H   H1685     1.0  0.29942  0.68449  0.56711  1.0000
  H   H1686     1.0  0.33327  0.76575  0.65766  1.0000
  C   C982      1.0  0.35188  0.80943  0.82836  1.0000
  C   C983      1.0  0.34660  0.81860  0.82167  1.0000
  C   C984      1.0  0.34301  0.82064  0.79622  1.0000
  C   C985      1.0  0.34451  0.81342  0.77747  1.0000
  C   C986      1.0  0.35016  0.80449  0.78371  1.0000
  C   C987      1.0  0.35390  0.80256  0.80900  1.0000
  H   H1687     1.0  0.34539  0.82422  0.83593  1.0000
  H   H1688     1.0  0.33901  0.82781  0.79111  1.0000
  H   H1689     1.0  0.35153  0.79898  0.76925  1.0000
  H   H1690     1.0  0.35819  0.79558  0.81379  1.0000
  C   C988      1.0  0.34467  0.80280  0.53049  1.0000
  C   C989      1.0  0.34779  0.79698  0.55425  1.0000
  C   C990      1.0  0.34694  0.80120  0.57884  1.0000
  C   C991      1.0  0.34284  0.81122  0.57996  1.0000
  C   C992      1.0  0.33982  0.81713  0.55607  1.0000
  C   C993      1.0  0.34080  0.81298  0.53132  1.0000
  H   H1691     1.0  0.35078  0.78909  0.55373  1.0000
  H   H1692     1.0  0.34934  0.79661  0.59699  1.0000
  H   H1693     1.0  0.33653  0.82482  0.55689  1.0000
  H   H1694     1.0  0.33837  0.81754  0.51314  1.0000
  C   C994      1.0  0.43352  0.77583  0.74561  1.0000
  C   C995      1.0  0.43518  0.76491  0.74251  1.0000
  C   C996      1.0  0.42749  0.75775  0.73150  1.0000
  C   C997      1.0  0.41822  0.76157  0.72310  1.0000
  C   C998      1.0  0.41639  0.77238  0.72683  1.0000
  C   C999      1.0  0.42398  0.77946  0.73827  1.0000
  H   H1695     1.0  0.44253  0.76203  0.74823  1.0000
  H   H1696     1.0  0.42884  0.74934  0.72926  1.0000
  H   H1697     1.0  0.40924  0.77541  0.72040  1.0000
  H   H1698     1.0  0.42245  0.78774  0.74126  1.0000
  C   C1000     1.0  0.40053  0.81282  0.72077  1.0000
  C   C1001     1.0  0.38908  0.81378  0.72176  1.0000
  C   C1002     1.0  0.38212  0.80727  0.70796  1.0000
  C   C1003     1.0  0.38663  0.79986  0.69282  1.0000
  C   C1004     1.0  0.39798  0.79866  0.69231  1.0000
  C   C1005     1.0  0.40489  0.80510  0.70638  1.0000
  H   H1699     1.0  0.38562  0.81970  0.73286  1.0000
  H   H1700     1.0  0.37332  0.80813  0.70875  1.0000
  H   H1701     1.0  0.40145  0.79284  0.68085  1.0000
  H   H1702     1.0  0.41359  0.80412  0.70589  1.0000
  Fe  Fe150     1.0  0.26261  0.72302  0.62740  1.0000
  S   S305      1.0  0.47748  0.96822  0.64601  1.0000
  H   H1703     1.0  0.30497  0.71680  0.60638  1.0000
  C   C1006     1.0  0.48855  0.99440  0.68202  1.0000
  H   H1704     1.0  0.45195  0.80080  0.84844  1.0000
  N   N70       1.0  0.46754  0.94755  0.56682  1.0000
  H   H1705     1.0  0.32703  0.75628  0.62119  1.0000
  C   C1007     1.0  0.44710  0.83112  0.62381  1.0000
  C   C1008     1.0  0.45912  0.83291  0.62154  1.0000
  S   S306      1.0  0.30477  0.74176  0.62100  1.0000
  H   H1706     1.0  0.36320  0.91264  0.91366  1.0000
  C   C1009     1.0  0.30935  0.74822  0.64698  1.0000
  H   H1707     1.0  0.44109  0.82985  0.64434  1.0000
  H   H1708     1.0  0.45172  0.80826  0.58046  1.0000
  S   S307      1.0  0.27079  0.73741  0.64549  1.0000
  C   C1010     1.0  0.44319  0.83799  0.87699  1.0000
  C   C1011     1.0  0.45473  0.84404  0.86221  1.0000
  C   C1012     1.0  0.45890  0.84428  0.83342  1.0000
  C   C1013     1.0  0.45170  0.83822  0.81932  1.0000
  C   C1014     1.0  0.44014  0.83212  0.83405  1.0000
  C   C1015     1.0  0.43584  0.83215  0.86274  1.0000
  H   H1709     1.0  0.46039  0.84875  0.87277  1.0000
  H   H1710     1.0  0.46781  0.84912  0.82207  1.0000
  H   H1711     1.0  0.43455  0.82738  0.82335  1.0000
  H   H1712     1.0  0.42689  0.82748  0.87407  1.0000
  C   C1016     1.0  0.38270  0.87704  0.93111  1.0000
  C   C1017     1.0  0.37167  0.87938  0.93768  1.0000
  C   C1018     1.0  0.36147  0.87118  0.93712  1.0000
  C   C1019     1.0  0.36199  0.86040  0.93031  1.0000
  C   C1020     1.0  0.37304  0.85811  0.92347  1.0000
  C   C1021     1.0  0.38325  0.86633  0.92399  1.0000
  H   H1713     1.0  0.37095  0.88742  0.94363  1.0000
  H   H1714     1.0  0.35304  0.87312  0.94245  1.0000
  H   H1715     1.0  0.37370  0.84996  0.91795  1.0000
  H   H1716     1.0  0.29702  0.78071  0.49196  1.0000
  H   H1717     1.0  0.27019  0.76611  0.83171  1.0000
  H   H1718     1.0  0.32088  0.77749  0.77030  1.0000
  C   C1022     1.0  0.46929  0.70497  0.86071  1.0000
  C   C1023     1.0  0.48756  0.88537  0.95492  1.0000
  C   C1024     1.0  0.47567  0.79048  0.94979  1.0000
  H   H1719     1.0  0.32487  0.78310  0.61651  1.0000
  H   H1720     1.0  0.36383  0.82425  0.53084  1.0000
  C   C1025     1.0  0.31118  0.77502  0.77860  1.0000
  C   C1026     1.0  0.49428  0.97367  0.67407  1.0000
  C   C1027     1.0  0.47515  0.93314  0.94405  1.0000
  C   C1028     1.0  0.46956  0.92684  0.92747  1.0000
  C   C1029     1.0  0.45746  0.92178  0.93649  1.0000
  H   H1721     1.0  0.48406  0.79124  0.95488  1.0000
  H   H1722     1.0  0.27189  0.74955  0.58072  1.0000
  H   H1723     1.0  0.44599  0.67216  0.85859  1.0000
  H   H1724     1.0  0.47452  0.92631  0.90716  1.0000
  H   H1725     1.0  0.47998  0.88212  0.50969  1.0000
  H   H1726     1.0  0.39017  0.86474  0.51856  1.0000
  C   C1030     1.0  0.25253  0.72044  0.56700  1.0000
  H   H1727     1.0  0.45817  0.69571  0.81574  1.0000
  C   C1031     1.0  0.25526  0.71277  0.51638  1.0000
  H   H1728     1.0  0.43268  0.97336  0.93575  1.0000
  H   H1729     1.0  0.31844  0.70143  0.57720  1.0000
  C   C1032     1.0  0.42508  0.95168  0.75973  1.0000
  H   H1730     1.0  0.37846  0.81035  0.81810  1.0000
  C   C1033     1.0  0.42222  0.93882  0.80755  1.0000
  C   C1034     1.0  0.42187  0.94832  0.81979  1.0000
  C   C1035     1.0  0.42365  0.95957  0.80160  1.0000
  C   C1036     1.0  0.42541  0.96129  0.77177  1.0000
  H   H1731     1.0  0.48038  0.97656  0.78418  1.0000
  H   H1732     1.0  0.46859  0.83552  0.55010  1.0000
  C   C1037     1.0  0.48250  0.98755  0.66719  1.0000
  C   C1038     1.0  0.43103  0.95799  0.55298  1.0000
  N   N71       1.0  0.30643  0.80960  0.83513  1.0000
  C   C1039     1.0  0.43041  0.95162  0.50869  1.0000
  C   C1040     1.0  0.41894  0.94450  0.52096  1.0000
  C   C1041     1.0  0.41368  0.94414  0.54949  1.0000
  C   C1042     1.0  0.41969  0.95066  0.56547  1.0000
  C   C1043     1.0  0.38799  0.83547  0.86022  1.0000
  H   H1733     1.0  0.40482  0.93878  0.55934  1.0000
  H   H1734     1.0  0.41541  0.95018  0.58727  1.0000
  H   H1735     1.0  0.30167  0.67294  0.62140  1.0000
  S   S308      1.0  0.26937  0.73037  0.90936  1.0000
  C   C1044     1.0  0.49392  0.90527  0.96119  1.0000
  C   C1045     1.0  0.48523  0.97707  0.66365  1.0000
  Fe  Fe151     1.0  0.41473  0.92595  0.96180  1.0000
  H   H1736     1.0  0.49194  0.68678  0.50372  1.0000
  H   H1737     1.0  0.44588  0.69559  0.84385  1.0000
  H   H1738     1.0  0.45143  0.72986  0.51488  1.0000
  S   S309      1.0  0.47659  0.83906  0.48782  1.0000
  H   H1739     1.0  0.44728  0.94979  0.78022  1.0000
  H   H1740     1.0  0.31037  0.80128  0.87405  1.0000
  H   H1741     1.0  0.42705  0.85226  0.95200  1.0000
  C   C1046     1.0  0.45859  0.67158  0.89572  1.0000
  H   H1742     1.0  0.44507  0.75567  0.87094  1.0000
  C   C1047     1.0  0.45566  0.97758  0.94002  1.0000
  H   H1743     1.0  0.28110  0.74703  0.78167  1.0000
  H   H1744     1.0  0.39167  0.86435  0.91879  1.0000
  H   H1745     1.0  0.32565  0.77933  0.56707  1.0000
  H   H1746     1.0  0.31626  0.82769  0.82847  1.0000
  H   H1747     1.0  0.44041  0.80666  0.64305  1.0000
  H   H1748     1.0  0.47167  0.90935  0.51252  1.0000
  H   H1749     1.0  0.26662  0.71271  0.57421  1.0000
  Fe  Fe152     1.0  0.25464  0.71905  0.94648  1.0000
  C   C1048     1.0  0.29383  0.80255  0.84750  1.0000
  C   C1049     1.0  0.30317  0.81625  0.78490  1.0000
  C   C1050     1.0  0.29012  0.79071  0.84004  1.0000
  H   H1750     1.0  0.30113  0.82602  0.82979  1.0000
  H   H1751     1.0  0.31135  0.80259  0.79824  1.0000
  H   H1752     1.0  0.29158  0.80040  0.87124  1.0000
  H   H1753     1.0  0.28762  0.80783  0.84203  1.0000
  H   H1754     1.0  0.29383  0.81124  0.79202  1.0000
  H   H1755     1.0  0.30393  0.82568  0.78413  1.0000
  H   H1756     1.0  0.30658  0.81587  0.76255  1.0000
  H   H1757     1.0  0.29150  0.78340  0.85560  1.0000
  H   H1758     1.0  0.29446  0.79068  0.81819  1.0000
  H   H1759     1.0  0.28061  0.78875  0.84100  1.0000
  C   C1051     1.0  0.30731  0.82183  0.83946  1.0000
  H   H1760     1.0  0.42321  0.93294  0.76881  1.0000
  H   H1761     1.0  0.28174  0.76116  0.74242  1.0000
  N   N72       1.0  0.46285  0.96433  0.76078  1.0000
  H   H1762     1.0  0.32456  0.79667  0.82019  1.0000
  C   C1052     1.0  0.44948  0.98564  0.95500  1.0000
  H   H1763     1.0  0.40382  0.83408  0.77682  1.0000
  N   N73       1.0  0.30906  0.78378  0.57719  1.0000
  H   H1764     1.0  0.48257  0.94001  0.60319  1.0000
  C   C1053     1.0  0.28745  0.76374  0.81501  1.0000
  S   S310      1.0  0.45749  0.98448  0.60887  1.0000
  H   H1765     1.0  0.31862  0.75999  0.55850  1.0000
  H   H1766     1.0  0.28323  0.76324  0.61869  1.0000
  C   C1054     1.0  0.31139  0.79141  0.54718  1.0000
  H   H1767     1.0  0.47374  0.69086  0.88606  1.0000
  H   H1768     1.0  0.46474  0.70724  0.84396  1.0000
  N   N74       1.0  0.37410  0.84225  0.52234  1.0000
  H   H1769     1.0  0.45965  0.67260  0.91697  1.0000
  S   S311      1.0  0.27898  0.71691  0.61753  1.0000
  C   C1055     1.0  0.37158  0.83054  0.51489  1.0000
  H   H1770     1.0  0.26527  0.76912  0.49513  1.0000
  H   H1771     1.0  0.37386  0.67700  0.73647  1.0000
  C   C1056     1.0  0.26581  0.67935  0.64791  1.0000
  S   S312      1.0  0.42926  0.72054  0.50250  1.0000
  H   H1772     1.0  0.44446  0.86286  0.91972  1.0000
  H   H1773     1.0  0.46393  0.82064  0.82546  1.0000
  C   C1057     1.0  0.47184  0.87585  0.52438  1.0000
  C   C1058     1.0  0.44846  0.68714  0.89661  1.0000
  C   C1059     1.0  0.46415  0.89239  0.50565  1.0000
  H   H1774     1.0  0.45098  0.88248  0.86396  1.0000
  S   S313      1.0  0.25144  0.72656  0.59668  1.0000
  H   H1775     1.0  0.47754  0.67281  0.88078  1.0000
  H   H1776     1.0  0.46390  0.78924  0.85889  1.0000
  H   H1777     1.0  0.46455  0.80415  0.58568  1.0000
  C   C1060     1.0  0.27742  0.77105  0.91358  1.0000
  H   H1778     1.0  0.46340  0.89877  0.54480  1.0000
  S   S314      1.0  0.28090  0.71752  0.68309  1.0000
  H   H1779     1.0  0.42569  0.74811  0.58983  1.0000
  Fe  Fe153     1.0  0.44229  0.72353  0.96439  1.0000
  H   H1780     1.0  0.29055  0.67718  0.64324  1.0000
  H   H1781     1.0  0.39524  0.70181  0.49954  1.0000
  C   C1061     1.0  0.44548  0.77839  0.53576  1.0000
  H   H1782     1.0  0.31832  0.79229  0.63502  1.0000
  H   H1783     1.0  0.28278  0.78105  0.48817  1.0000
  C   C1062     1.0  0.45030  0.69005  0.83252  1.0000
  N   N75       1.0  0.43647  0.87732  0.92260  1.0000
  C   C1063     1.0  0.44457  0.88138  0.94026  1.0000
  C   C1064     1.0  0.44189  0.86980  0.90560  1.0000
  C   C1065     1.0  0.42456  0.87018  0.94108  1.0000
  C   C1066     1.0  0.43493  0.88807  0.90336  1.0000
  Fe  Fe154     1.0  0.34102  0.80596  0.96287  1.0000
  H   H1784     1.0  0.43334  0.98893  0.58199  1.0000
  C   C1067     1.0  0.25201  0.68850  0.74793  1.0000
  C   C1068     1.0  0.42723  0.88577  0.88265  1.0000
  H   H1785     1.0  0.37748  0.68903  0.76830  1.0000
  H   H1786     1.0  0.45255  0.88820  0.92642  1.0000
  H   H1787     1.0  0.43547  0.86473  0.89642  1.0000
  H   H1788     1.0  0.43617  0.77240  0.49569  1.0000
  H   H1789     1.0  0.38885  0.83935  0.53920  1.0000
  H   H1790     1.0  0.41874  0.86726  0.92767  1.0000
  H   H1791     1.0  0.43077  0.89338  0.91627  1.0000
  H   H1792     1.0  0.44351  0.89430  0.89090  1.0000
  Fe  Fe155     1.0  0.26456  0.72391  0.68783  1.0000
  H   H1793     1.0  0.28147  0.74041  0.51152  1.0000
  C   C1069     1.0  0.30022  0.67927  0.63444  1.0000
  N   N76       1.0  0.40406  0.68950  0.51961  1.0000
  N   N77       1.0  0.47652  0.81292  0.84287  1.0000
  H   H1794     1.0  0.45387  0.80229  0.88326  1.0000
  H   H1795     1.0  0.28694  0.67680  0.59742  1.0000
  H   H1796     1.0  0.47882  0.89917  0.94592  1.0000
  C   C1070     1.0  0.45613  0.95806  0.93245  1.0000
  H   H1797     1.0  0.41789  0.88494  0.89284  1.0000
  H   H1798     1.0  0.42781  0.87782  0.87505  1.0000
  H   H1799     1.0  0.43025  0.89324  0.86316  1.0000
  H   H1800     1.0  0.38039  0.93432  0.81992  1.0000
  C   C1071     1.0  0.47038  0.79992  0.94938  1.0000
  H   H1801     1.0  0.47557  0.98900  0.74203  1.0000
  C   C1072     1.0  0.28881  0.76425  0.75256  1.0000
  H   H1802     1.0  0.29488  0.76012  0.96598  1.0000
  Fe  Fe156     1.0  0.27180  0.70500  0.66183  1.0000
  H   H1803     1.0  0.31490  0.77089  0.53426  1.0000
  S   S315      1.0  0.26803  0.71555  0.84540  1.0000
  H   H1804     1.0  0.31536  0.76918  0.59684  1.0000
  C   C1073     1.0  0.31612  0.77481  0.57553  1.0000
  H   H1805     1.0  0.45650  0.75498  0.52202  1.0000
  H   H1806     1.0  0.35661  0.83833  0.54983  1.0000
  H   H1807     1.0  0.26733  0.76266  0.54215  1.0000
  H   H1808     1.0  0.31134  0.80900  0.55465  1.0000
  H   H1809     1.0  0.45468  0.78557  0.61127  1.0000
  C   C1074     1.0  0.26159  0.68591  0.62742  1.0000
  C   C1075     1.0  0.43286  0.72325  0.53383  1.0000
  C   C1076     1.0  0.37219  0.67976  0.77773  1.0000
  S   S316      1.0  0.45176  0.85109  0.96856  1.0000
  C   C1077     1.0  0.38003  0.84087  0.54652  1.0000
  C   C1078     1.0  0.28604  0.76334  0.49617  1.0000
  H   H1810     1.0  0.37899  0.82636  0.51598  1.0000
  H   H1811     1.0  0.38108  0.69058  0.54777  1.0000
  H   H1812     1.0  0.31157  0.75736  0.77713  1.0000
  H   H1813     1.0  0.39158  0.85489  0.97853  1.0000
  H   H1814     1.0  0.39101  0.84898  0.49151  1.0000
  N   N78       1.0  0.45734  0.68289  0.87787  1.0000
  H   H1815     1.0  0.44168  0.91878  0.96968  1.0000
  C   C1079     1.0  0.30513  0.67586  0.66050  1.0000
  H   H1816     1.0  0.44750  0.69582  0.88585  1.0000
  H   H1817     1.0  0.49111  0.97565  0.58045  1.0000
  C   C1080     1.0  0.45709  0.76379  0.52642  1.0000
  H   H1818     1.0  0.46049  0.67766  0.83828  1.0000
  S   S317      1.0  0.41048  0.93667  0.50122  1.0000
  H   H1819     1.0  0.26630  0.73657  0.51594  1.0000
  C   C1081     1.0  0.42447  0.85892  0.96285  1.0000
  C   C1082     1.0  0.45103  0.92268  0.96252  1.0000
  H   H1820     1.0  0.44885  0.99240  0.54244  1.0000
  C   C1083     1.0  0.45348  0.68016  0.85230  1.0000
  N   N79       1.0  0.37443  0.75461  0.70067  1.0000
  C   C1084     1.0  0.38070  0.74522  0.69612  1.0000
  C   C1085     1.0  0.38185  0.76323  0.71236  1.0000
  C   C1086     1.0  0.37268  0.76112  0.67305  1.0000
  C   C1087     1.0  0.36254  0.74888  0.72109  1.0000
  C   C1088     1.0  0.37511  0.73609  0.68166  1.0000
  C   C1089     1.0  0.38211  0.75881  0.74372  1.0000
  C   C1090     1.0  0.38392  0.76691  0.64864  1.0000
  C   C1091     1.0  0.35500  0.75732  0.72893  1.0000
  H   H1821     1.0  0.38988  0.74923  0.68310  1.0000
  H   H1822     1.0  0.38149  0.74012  0.71679  1.0000
  H   H1823     1.0  0.37913  0.77157  0.71052  1.0000
  H   H1824     1.0  0.39113  0.76599  0.69946  1.0000
  H   H1825     1.0  0.36643  0.75528  0.66500  1.0000
  H   H1826     1.0  0.36843  0.76828  0.67651  1.0000
  H   H1827     1.0  0.35711  0.74276  0.71188  1.0000
  H   H1828     1.0  0.36315  0.74303  0.74105  1.0000
  H   H1829     1.0  0.36637  0.73062  0.69487  1.0000
  H   H1830     1.0  0.37457  0.74021  0.65995  1.0000
  H   H1831     1.0  0.38076  0.72992  0.67915  1.0000
  H   H1832     1.0  0.37346  0.75743  0.75871  1.0000
  H   H1833     1.0  0.38519  0.75067  0.74740  1.0000
  H   H1834     1.0  0.38839  0.76566  0.74907  1.0000
  H   H1835     1.0  0.38153  0.77171  0.62990  1.0000
  H   H1836     1.0  0.38828  0.76032  0.64165  1.0000
  H   H1837     1.0  0.39021  0.77353  0.65454  1.0000
  H   H1838     1.0  0.34919  0.75851  0.71435  1.0000
  H   H1839     1.0  0.36021  0.76616  0.72822  1.0000
  H   H1840     1.0  0.34949  0.75365  0.75122  1.0000
  N   N80       1.0  0.30487  0.69181  0.61616  1.0000
  C   C1092     1.0  0.29603  0.69445  0.59966  1.0000
  C   C1093     1.0  0.30582  0.70030  0.63475  1.0000
  H   H1841     1.0  0.25760  0.73381  0.82136  1.0000
  C   C1094     1.0  0.31630  0.69326  0.59480  1.0000
  C   C1095     1.0  0.29200  0.68551  0.58296  1.0000
  C   C1096     1.0  0.31083  0.71344  0.61873  1.0000
  H   H1842     1.0  0.45995  0.88122  0.88930  1.0000
  C   C1097     1.0  0.32728  0.69313  0.60625  1.0000
  H   H1843     1.0  0.28795  0.69507  0.61420  1.0000
  H   H1844     1.0  0.29948  0.70318  0.58379  1.0000
  H   H1845     1.0  0.31132  0.69838  0.64960  1.0000
  H   H1846     1.0  0.29706  0.69935  0.64907  1.0000
  C   C1098     1.0  0.31444  0.80427  0.85065  1.0000
  C   C1099     1.0  0.46951  0.96149  0.91902  1.0000
  S   S318      1.0  0.47791  0.81323  0.95543  1.0000
  H   H1847     1.0  0.44998  0.71280  0.79207  1.0000
  H   H1848     1.0  0.47616  0.83609  0.59290  1.0000
  H   H1849     1.0  0.29579  0.81742  0.88339  1.0000
  H   H1850     1.0  0.45532  0.80591  0.94226  1.0000
  C   C1100     1.0  0.47333  0.86359  0.52190  1.0000
  C   C1101     1.0  0.46206  0.94795  0.59681  1.0000
  C   C1102     1.0  0.45953  0.79877  0.94279  1.0000
  H   H1851     1.0  0.32270  0.81102  0.84808  1.0000
  H   H1852     1.0  0.47736  0.81435  0.88542  1.0000
  H   H1853     1.0  0.44134  0.78444  0.68529  1.0000
  H   H1854     1.0  0.47140  0.79993  0.88404  1.0000
  C   C1103     1.0  0.37340  0.91169  0.85465  1.0000
  Fe  Fe157     1.0  0.44294  0.72913  0.90014  1.0000
  H   H1855     1.0  0.42819  0.78540  0.86194  1.0000
  C   C1104     1.0  0.47041  0.68552  0.94814  1.0000
  C   C1105     1.0  0.46685  0.83469  0.59476  1.0000
  C   C1106     1.0  0.43806  0.72763  0.58439  1.0000
  H   H1856     1.0  0.43860  0.86151  0.57740  1.0000
  H   H1857     1.0  0.43354  0.82966  0.60125  1.0000
  C   C1107     1.0  0.42647  0.72284  0.58427  1.0000
  C   C1108     1.0  0.44284  0.83099  0.59941  1.0000
  H   H1858     1.0  0.41601  0.68353  0.49003  1.0000
  C   C1109     1.0  0.45297  0.87638  0.88133  1.0000
  H   H1859     1.0  0.30755  0.73889  0.80730  1.0000
  H   H1860     1.0  0.26011  0.74782  0.54653  1.0000
  H   H1861     1.0  0.41718  0.76881  0.89862  1.0000
  H   H1862     1.0  0.39611  0.68747  0.74206  1.0000
  H   H1863     1.0  0.45970  0.93832  0.64076  1.0000
  C   C1110     1.0  0.31309  0.79155  0.59569  1.0000
  H   H1864     1.0  0.43718  0.79119  0.82549  1.0000
  C   C1111     1.0  0.37334  0.83084  0.57360  1.0000
  C   C1112     1.0  0.26943  0.71482  0.78986  1.0000
  H   H1865     1.0  0.49506  0.90163  0.89203  1.0000
  S   S319      1.0  0.30234  0.80101  0.93603  1.0000
  H   H1866     1.0  0.35140  0.85566  0.51653  1.0000
  S   S320      1.0  0.44719  0.71461  0.92957  1.0000
  Fe  Fe158     1.0  0.44794  0.99192  0.64182  1.0000
  C   C1113     1.0  0.27398  0.75921  0.82444  1.0000
  H   H1867     1.0  0.32843  0.68408  0.61184  1.0000
  H   H1868     1.0  0.46149  0.97628  0.78829  1.0000
  H   H1869     1.0  0.47484  0.77325  0.94175  1.0000
  H   H1870     1.0  0.44383  0.68607  0.82183  1.0000
  H   H1871     1.0  0.44399  0.77630  0.85041  1.0000
  H   H1872     1.0  0.42008  0.67959  0.56735  1.0000
  C   C1114     1.0  0.47101  0.79116  0.83924  1.0000
  Fe  Fe159     1.0  0.28648  0.73007  0.63948  1.0000
  H   H1873     1.0  0.48066  0.97246  0.73562  1.0000
  C   C1115     1.0  0.31303  0.76628  0.55717  1.0000
  C   C1116     1.0  0.45981  0.77931  0.93472  1.0000
  S   S321      1.0  0.44481  0.83182  0.54291  1.0000
  C   C1117     1.0  0.42825  0.78648  0.83920  1.0000
  H   H1874     1.0  0.42243  0.79227  0.83434  1.0000
  H   H1875     1.0  0.43268  0.76952  0.89279  1.0000
  C   C1118     1.0  0.45429  0.78853  0.93559  1.0000
  H   H1876     1.0  0.39361  0.68026  0.77850  1.0000
  H   H1877     1.0  0.29710  0.76797  0.73546  1.0000
  H   H1878     1.0  0.28628  0.77138  0.76127  1.0000
  C   C1119     1.0  0.43548  0.76601  0.64759  1.0000
  C   C1120     1.0  0.46149  0.76298  0.55374  1.0000
  H   H1879     1.0  0.46046  0.95864  0.82198  1.0000
  H   H1880     1.0  0.47797  0.95724  0.75148  1.0000
  H   H1881     1.0  0.46714  0.78696  0.82411  1.0000
  H   H1882     1.0  0.36645  0.82124  0.48425  1.0000
  H   H1883     1.0  0.45398  0.87994  0.56093  1.0000
  H   H1884     1.0  0.30639  0.78025  0.91400  1.0000
  H   H1885     1.0  0.37778  0.86760  0.50519  1.0000
  H   H1886     1.0  0.41418  0.77184  0.84063  1.0000
  C   C1121     1.0  0.29606  0.77819  0.58780  1.0000
  H   H1887     1.0  0.38859  0.94309  0.83884  1.0000
  C   C1122     1.0  0.40925  0.68836  0.54506  1.0000
  H   H1888     1.0  0.27783  0.79511  0.94069  1.0000
  H   H1889     1.0  0.42180  0.98300  0.55411  1.0000
  C   C1123     1.0  0.38834  0.69847  0.54453  1.0000
  C   C1124     1.0  0.26708  0.71796  0.76301  1.0000
  C   C1125     1.0  0.37901  0.83450  0.77810  1.0000
  H   H1890     1.0  0.37170  0.82821  0.82356  1.0000
  H   H1891     1.0  0.37437  0.82600  0.77520  1.0000
  C   C1126     1.0  0.43045  0.00162  0.53010  1.0000
  H   H1892     1.0  0.46605  0.00114  0.55033  1.0000
  C   C1127     1.0  0.46257  0.83440  0.57047  1.0000
  H   H1893     1.0  0.26955  0.71340  0.74696  1.0000
  C   C1128     1.0  0.38765  0.81563  0.80763  1.0000
  S   S322      1.0  0.48139  0.72080  0.91114  1.0000
  H   H1894     1.0  0.38854  0.81706  0.78430  1.0000
  H   H1895     1.0  0.39224  0.79903  0.80996  1.0000
  H   H1896     1.0  0.29262  0.77385  0.57230  1.0000
  H   H1897     1.0  0.36557  0.89751  0.89598  1.0000
  H   H1898     1.0  0.35648  0.89874  0.87212  1.0000
  Fe  Fe160     1.0  0.45462  0.74847  0.92587  1.0000
  H   H1899     1.0  0.44686  0.77435  0.81560  1.0000
  H   H1900     1.0  0.38013  0.81782  0.85918  1.0000
  H   H1901     1.0  0.46347  0.92978  0.61667  1.0000
  C   C1129     1.0  0.38042  0.83309  0.80886  1.0000
  H   H1902     1.0  0.29563  0.74934  0.76311  1.0000
  H   H1903     1.0  0.42104  0.93013  0.82105  1.0000
  C   C1130     1.0  0.27638  0.75000  0.55840  1.0000
  H   H1904     1.0  0.41541  0.85486  0.97653  1.0000
  H   H1905     1.0  0.39594  0.80562  0.83710  1.0000
  H   H1906     1.0  0.38205  0.84210  0.81230  1.0000
  C   C1131     1.0  0.37209  0.91658  0.91545  1.0000
  N   N81       1.0  0.44057  0.78867  0.64122  1.0000
  C   C1132     1.0  0.39569  0.80760  0.81443  1.0000
  H   H1907     1.0  0.37346  0.84068  0.77408  1.0000
  H   H1908     1.0  0.38754  0.83809  0.76181  1.0000
  H   H1909     1.0  0.30633  0.77445  0.97878  1.0000
  C   C1133     1.0  0.42353  0.94045  0.77784  1.0000
  C   C1134     1.0  0.45593  0.95335  0.78412  1.0000
  H   H1910     1.0  0.46557  0.70785  0.87975  1.0000
  H   H1911     1.0  0.39543  0.82108  0.85405  1.0000
  H   H1912     1.0  0.28196  0.73987  0.82862  1.0000
  C   C1135     1.0  0.44231  0.76961  0.83829  1.0000
  H   H1913     1.0  0.46049  0.94617  0.78404  1.0000
  Fe  Fe161     1.0  0.46033  0.97250  0.64606  1.0000
  S   S323      1.0  0.43889  0.96712  0.57143  1.0000
  H   H1914     1.0  0.42229  0.95939  0.95017  1.0000
  C   C1136     1.0  0.43849  0.95981  0.96305  1.0000
  C   C1137     1.0  0.38837  0.82476  0.84760  1.0000
  H   H1915     1.0  0.39492  0.84346  0.84725  1.0000
  N   N82       1.0  0.38981  0.82720  0.81577  1.0000
  C   C1138     1.0  0.28971  0.75369  0.77504  1.0000
  H   H1916     1.0  0.40156  0.84468  0.79553  1.0000
  H   H1917     1.0  0.45389  0.95097  0.59725  1.0000
  H   H1918     1.0  0.42533  0.77710  0.80829  1.0000
  H   H1919     1.0  0.39122  0.69829  0.56447  1.0000
  H   H1920     1.0  0.48461  0.94961  0.53901  1.0000
  H   H1921     1.0  0.40463  0.81123  0.79998  1.0000
  S   S324      1.0  0.42512  0.95297  0.72313  1.0000
  C   C1139     1.0  0.42295  0.75767  0.87130  1.0000
  C   C1140     1.0  0.42388  0.77472  0.83192  1.0000
  H   H1922     1.0  0.40968  0.74700  0.83737  1.0000
  S   S325      1.0  0.46100  0.74130  0.88841  1.0000
  H   H1923     1.0  0.27383  0.70791  0.79426  1.0000
  C   C1141     1.0  0.49083  0.68973  0.92317  1.0000
  H   H1924     1.0  0.46764  0.97656  0.53500  1.0000
  H   H1925     1.0  0.46866  0.95720  0.52369  1.0000
  C   C1142     1.0  0.44444  0.72795  0.53404  1.0000
  C   C1143     1.0  0.45843  0.93627  0.62050  1.0000
  C   C1144     1.0  0.40165  0.83524  0.79879  1.0000
  H   H1926     1.0  0.27721  0.74098  0.55813  1.0000
  S   S326      1.0  0.45377  0.76774  0.92028  1.0000
  C   C1145     1.0  0.42389  0.76376  0.89561  1.0000
  H   H1927     1.0  0.45552  0.94375  0.74017  1.0000
  C   C1146     1.0  0.45965  0.97511  0.76783  1.0000
  C   C1147     1.0  0.41228  0.83416  0.81117  1.0000
  H   H1928     1.0  0.42045  0.83948  0.79482  1.0000
  C   C1148     1.0  0.29720  0.78008  0.91741  1.0000
  H   H1929     1.0  0.39696  0.91266  0.88530  1.0000
  C   C1149     1.0  0.41606  0.75245  0.81722  1.0000
  C   C1150     1.0  0.46076  0.95196  0.72393  1.0000
  S   S327      1.0  0.46018  0.73549  0.95709  1.0000
  C   C1151     1.0  0.44298  0.75824  0.48434  1.0000
  H   H1930     1.0  0.42248  0.75693  0.91579  1.0000
  H   H1931     1.0  0.48128  0.93072  0.57833  1.0000
  H   H1932     1.0  0.46318  0.92842  0.57392  1.0000
  H   H1933     1.0  0.44877  0.94565  0.82992  1.0000
  H   H1934     1.0  0.41319  0.82507  0.81676  1.0000
  H   H1935     1.0  0.41201  0.83774  0.83018  1.0000
  C   C1152     1.0  0.48468  0.93970  0.58051  1.0000
  S   S328      1.0  0.43054  0.97888  0.64645  1.0000
  C   C1153     1.0  0.42838  0.75679  0.82163  1.0000
  N   N83       1.0  0.42940  0.76483  0.84134  1.0000
  C   C1154     1.0  0.46217  0.93635  0.55971  1.0000
  H   H1936     1.0  0.49865  0.68681  0.91688  1.0000
  C   C1155     1.0  0.47585  0.96546  0.75543  1.0000
  H   H1937     1.0  0.40535  0.70796  0.51683  1.0000
  H   H1938     1.0  0.26186  0.69503  0.62645  1.0000
  C   C1156     1.0  0.44886  0.76039  0.84809  1.0000
  H   H1939     1.0  0.41341  0.75467  0.87306  1.0000
  H   H1940     1.0  0.36446  0.85293  0.54338  1.0000
  H   H1941     1.0  0.43120  0.74872  0.82930  1.0000
  H   H1942     1.0  0.44907  0.75398  0.83487  1.0000
  C   C1157     1.0  0.47825  0.80804  0.87189  1.0000
  C   C1158     1.0  0.48059  0.94911  0.56177  1.0000
  C   C1159     1.0  0.25696  0.68067  0.60794  1.0000
  H   H1943     1.0  0.48486  0.95754  0.56556  1.0000
  H   H1944     1.0  0.41269  0.75977  0.80731  1.0000
  H   H1945     1.0  0.36496  0.83236  0.58430  1.0000
  H   H1946     1.0  0.30382  0.76093  0.56540  1.0000
  H   H1947     1.0  0.44603  0.78788  0.92988  1.0000
  H   H1948     1.0  0.43439  0.76117  0.80009  1.0000
  H   H1949     1.0  0.46691  0.93623  0.53797  1.0000
  H   H1950     1.0  0.41666  0.74678  0.80210  1.0000
  H   H1951     1.0  0.48055  0.86167  0.53133  1.0000
  H   H1952     1.0  0.36754  0.91771  0.85248  1.0000
  C   C1160     1.0  0.39859  0.69978  0.51871  1.0000
  H   H1953     1.0  0.39540  0.92177  0.82180  1.0000
  C   C1161     1.0  0.38984  0.90831  0.87679  1.0000
  C   C1162     1.0  0.45055  0.83253  0.57273  1.0000
  H   H1954     1.0  0.45002  0.97405  0.77104  1.0000
  C   C1163     1.0  0.43629  0.95842  0.52437  1.0000
  Fe  Fe162     1.0  0.46485  0.72722  0.92056  1.0000
  H   H1955     1.0  0.42545  0.74922  0.87680  1.0000
  S   S329      1.0  0.27216  0.68604  0.67138  1.0000
  H   H1956     1.0  0.29119  0.78507  0.58921  1.0000
  C   C1164     1.0  0.37322  0.68529  0.67597  1.0000
  C   C1165     1.0  0.43597  0.67890  0.90749  1.0000
  H   H1957     1.0  0.29272  0.76483  0.90065  1.0000
  H   H1958     1.0  0.25984  0.68690  0.73481  1.0000
  C   C1166     1.0  0.45282  0.95456  0.81510  1.0000
  H   H1959     1.0  0.44779  0.93969  0.54076  1.0000
  C   C1167     1.0  0.41671  0.67936  0.54814  1.0000
  H   H1960     1.0  0.38816  0.92914  0.89036  1.0000
  H   H1961     1.0  0.37096  0.92260  0.92956  1.0000
  H   H1962     1.0  0.27113  0.75139  0.84299  1.0000
  H   H1963     1.0  0.45812  0.76494  0.84592  1.0000
  C   C1168     1.0  0.29314  0.78890  0.92822  1.0000
  C   C1169     1.0  0.46562  0.95766  0.54605  1.0000
  H   H1964     1.0  0.45347  0.94836  0.94221  1.0000
  C   C1170     1.0  0.36571  0.89944  0.87312  1.0000
  H   H1965     1.0  0.37649  0.91049  0.83287  1.0000
  H   H1966     1.0  0.40366  0.90761  0.84088  1.0000
  H   H1967     1.0  0.46801  0.95459  0.60372  1.0000
  C   C1171     1.0  0.42390  0.72064  0.55906  1.0000
  H   H1968     1.0  0.42322  0.80837  0.62832  1.0000
  H   H1969     1.0  0.38395  0.90143  0.89545  1.0000
  H   H1970     1.0  0.41145  0.67022  0.55159  1.0000
  C   C1172     1.0  0.45538  0.78933  0.51781  1.0000
  H   H1971     1.0  0.45472  0.97938  0.91769  1.0000
  H   H1972     1.0  0.44890  0.93213  0.62489  1.0000
  H   H1973     1.0  0.41489  0.69703  0.54477  1.0000
  C   C1173     1.0  0.44904  0.93422  0.56036  1.0000
  N   N84       1.0  0.29386  0.75613  0.80055  1.0000
  H   H1974     1.0  0.43544  0.89384  0.95660  1.0000
  H   H1975     1.0  0.29048  0.76486  0.83438  1.0000
  H   H1976     1.0  0.39767  0.89417  0.86814  1.0000
  H   H1977     1.0  0.46278  0.70036  0.94556  1.0000
  H   H1978     1.0  0.25383  0.68585  0.59194  1.0000
  C   C1174     1.0  0.39269  0.92598  0.83925  1.0000
  H   H1979     1.0  0.39560  0.94167  0.80493  1.0000
  H   H1980     1.0  0.44378  0.93601  0.57936  1.0000
  H   H1981     1.0  0.44616  0.95967  0.81800  1.0000
  H   H1982     1.0  0.28942  0.77280  0.80134  1.0000
  H   H1983     1.0  0.49650  0.96562  0.67113  1.0000
  H   H1984     1.0  0.48096  0.97268  0.53751  1.0000
  H   H1985     1.0  0.27937  0.75809  0.98147  1.0000
  H   H1986     1.0  0.40079  0.92940  0.84560  1.0000
  C   C1175     1.0  0.43540  0.75722  0.54605  1.0000
  C   C1176     1.0  0.38021  0.92387  0.88621  1.0000
  Fe  Fe163     1.0  0.44060  0.97079  0.61503  1.0000
  Fe  Fe164     1.0  0.43557  0.96693  0.68155  1.0000
  H   H1987     1.0  0.46965  0.97119  0.56959  1.0000
  C   C1177     1.0  0.30693  0.76162  0.79229  1.0000
  H   H1988     1.0  0.42217  0.69738  0.49528  1.0000
  C   C1178     1.0  0.41392  0.69188  0.49306  1.0000
  C   C1179     1.0  0.46591  0.98698  0.74564  1.0000
  N   N85       1.0  0.38376  0.91719  0.86456  1.0000
  C   C1180     1.0  0.38889  0.93680  0.82524  1.0000
  H   H1989     1.0  0.38469  0.70626  0.54059  1.0000
  H   H1990     1.0  0.42339  0.96700  0.81073  1.0000
  H   H1991     1.0  0.44604  0.99125  0.93965  1.0000
  H   H1992     1.0  0.43672  0.74853  0.54380  1.0000
  H   H1993     1.0  0.36827  0.89231  0.86409  1.0000
  H   H1994     1.0  0.30761  0.77786  0.76026  1.0000
  H   H1995     1.0  0.46090  0.79523  0.68132  1.0000
  C   C1181     1.0  0.43179  0.96375  0.94089  1.0000
  H   H1996     1.0  0.40224  0.68565  0.56532  1.0000
  H   H1997     1.0  0.38930  0.89842  0.84366  1.0000
  S   S330      1.0  0.25483  0.71013  0.67045  1.0000
  C   C1182     1.0  0.29788  0.73552  0.81272  1.0000
  H   H1998     1.0  0.45743  0.95203  0.70454  1.0000
  C   C1183     1.0  0.26234  0.71051  0.53505  1.0000
  C   C1184     1.0  0.38564  0.86411  0.50139  1.0000
  H   H1999     1.0  0.30174  0.67990  0.67768  1.0000
  H   H2000     1.0  0.48704  0.82999  0.84252  1.0000
  C   C1185     1.0  0.48156  0.96822  0.77919  1.0000
  H   H2001     1.0  0.37579  0.90981  0.92655  1.0000
  H   H2002     1.0  0.47236  0.87654  0.54622  1.0000
  H   H2003     1.0  0.42640  0.96994  0.75829  1.0000
  H   H2004     1.0  0.45615  0.95708  0.54920  1.0000
  C   C1186     1.0  0.49013  0.80509  0.87177  1.0000
  H   H2005     1.0  0.46491  0.97063  0.71527  1.0000
  C   C1187     1.0  0.48608  0.89681  0.95334  1.0000
  H   H2006     1.0  0.42456  0.77582  0.66712  1.0000
  C   C1188     1.0  0.31834  0.79381  0.84170  1.0000
  C   C1189     1.0  0.46523  0.81668  0.84654  1.0000
  H   H2007     1.0  0.49260  0.91400  0.95991  1.0000
  H   H2008     1.0  0.44544  0.92489  0.56062  1.0000
  H   H2009     1.0  0.47248  0.80689  0.80670  1.0000
  C   C1190     1.0  0.27347  0.77975  0.92489  1.0000
  H   H2010     1.0  0.45158  0.77959  0.66226  1.0000
  H   H2011     1.0  0.31092  0.78655  0.84243  1.0000
  H   H2012     1.0  0.45150  0.68870  0.91566  1.0000
  H   H2013     1.0  0.42870  0.79579  0.66766  1.0000
  C   C1191     1.0  0.43429  0.79810  0.64533  1.0000
  H   H2014     1.0  0.43413  0.98484  0.52423  1.0000
  C   C1192     1.0  0.49106  0.70177  0.91452  1.0000
  H   H2015     1.0  0.44500  0.96407  0.51412  1.0000
  H   H2016     1.0  0.26444  0.78007  0.92690  1.0000
  H   H2017     1.0  0.45602  0.73368  0.55930  1.0000
  S   S331      1.0  0.41771  0.90783  0.96304  1.0000
  H   H2018     1.0  0.30741  0.78637  0.53348  1.0000
  C   C1193     1.0  0.45745  0.79744  0.66225  1.0000
  C   C1194     1.0  0.30692  0.80267  0.54427  1.0000
  C   C1195     1.0  0.43123  0.77735  0.64665  1.0000
  H   H2019     1.0  0.45215  0.95936  0.91409  1.0000
  H   H2020     1.0  0.45799  0.75398  0.56833  1.0000
  C   C1196     1.0  0.44839  0.79119  0.61147  1.0000
  C   C1197     1.0  0.48094  0.70569  0.92254  1.0000
  H   H2021     1.0  0.31056  0.76009  0.81135  1.0000
  C   C1198     1.0  0.43242  0.75649  0.57833  1.0000
  H   H2022     1.0  0.44303  0.78876  0.59668  1.0000
  H   H2023     1.0  0.47292  0.97093  0.90741  1.0000
  H   H2024     1.0  0.42629  0.77788  0.62994  1.0000
  C   C1199     1.0  0.47043  0.78023  0.94246  1.0000
  H   H2025     1.0  0.47122  0.76493  0.54770  1.0000
  C   C1200     1.0  0.44703  0.73009  0.55926  1.0000
  S   S332      1.0  0.45184  0.98056  0.67898  1.0000
  C   C1201     1.0  0.39537  0.90183  0.85587  1.0000
  C   C1202     1.0  0.47061  0.69748  0.93929  1.0000
  H   H2026     1.0  0.41830  0.79313  0.63064  1.0000
  C   C1203     1.0  0.25795  0.73253  0.77847  1.0000
  C   C1204     1.0  0.29144  0.74448  0.82229  1.0000
  C   C1205     1.0  0.44610  0.86269  0.55889  1.0000
  C   C1206     1.0  0.28116  0.78843  0.93242  1.0000
  C   C1207     1.0  0.42630  0.80048  0.62530  1.0000
  C   C1208     1.0  0.39517  0.67804  0.52361  1.0000
  H   H2027     1.0  0.41224  0.67813  0.72846  1.0000
  H   H2028     1.0  0.43097  0.80237  0.60246  1.0000
  H   H2029     1.0  0.48428  0.93764  0.93604  1.0000
  H   H2030     1.0  0.41842  0.99397  0.61530  1.0000
  H   H2031     1.0  0.44001  0.75638  0.58753  1.0000
  H   H2032     1.0  0.29019  0.77405  0.63467  1.0000
  H   H2033     1.0  0.43796  0.76309  0.66777  1.0000
  H   H2034     1.0  0.42813  0.75875  0.64738  1.0000
  H   H2035     1.0  0.44283  0.76695  0.62903  1.0000
  H   H2036     1.0  0.45468  0.80562  0.66302  1.0000
  H   H2037     1.0  0.47795  0.89814  0.52726  1.0000
  H   H2038     1.0  0.29750  0.76372  0.62185  1.0000
  H   H2039     1.0  0.43699  0.78062  0.53507  1.0000
  H   H2040     1.0  0.47591  0.99054  0.65800  1.0000
  H   H2041     1.0  0.41491  0.71699  0.55911  1.0000
  H   H2042     1.0  0.46353  0.98745  0.72504  1.0000
  H   H2043     1.0  0.45670  0.80973  0.61182  1.0000
  C   C1209     1.0  0.45558  0.80406  0.59715  1.0000
  H   H2044     1.0  0.30918  0.78008  0.79458  1.0000
  C   C1210     1.0  0.26024  0.72935  0.80530  1.0000
  H   H2045     1.0  0.43018  0.86071  0.97717  1.0000
  H   H2046     1.0  0.48622  0.99125  0.59861  1.0000
  C   C1211     1.0  0.27435  0.74333  0.50315  1.0000
  S   S333      1.0  0.45002  0.82344  0.97429  1.0000
  N   N86       1.0  0.45167  0.96452  0.95387  1.0000
  H   H2047     1.0  0.48360  0.71734  0.97553  1.0000
  H   H2048     1.0  0.36170  0.85360  0.48871  1.0000
  C   C1212     1.0  0.37487  0.67204  0.75703  1.0000
  S   S334      1.0  0.26821  0.76275  0.89633  1.0000
  C   C1213     1.0  0.43360  0.99844  0.57891  1.0000
  H   H2049     1.0  0.42050  0.98686  0.51839  1.0000
  H   H2050     1.0  0.36283  0.67991  0.78111  1.0000
  H   H2051     1.0  0.30969  0.77804  0.63684  1.0000
  H   H2052     1.0  0.46556  0.82362  0.85849  1.0000
  C   C1214     1.0  0.36293  0.84567  0.53261  1.0000
  H   H2053     1.0  0.46234  0.67925  0.96101  1.0000
  H   H2054     1.0  0.43280  0.87990  0.98220  1.0000
  Fe  Fe165     1.0  0.45692  0.83466  0.49917  1.0000
  C   C1215     1.0  0.31657  0.78572  0.62248  1.0000
  H   H2055     1.0  0.37366  0.67651  0.79893  1.0000
  C   C1216     1.0  0.48973  0.00057  0.58617  1.0000
  H   H2056     1.0  0.36610  0.68423  0.69436  1.0000
  H   H2057     1.0  0.46628  0.96332  0.97272  1.0000
  H   H2058     1.0  0.29237  0.75934  0.50566  1.0000
  H   H2059     1.0  0.46522  0.98085  0.93789  1.0000
  H   H2060     1.0  0.42855  0.76373  0.58299  1.0000
  C   C1217     1.0  0.44408  0.76906  0.49695  1.0000
  H   H2061     1.0  0.28508  0.77588  0.52329  1.0000
  H   H2062     1.0  0.49440  0.94170  0.57349  1.0000
  H   H2063     1.0  0.48964  0.79960  0.89318  1.0000
  H   H2064     1.0  0.44587  0.77751  0.55822  1.0000
  H   H2065     1.0  0.42718  0.75777  0.53947  1.0000
  S   S335      1.0  0.25740  0.70811  0.48456  1.0000
  H   H2066     1.0  0.31480  0.67811  0.65507  1.0000
  H   H2067     1.0  0.25231  0.74349  0.50213  1.0000
  H   H2068     1.0  0.38160  0.84904  0.55400  1.0000
  H   H2069     1.0  0.47455  0.95917  0.93475  1.0000
  H   H2070     1.0  0.26895  0.70585  0.52987  1.0000
  H   H2071     1.0  0.25488  0.69165  0.76561  1.0000
  H   H2072     1.0  0.34951  0.84135  0.50951  1.0000
  C   C1218     1.0  0.40847  0.67760  0.75124  1.0000
  H   H2073     1.0  0.44267  0.85766  0.54460  1.0000
  Fe  Fe166     1.0  0.25927  0.72193  0.88218  1.0000
  H   H2074     1.0  0.30904  0.80727  0.52122  1.0000
  C   C1219     1.0  0.26112  0.72668  0.75748  1.0000
  H   H2075     1.0  0.49250  0.80007  0.85600  1.0000
  C   C1220     1.0  0.26101  0.71436  0.56024  1.0000
  H   H2076     1.0  0.28594  0.68875  0.57096  1.0000
  H   H2077     1.0  0.37168  0.82202  0.56928  1.0000
  H   H2078     1.0  0.37298  0.84436  0.97425  1.0000
  H   H2079     1.0  0.47136  0.95635  0.90309  1.0000
  H   H2080     1.0  0.41411  0.68509  0.75620  1.0000
  H   H2081     1.0  0.44643  0.81120  0.86443  1.0000
  C   C1221     1.0  0.25313  0.75304  0.49808  1.0000
  S   S336      1.0  0.34498  0.79669  0.50096  1.0000
  H   H2082     1.0  0.47007  0.95176  0.71765  1.0000
  H   H2083     1.0  0.45017  0.96356  0.73535  1.0000
  C   C1222     1.0  0.42659  0.98831  0.53216  1.0000
  H   H2084     1.0  0.42000  0.87564  0.95280  1.0000
  H   H2085     1.0  0.42448  0.68152  0.52972  1.0000
  H   H2086     1.0  0.43547  0.75074  0.49723  1.0000
  C   C1223     1.0  0.36947  0.83052  0.48515  1.0000
  H   H2087     1.0  0.37874  0.83059  0.58931  1.0000
  H   H2088     1.0  0.32095  0.79429  0.53670  1.0000
  H   H2089     1.0  0.46422  0.78779  0.51615  1.0000
  C   C1224     1.0  0.45385  0.80701  0.86165  1.0000
  H   H2090     1.0  0.47915  0.83619  0.80203  1.0000
  H   H2091     1.0  0.43436  0.96108  0.92089  1.0000
  H   H2092     1.0  0.44656  0.89060  0.97321  1.0000
  C   C1225     1.0  0.45116  0.87593  0.54430  1.0000
  H   H2093     1.0  0.46308  0.99417  0.75387  1.0000
  H   H2094     1.0  0.29545  0.72747  0.83069  1.0000
  H   H2095     1.0  0.45954  0.76951  0.56555  1.0000
  H   H2096     1.0  0.47854  0.71032  0.85243  1.0000
  H   H2097     1.0  0.47500  0.69016  0.85022  1.0000
  H   H2098     1.0  0.28516  0.75614  0.55331  1.0000
  H   H2099     1.0  0.45261  0.85879  0.56761  1.0000
  H   H2100     1.0  0.43022  0.68323  0.91999  1.0000
  C   C1226     1.0  0.46915  0.69180  0.86870  1.0000
  H   H2101     1.0  0.29514  0.73268  0.79460  1.0000
  C   C1227     1.0  0.49753  0.99093  0.69275  1.0000
  H   H2102     1.0  0.45584  0.99171  0.96216  1.0000
  H   H2103     1.0  0.48942  0.91457  0.89061  1.0000
  H   H2104     1.0  0.30637  0.79618  0.60283  1.0000
  C   C1228     1.0  0.26592  0.76047  0.49107  1.0000
  C   C1229     1.0  0.46958  0.89989  0.52395  1.0000
  H   H2105     1.0  0.44799  0.87410  0.95029  1.0000
  C   C1230     1.0  0.43939  0.88668  0.96434  1.0000
  C   C1231     1.0  0.28760  0.77589  0.50048  1.0000
  C   C1232     1.0  0.49389  0.90948  0.87767  1.0000
  C   C1233     1.0  0.47672  0.80438  0.82426  1.0000
  H   H2106     1.0  0.49588  0.93515  0.86502  1.0000
  H   H2107     1.0  0.46540  0.85637  0.53294  1.0000
  H   H2108     1.0  0.47776  0.78652  0.84387  1.0000
  C   C1234     1.0  0.45755  0.87359  0.49492  1.0000
  H   H2109     1.0  0.43609  0.95000  0.96899  1.0000
  Fe  Fe167     1.0  0.25814  0.74307  0.90752  1.0000
  S   S337      1.0  0.37832  0.67306  0.60455  1.0000
  H   H2110     1.0  0.48595  0.80490  0.81355  1.0000
  H   H2111     1.0  0.43901  0.87438  0.50213  1.0000
  H   H2112     1.0  0.43463  0.95214  0.48681  1.0000
  H   H2113     1.0  0.43214  0.67727  0.88967  1.0000
  C   C1235     1.0  0.45658  0.96130  0.97925  1.0000
  C   C1236     1.0  0.48641  0.82387  0.82836  1.0000
  H   H2114     1.0  0.48398  0.82553  0.78449  1.0000
  C   C1237     1.0  0.46873  0.93408  0.97007  1.0000
  C   C1238     1.0  0.49702  0.88250  0.96452  1.0000
  C   C1239     1.0  0.48579  0.83107  0.79927  1.0000
  H   H2115     1.0  0.49840  0.87381  0.96551  1.0000
  H   H2116     1.0  0.49501  0.82163  0.82418  1.0000
  H   H2117     1.0  0.49434  0.83763  0.78868  1.0000
  S   S338      1.0  0.25615  0.72942  0.72635  1.0000
  H   H2118     1.0  0.49702  0.67149  0.68075  1.0000
  C   C1240     1.0  0.45006  0.00212  0.53714  1.0000
  H   H2119     1.0  0.26112  0.67106  0.96138  1.0000
  H   H2120     1.0  0.48635  0.00246  0.68488  1.0000
  H   H2121     1.0  0.44203  0.98095  0.97370  1.0000
  H   H2122     1.0  0.25343  0.73936  0.77416  1.0000
  C   C1241     1.0  0.37133  0.67911  0.65534  1.0000
  H   H2123     1.0  0.46430  0.76972  0.50813  1.0000
  H   H2124     1.0  0.45420  0.79248  0.49617  1.0000
  H   H2125     1.0  0.44376  0.87959  0.53985  1.0000
  H   H2126     1.0  0.49910  0.70807  0.90149  1.0000
  H   H2127     1.0  0.49725  0.81321  0.86774  1.0000
  N   N87       1.0  0.46106  0.87918  0.51762  1.0000
  C   C1242     1.0  0.45671  0.92868  0.97942  1.0000
  H   H2128     1.0  0.47582  0.86341  0.49917  1.0000
  H   H2129     1.0  0.43566  0.67044  0.92212  1.0000
  H   H2130     1.0  0.45629  0.89545  0.50237  1.0000
  H   H2131     1.0  0.41454  0.99562  0.58223  1.0000
  C   C1243     1.0  0.38775  0.67755  0.50172  1.0000
  H   H2132     1.0  0.28526  0.74567  0.98128  1.0000
  H   H2133     1.0  0.43929  0.00156  0.59232  1.0000
  H   H2134     1.0  0.45525  0.86384  0.50212  1.0000
  C   C1244     1.0  0.42119  0.99928  0.59274  1.0000
  H   H2135     1.0  0.25187  0.67192  0.52523  1.0000
  H   H2136     1.0  0.38512  0.68574  0.49486  1.0000
  H   H2137     1.0  0.36282  0.67335  0.65797  1.0000
  H   H2138     1.0  0.47046  0.89501  0.48416  1.0000
  H   H2139     1.0  0.46814  0.71338  0.98050  1.0000
  H   H2140     1.0  0.45608  0.94438  0.48563  1.0000
  H   H2141     1.0  0.37934  0.67071  0.51194  1.0000
  C   C1245     1.0  0.44708  0.87672  0.48453  1.0000
  C   C1246     1.0  0.49989  0.68958  0.48548  1.0000
  H   H2142     1.0  0.25047  0.68321  0.49901  1.0000
  H   H2143     1.0  0.48372  0.00262  0.57269  1.0000
  H   H2144     1.0  0.39957  0.67078  0.52282  1.0000
  H   H2145     1.0  0.39239  0.67519  0.48274  1.0000
  C   C1247     1.0  0.57755  0.27118  0.01298  1.0000
  H   H2146     1.0  0.59799  0.15544  0.21798  1.0000
  H   H2147     1.0  0.56553  0.32145  0.35374  1.0000
  C   C1248     1.0  0.74566  0.32849  0.19378  1.0000
  C   C1249     1.0  0.57738  0.22444  0.25465  1.0000
  C   C1250     1.0  0.57446  0.19275  0.46423  1.0000
  H   H2148     1.0  0.51771  0.04225  0.09480  1.0000
  H   H2149     1.0  0.61486  0.06562  0.20564  1.0000
  H   H2150     1.0  0.51770  0.15143  0.41655  1.0000
  H   H2151     1.0  0.64221  0.16857  0.03700  1.0000
  Fe  Fe168     1.0  0.59514  0.25525  0.33295  1.0000
  S   S339      1.0  0.57558  0.24873  0.34280  1.0000
  S   S340      1.0  0.60769  0.26076  0.28877  1.0000
  C   C1251     1.0  0.56244  0.12712  0.24970  1.0000
  H   H2152     1.0  0.57146  0.11615  0.32251  1.0000
  H   H2153     1.0  0.58794  0.15769  0.24711  1.0000
  H   H2154     1.0  0.58586  0.13519  0.22474  1.0000
  C   C1252     1.0  0.56586  0.14360  0.27279  1.0000
  H   H2155     1.0  0.55503  0.12196  0.26838  1.0000
  Fe  Fe169     1.0  0.61020  0.28362  0.08552  1.0000
  S   S341      1.0  0.59258  0.27071  0.10012  1.0000
  S   S342      1.0  0.61165  0.30285  0.06827  1.0000
  Fe  Fe170     1.0  0.62258  0.26494  0.10215  1.0000
  S   S343      1.0  0.60604  0.25029  0.11819  1.0000
  S   S344      1.0  0.64045  0.26204  0.10144  1.0000
  Fe  Fe171     1.0  0.60153  0.25899  0.07849  1.0000
  S   S345      1.0  0.59131  0.24869  0.05395  1.0000
  Fe  Fe172     1.0  0.59856  0.26320  0.13837  1.0000
  S   S346      1.0  0.58631  0.25904  0.18240  1.0000
  S   S347      1.0  0.61875  0.27262  0.06066  1.0000
  S   S348      1.0  0.61546  0.27714  0.12544  1.0000
  H   H2156     1.0  0.55060  0.13777  0.23702  1.0000
  S   S349      1.0  0.69048  0.26044  0.42337  1.0000
  S   S350      1.0  0.69927  0.23082  0.41766  1.0000
  H   H2157     1.0  0.57386  0.05596  0.15263  1.0000
  H   H2158     1.0  0.65873  0.32398  0.14684  1.0000
  C   C1253     1.0  0.56094  0.20224  0.37637  1.0000
  C   C1254     1.0  0.63316  0.13534  0.02277  1.0000
  Fe  Fe173     1.0  0.68507  0.28596  0.17221  1.0000
  S   S351      1.0  0.69184  0.26983  0.17492  1.0000
  S   S352      1.0  0.66589  0.28511  0.18374  1.0000
  Fe  Fe174     1.0  0.70921  0.30264  0.15335  1.0000
  S   S353      1.0  0.71817  0.28802  0.15368  1.0000
  C   C1255     1.0  0.64806  0.25370  0.28986  1.0000
  Fe  Fe175     1.0  0.70456  0.28021  0.13298  1.0000
  S   S354      1.0  0.70942  0.27152  0.09725  1.0000
  Fe  Fe176     1.0  0.70470  0.27907  0.19535  1.0000
  S   S355      1.0  0.71033  0.26993  0.23287  1.0000
  S   S356      1.0  0.69680  0.29572  0.12891  1.0000
  S   S357      1.0  0.69673  0.29432  0.19636  1.0000
  Fe  Fe177     1.0  0.53189  0.13404  0.32999  1.0000
  S   S358      1.0  0.53875  0.12247  0.36101  1.0000
  S   S359      1.0  0.52996  0.13060  0.28619  1.0000
  Fe  Fe178     1.0  0.53453  0.15367  0.36386  1.0000
  S   S360      1.0  0.54136  0.14307  0.39654  1.0000
  S   S361      1.0  0.53245  0.17203  0.36660  1.0000
  Fe  Fe179     1.0  0.55201  0.13903  0.35874  1.0000
  S   S362      1.0  0.57134  0.14020  0.35014  1.0000
  Fe  Fe180     1.0  0.52740  0.12763  0.39633  1.0000
  S   S363      1.0  0.51602  0.11412  0.43749  1.0000
  S   S364      1.0  0.54600  0.15045  0.32607  1.0000
  S   S365      1.0  0.51962  0.13835  0.36545  1.0000
  S   S366      1.0  0.51290  0.07814  0.10823  1.0000
  H   H2159     1.0  0.58283  0.09603  0.40418  1.0000
  S   S367      1.0  0.51993  0.10040  0.13748  1.0000
  H   H2160     1.0  0.50125  0.13940  0.41271  1.0000
  H   H2161     1.0  0.59562  0.22782  0.22987  1.0000
  H   H2162     1.0  0.58470  0.25239  0.45612  1.0000
  Fe  Fe181     1.0  0.52555  0.08412  0.13314  1.0000
  S   S368      1.0  0.54492  0.08593  0.12084  1.0000
  S   S369      1.0  0.51405  0.07295  0.17528  1.0000
  Fe  Fe182     1.0  0.59438  0.09387  0.20806  1.0000
  S   S370      1.0  0.59367  0.10330  0.16471  1.0000
  S   S371      1.0  0.58704  0.07375  0.22664  1.0000
  Fe  Fe183     1.0  0.60448  0.11747  0.22390  1.0000
  S   S372      1.0  0.60437  0.12838  0.18072  1.0000
  S   S373      1.0  0.60724  0.12748  0.25898  1.0000
  Fe  Fe184     1.0  0.58690  0.11598  0.18670  1.0000
  S   S374      1.0  0.57114  0.12183  0.17853  1.0000
  Fe  Fe185     1.0  0.61130  0.11500  0.16122  1.0000
  S   S375      1.0  0.62601  0.11899  0.12026  1.0000
  S   S376      1.0  0.58624  0.10590  0.23064  1.0000
  S   S377      1.0  0.61276  0.10469  0.20390  1.0000
  Fe  Fe186     1.0  0.63234  0.15425  0.38552  1.0000
  S   S378      1.0  0.63109  0.17311  0.38019  1.0000
  S   S379      1.0  0.63467  0.14422  0.34987  1.0000
  Fe  Fe187     1.0  0.62805  0.15008  0.45192  1.0000
  S   S380      1.0  0.62590  0.16828  0.45059  1.0000
  H   H2163     1.0  0.53128  0.02804  0.12176  1.0000
  Fe  Fe188     1.0  0.61569  0.16541  0.41835  1.0000
  S   S381      1.0  0.59852  0.16998  0.41926  1.0000
  Fe  Fe189     1.0  0.64179  0.17484  0.41268  1.0000
  S   S382      1.0  0.65338  0.19286  0.41348  1.0000
  S   S383      1.0  0.61640  0.14667  0.42267  1.0000
  S   S384      1.0  0.64446  0.15644  0.41520  1.0000
  C   C1256     1.0  0.61537  0.13243  0.28318  1.0000
  C   C1257     1.0  0.62479  0.12809  0.28925  1.0000
  C   C1258     1.0  0.63058  0.13185  0.30938  1.0000
  C   C1259     1.0  0.62716  0.14007  0.32390  1.0000
  C   C1260     1.0  0.61788  0.14456  0.31749  1.0000
  C   C1261     1.0  0.61202  0.14074  0.29754  1.0000
  H   H2164     1.0  0.62760  0.12175  0.27857  1.0000
  H   H2165     1.0  0.63778  0.12833  0.31375  1.0000
  H   H2166     1.0  0.61529  0.15109  0.32777  1.0000
  H   H2167     1.0  0.60479  0.14425  0.29337  1.0000
  C   C1262     1.0  0.62808  0.12544  0.08297  1.0000
  C   C1263     1.0  0.62068  0.13166  0.07141  1.0000
  C   C1264     1.0  0.62326  0.13669  0.04137  1.0000
  H   H2168     1.0  0.56956  0.26585  0.00927  1.0000
  C   C1265     1.0  0.64038  0.12909  0.03461  1.0000
  C   C1266     1.0  0.63795  0.12431  0.06420  1.0000
  H   H2169     1.0  0.61303  0.13266  0.08556  1.0000
  H   H2170     1.0  0.61756  0.14147  0.03266  1.0000
  H   H2171     1.0  0.65543  0.15329  0.00416  1.0000
  H   H2172     1.0  0.64380  0.11964  0.07260  1.0000
  C   C1267     1.0  0.55218  0.09666  0.13521  1.0000
  C   C1268     1.0  0.54589  0.10057  0.15683  1.0000
  C   C1269     1.0  0.55169  0.10909  0.16832  1.0000
  C   C1270     1.0  0.56390  0.11321  0.15951  1.0000
  C   C1271     1.0  0.57023  0.10940  0.13774  1.0000
  C   C1272     1.0  0.56436  0.10117  0.12551  1.0000
  H   H2173     1.0  0.53661  0.09674  0.16557  1.0000
  H   H2174     1.0  0.54677  0.11202  0.18512  1.0000
  H   H2175     1.0  0.57964  0.11279  0.13031  1.0000
  H   H2176     1.0  0.56929  0.09820  0.10880  1.0000
  C   C1273     1.0  0.56903  0.04309  0.19326  1.0000
  C   C1274     1.0  0.57411  0.05445  0.17479  1.0000
  C   C1275     1.0  0.57952  0.06390  0.18459  1.0000
  C   C1276     1.0  0.58009  0.06215  0.21309  1.0000
  C   C1277     1.0  0.57498  0.05080  0.23161  1.0000
  C   C1278     1.0  0.56943  0.04136  0.22188  1.0000
  H   H2177     1.0  0.58318  0.07255  0.17007  1.0000
  H   H2178     1.0  0.57534  0.04926  0.25371  1.0000
  H   H2179     1.0  0.56563  0.03270  0.23641  1.0000
  H   H2180     1.0  0.52257  0.05677  0.10045  1.0000
  H   H2181     1.0  0.60006  0.10288  0.32174  1.0000
  C   C1279     1.0  0.58242  0.33557  0.28575  1.0000
  C   C1280     1.0  0.66656  0.19454  0.98789  1.0000
  C   C1281     1.0  0.50986  0.12010  0.02255  1.0000
  H   H2182     1.0  0.71728  0.30404  0.36111  1.0000
  Fe  Fe190     1.0  0.50778  0.08911  0.17913  1.0000
  H   H2183     1.0  0.59775  0.31601  0.00737  1.0000
  H   H2184     1.0  0.58037  0.23420  0.25047  1.0000
  H   H2185     1.0  0.74503  0.25777  0.03390  1.0000
  C   C1282     1.0  0.52339  0.11989  0.26937  1.0000
  C   C1283     1.0  0.51602  0.10880  0.28483  1.0000
  H   H2186     1.0  0.64927  0.25320  0.99858  1.0000
  C   C1284     1.0  0.51343  0.10349  0.24038  1.0000
  C   C1285     1.0  0.52097  0.11449  0.22487  1.0000
  C   C1286     1.0  0.52573  0.12263  0.23925  1.0000
  H   H2187     1.0  0.67074  0.27102  0.02953  1.0000
  H   H2188     1.0  0.58032  0.29450  0.45631  1.0000
  H   H2189     1.0  0.52299  0.11682  0.20180  1.0000
  H   H2190     1.0  0.53126  0.13119  0.22684  1.0000
  C   C1287     1.0  0.57899  0.14949  0.36733  1.0000
  C   C1288     1.0  0.57333  0.15574  0.38420  1.0000
  C   C1289     1.0  0.57941  0.16229  0.39960  1.0000
  C   C1290     1.0  0.59120  0.16261  0.39813  1.0000
  C   C1291     1.0  0.59701  0.15682  0.38024  1.0000
  C   C1292     1.0  0.59092  0.15034  0.36480  1.0000
  H   H2191     1.0  0.56427  0.15550  0.38557  1.0000
  H   H2192     1.0  0.57492  0.16691  0.41302  1.0000
  H   H2193     1.0  0.60620  0.15733  0.37819  1.0000
  H   H2194     1.0  0.59543  0.14587  0.35108  1.0000
  N   N88       1.0  0.57139  0.13538  0.25858  1.0000
  C   C1293     1.0  0.71033  0.27502  0.31110  1.0000
  C   C1294     1.0  0.71344  0.27241  0.28466  1.0000
  C   C1295     1.0  0.70695  0.27445  0.26453  1.0000
  C   C1296     1.0  0.69752  0.27944  0.27066  1.0000
  H   H2195     1.0  0.58432  0.28818  0.38678  1.0000
  H   H2196     1.0  0.71543  0.27344  0.32633  1.0000
  H   H2197     1.0  0.72082  0.26866  0.27990  1.0000
  H   H2198     1.0  0.67708  0.16652  0.45060  1.0000
  C   C1297     1.0  0.69643  0.27806  0.01595  1.0000
  C   C1298     1.0  0.70244  0.26941  0.02149  1.0000
  C   C1299     1.0  0.70601  0.26724  0.04696  1.0000
  C   C1300     1.0  0.70364  0.27372  0.06708  1.0000
  C   C1301     1.0  0.69733  0.28215  0.06193  1.0000
  H   H2199     1.0  0.56861  0.16269  0.25703  1.0000
  H   H2200     1.0  0.70437  0.26438  0.00618  1.0000
  H   H2201     1.0  0.71077  0.26060  0.05095  1.0000
  H   H2202     1.0  0.50896  0.12776  0.03027  1.0000
  H   H2203     1.0  0.62946  0.17853  0.01418  1.0000
  C   C1302     1.0  0.68619  0.22035  0.41775  1.0000
  C   C1303     1.0  0.67522  0.22289  0.42035  1.0000
  C   C1304     1.0  0.66534  0.21444  0.41898  1.0000
  C   C1305     1.0  0.66619  0.20330  0.41496  1.0000
  C   C1306     1.0  0.67715  0.20077  0.41245  1.0000
  C   C1307     1.0  0.68700  0.20918  0.41393  1.0000
  H   H2204     1.0  0.67436  0.23139  0.42329  1.0000
  H   H2205     1.0  0.65696  0.21656  0.42106  1.0000
  H   H2206     1.0  0.67810  0.19236  0.40907  1.0000
  H   H2207     1.0  0.69538  0.20706  0.41178  1.0000
  C   C1308     1.0  0.64741  0.26836  0.12463  1.0000
  C   C1309     1.0  0.65959  0.27041  0.11994  1.0000
  C   C1310     1.0  0.66532  0.27553  0.13811  1.0000
  C   C1311     1.0  0.65886  0.27862  0.16098  1.0000
  C   C1312     1.0  0.64668  0.27650  0.16583  1.0000
  C   C1313     1.0  0.64095  0.27128  0.14782  1.0000
  H   H2208     1.0  0.66463  0.26809  0.10218  1.0000
  H   H2209     1.0  0.67472  0.27704  0.13438  1.0000
  H   H2210     1.0  0.64165  0.27872  0.18374  1.0000
  H   H2211     1.0  0.63153  0.26927  0.15231  1.0000
  S   S385      1.0  0.53916  0.00904  0.16480  1.0000
  H   H2212     1.0  0.51387  0.03646  0.19877  1.0000
  C   C1314     1.0  0.60870  0.25234  0.00417  1.0000
  C   C1315     1.0  0.59683  0.24788  0.01868  1.0000
  C   C1316     1.0  0.58894  0.24268  0.00476  1.0000
  C   C1317     1.0  0.58435  0.19497  0.43706  1.0000
  H   H2213     1.0  0.53844  0.03414  0.17327  1.0000
  H   H2214     1.0  0.61484  0.25637  0.01472  1.0000
  H   H2215     1.0  0.57975  0.23918  0.01586  1.0000
  H   H2216     1.0  0.70003  0.32293  0.10293  1.0000
  C   C1318     1.0  0.59242  0.25954  0.21163  1.0000
  C   C1319     1.0  0.58508  0.25871  0.23828  1.0000
  C   C1320     1.0  0.58969  0.25910  0.26203  1.0000
  C   C1321     1.0  0.60169  0.26037  0.25925  1.0000
  C   C1322     1.0  0.60906  0.26135  0.23248  1.0000
  C   C1323     1.0  0.60443  0.26084  0.20877  1.0000
  H   H2217     1.0  0.57579  0.25779  0.24053  1.0000
  H   H2218     1.0  0.58398  0.25861  0.28233  1.0000
  H   H2219     1.0  0.61835  0.26239  0.23002  1.0000
  H   H2220     1.0  0.61014  0.26142  0.18831  1.0000
  S   S386      1.0  0.59690  0.23976  0.36407  1.0000
  C   C1324     1.0  0.56302  0.19109  0.37658  1.0000
  C   C1325     1.0  0.55445  0.18183  0.37343  1.0000
  C   C1326     1.0  0.54361  0.18353  0.37023  1.0000
  C   C1327     1.0  0.54149  0.19466  0.37014  1.0000
  C   C1328     1.0  0.55010  0.20397  0.37310  1.0000
  H   H2221     1.0  0.60903  0.09753  0.10610  1.0000
  H   H2222     1.0  0.55624  0.17335  0.37354  1.0000
  H   H2223     1.0  0.53314  0.19609  0.36775  1.0000
  H   H2224     1.0  0.54832  0.21246  0.37299  1.0000
  C   C1329     1.0  0.63176  0.32460  0.11685  1.0000
  C   C1330     1.0  0.63422  0.31400  0.11341  1.0000
  C   C1331     1.0  0.62846  0.30756  0.09733  1.0000
  C   C1332     1.0  0.61998  0.31154  0.08535  1.0000
  C   C1333     1.0  0.61781  0.32233  0.08800  1.0000
  C   C1334     1.0  0.62378  0.32891  0.10346  1.0000
  H   H2225     1.0  0.64035  0.31061  0.12377  1.0000
  H   H2226     1.0  0.63050  0.29946  0.09452  1.0000
  H   H2227     1.0  0.61126  0.32549  0.07885  1.0000
  H   H2228     1.0  0.50518  0.09235  0.28290  1.0000
  H   H2229     1.0  0.56106  0.10950  0.98551  1.0000
  H   H2230     1.0  0.66323  0.18013  0.45527  1.0000
  H   H2231     1.0  0.68007  0.24078  0.99285  1.0000
  H   H2232     1.0  0.63022  0.09770  0.10048  1.0000
  H   H2233     1.0  0.56200  0.11169  0.30114  1.0000
  S   S387      1.0  0.69652  0.28293  0.35074  1.0000
  H   H2234     1.0  0.63030  0.28424  0.29776  1.0000
  H   H2235     1.0  0.64990  0.18853  0.47721  1.0000
  H   H2236     1.0  0.55751  0.20782  0.28628  1.0000
  H   H2237     1.0  0.56221  0.20360  0.31774  1.0000
  H   H2238     1.0  0.72036  0.32819  0.31973  1.0000
  H   H2239     1.0  0.67154  0.24512  0.08651  1.0000
  C   C1335     1.0  0.50830  0.10926  0.04233  1.0000
  H   H2240     1.0  0.59050  0.31593  0.30721  1.0000
  H   H2241     1.0  0.66453  0.15553  0.44891  1.0000
  H   H2242     1.0  0.65937  0.31412  0.09192  1.0000
  H   H2243     1.0  0.64745  0.15239  0.05414  1.0000
  H   H2244     1.0  0.60986  0.10858  0.35504  1.0000
  H   H2245     1.0  0.54581  0.06078  0.16840  1.0000
  H   H2246     1.0  0.58210  0.26440  0.02017  1.0000
  H   H2247     1.0  0.51402  0.10647  0.30791  1.0000
  C   C1336     1.0  0.57886  0.12044  0.40790  1.0000
  C   C1337     1.0  0.60355  0.28216  0.00426  1.0000
  H   H2248     1.0  0.63254  0.30350  0.99030  1.0000
  H   H2249     1.0  0.64823  0.23955  0.02193  1.0000
  C   C1338     1.0  0.64404  0.17051  0.01336  1.0000
  C   C1339     1.0  0.67084  0.24104  0.00087  1.0000
  H   H2250     1.0  0.56949  0.22279  0.24614  1.0000
  H   H2251     1.0  0.52646  0.00605  0.06604  1.0000
  C   C1340     1.0  0.59255  0.33405  0.26330  1.0000
  H   H2252     1.0  0.65454  0.24947  0.07345  1.0000
  H   H2253     1.0  0.66967  0.16938  0.42317  1.0000
  H   H2254     1.0  0.59543  0.18191  0.46941  1.0000
  H   H2255     1.0  0.60527  0.12082  0.34060  1.0000
  C   C1341     1.0  0.57943  0.30163  0.46711  1.0000
  C   C1342     1.0  0.54312  0.11579  0.03800  1.0000
  H   H2256     1.0  0.60940  0.20813  0.45468  1.0000
  H   H2257     1.0  0.67635  0.25934  0.06210  1.0000
  C   C1343     1.0  0.51107  0.16605  0.44428  1.0000
  H   H2258     1.0  0.59267  0.29410  0.00322  1.0000
  C   C1344     1.0  0.73870  0.30313  0.31906  1.0000
  H   H2259     1.0  0.60351  0.31272  0.46560  1.0000
  C   C1345     1.0  0.57311  0.27599  0.03860  1.0000
  S   S388      1.0  0.50447  0.10832  0.07969  1.0000
  C   C1346     1.0  0.51264  0.12818  0.13701  1.0000
  H   H2260     1.0  0.52682  0.04809  0.19453  1.0000
  H   H2261     1.0  0.68801  0.32996  0.14497  1.0000
  H   H2262     1.0  0.51271  0.13737  0.13768  1.0000
  C   C1347     1.0  0.71452  0.31203  0.35267  1.0000
  H   H2263     1.0  0.51854  0.17035  0.42512  1.0000
  H   H2264     1.0  0.73794  0.30421  0.04984  1.0000
  H   H2265     1.0  0.51957  0.00450  0.02372  1.0000
  H   H2266     1.0  0.63792  0.25909  0.04102  1.0000
  H   H2267     1.0  0.70024  0.32816  0.06636  1.0000
  H   H2268     1.0  0.56517  0.12039  0.00280  1.0000
  H   H2269     1.0  0.73649  0.31910  0.25741  1.0000
  C   C1348     1.0  0.58539  0.31971  0.32269  1.0000
  C   C1349     1.0  0.74660  0.31545  0.09986  1.0000
  H   H2270     1.0  0.59221  0.32698  0.98836  1.0000
  H   H2271     1.0  0.54730  0.28382  0.39755  1.0000
  C   C1350     1.0  0.53620  0.03737  0.11836  1.0000
  S   S389      1.0  0.53598  0.00448  0.23392  1.0000
  H   H2272     1.0  0.55197  0.03285  0.09915  1.0000
  C   C1351     1.0  0.59151  0.10073  0.40608  1.0000
  N   N89       1.0  0.60302  0.29860  0.19191  1.0000
  C   C1352     1.0  0.61256  0.29397  0.17666  1.0000
  C   C1353     1.0  0.59223  0.29443  0.18196  1.0000
  C   C1354     1.0  0.60072  0.29309  0.22345  1.0000
  C   C1355     1.0  0.60722  0.31186  0.18506  1.0000
  C   C1356     1.0  0.62425  0.29617  0.18535  1.0000
  C   C1357     1.0  0.59362  0.29843  0.14944  1.0000
  C   C1358     1.0  0.59074  0.29589  0.24359  1.0000
  C   C1359     1.0  0.59775  0.31881  0.18846  1.0000
  H   H2273     1.0  0.60943  0.28430  0.17951  1.0000
  H   H2274     1.0  0.61486  0.29795  0.15328  1.0000
  H   H2275     1.0  0.58463  0.29722  0.19238  1.0000
  H   H2276     1.0  0.58930  0.28461  0.18826  1.0000
  H   H2277     1.0  0.59878  0.28332  0.22764  1.0000
  H   H2278     1.0  0.60863  0.29584  0.23120  1.0000
  H   H2279     1.0  0.61336  0.31453  0.19801  1.0000
  H   H2280     1.0  0.61243  0.31539  0.16245  1.0000
  H   H2281     1.0  0.62344  0.29047  0.20674  1.0000
  H   H2282     1.0  0.63086  0.29377  0.16995  1.0000
  H   H2283     1.0  0.62778  0.30556  0.18447  1.0000
  H   H2284     1.0  0.59792  0.30796  0.14038  1.0000
  H   H2285     1.0  0.59861  0.29328  0.13779  1.0000
  H   H2286     1.0  0.58483  0.29673  0.14510  1.0000
  H   H2287     1.0  0.59296  0.30528  0.24402  1.0000
  H   H2288     1.0  0.58967  0.29064  0.26571  1.0000
  H   H2289     1.0  0.58217  0.29334  0.23865  1.0000
  H   H2290     1.0  0.60096  0.32643  0.19688  1.0000
  H   H2291     1.0  0.58915  0.31383  0.20303  1.0000
  H   H2292     1.0  0.70555  0.30939  0.34980  1.0000
  H   H2293     1.0  0.63852  0.16282  0.00872  1.0000
  H   H2294     1.0  0.51834  0.00434  0.14428  1.0000
  H   H2295     1.0  0.69539  0.28714  0.07732  1.0000
  S   S390      1.0  0.56267  0.03150  0.17897  1.0000
  H   H2296     1.0  0.59834  0.05048  0.14430  1.0000
  H   H2297     1.0  0.63239  0.07198  0.11706  1.0000
  H   H2298     1.0  0.58230  0.13369  0.28841  1.0000
  H   H2299     1.0  0.50158  0.11890  0.19304  1.0000
  H   H2300     1.0  0.68358  0.23145  0.28117  1.0000
  C   C1360     1.0  0.56861  0.22669  0.30190  1.0000
  C   C1361     1.0  0.66081  0.24747  0.05640  1.0000
  C   C1362     1.0  0.63508  0.09080  0.10240  1.0000
  H   H2301     1.0  0.57051  0.30285  0.46748  1.0000
  H   H2302     1.0  0.70360  0.23559  0.28641  1.0000
  C   C1363     1.0  0.61089  0.08524  0.14338  1.0000
  H   H2303     1.0  0.56645  0.12062  0.24090  1.0000
  H   H2304     1.0  0.56068  0.12387  0.31703  1.0000
  N   N90       1.0  0.61831  0.07652  0.14378  1.0000
  H   H2305     1.0  0.66128  0.28248  0.45222  1.0000
  H   H2306     1.0  0.67855  0.31641  0.19371  1.0000
  H   H2307     1.0  0.59709  0.06482  0.13019  1.0000
  C   C1364     1.0  0.66964  0.30984  0.12338  1.0000
  H   H2308     1.0  0.61684  0.32698  0.02784  1.0000
  H   H2309     1.0  0.57104  0.19905  0.25909  1.0000
  C   C1365     1.0  0.51024  0.00434  0.10909  1.0000
  C   C1366     1.0  0.59135  0.15088  0.23854  1.0000
  H   H2310     1.0  0.59602  0.08629  0.12474  1.0000
  H   H2311     1.0  0.55245  0.32689  0.32170  1.0000
  H   H2312     1.0  0.74004  0.30974  0.21265  1.0000
  H   H2313     1.0  0.60666  0.13012  0.37898  1.0000
  C   C1367     1.0  0.60096  0.20141  0.45856  1.0000
  N   N91       1.0  0.54622  0.07862  0.24253  1.0000
  C   C1368     1.0  0.54835  0.07562  0.21401  1.0000
  C   C1369     1.0  0.53464  0.07053  0.26078  1.0000
  C   C1370     1.0  0.55608  0.07639  0.25575  1.0000
  C   C1371     1.0  0.54612  0.09143  0.23714  1.0000
  C   C1372     1.0  0.56062  0.08152  0.19357  1.0000
  C   C1373     1.0  0.52379  0.07200  0.24985  1.0000
  C   C1374     1.0  0.55373  0.07412  0.28848  1.0000
  C   C1375     1.0  0.54276  0.09624  0.26339  1.0000
  H   H2314     1.0  0.54706  0.06592  0.21704  1.0000
  H   H2315     1.0  0.54200  0.07812  0.20196  1.0000
  H   H2316     1.0  0.53273  0.07156  0.28287  1.0000
  H   H2317     1.0  0.53492  0.06115  0.26328  1.0000
  H   H2318     1.0  0.55873  0.06848  0.25087  1.0000
  H   H2319     1.0  0.56408  0.08386  0.24625  1.0000
  H   H2320     1.0  0.55494  0.09718  0.22487  1.0000
  H   H2321     1.0  0.54038  0.09358  0.22291  1.0000
  H   H2322     1.0  0.56111  0.07881  0.17328  1.0000
  H   H2323     1.0  0.56255  0.09119  0.18818  1.0000
  H   H2324     1.0  0.56764  0.07893  0.20251  1.0000
  H   H2325     1.0  0.52267  0.08105  0.24782  1.0000
  H   H2326     1.0  0.52400  0.06961  0.22931  1.0000
  H   H2327     1.0  0.51579  0.06598  0.26555  1.0000
  H   H2328     1.0  0.55032  0.08095  0.29680  1.0000
  H   H2329     1.0  0.56212  0.07404  0.29445  1.0000
  H   H2330     1.0  0.54764  0.06531  0.29940  1.0000
  H   H2331     1.0  0.55054  0.09923  0.27129  1.0000
  H   H2332     1.0  0.53565  0.09001  0.28101  1.0000
  H   H2333     1.0  0.53916  0.10392  0.25708  1.0000
  C   C1376     1.0  0.63805  0.24988  0.04112  1.0000
  H   H2334     1.0  0.59544  0.20214  0.47862  1.0000
  H   H2335     1.0  0.65122  0.16803  0.45944  1.0000
  H   H2336     1.0  0.58506  0.22068  0.21482  1.0000
  H   H2337     1.0  0.65576  0.25155  0.27736  1.0000
  H   H2338     1.0  0.69246  0.28099  0.25529  1.0000
  H   H2339     1.0  0.50789  0.01458  0.05796  1.0000
  H   H2340     1.0  0.55437  0.15426  0.25872  1.0000
  H   H2341     1.0  0.64803  0.12796  0.02073  1.0000
  C   C1377     1.0  0.52975  0.03488  0.17022  1.0000
  H   H2342     1.0  0.71873  0.31798  0.24414  1.0000
  H   H2343     1.0  0.56642  0.15515  0.23008  1.0000
  H   H2344     1.0  0.56634  0.29950  0.33443  1.0000
  C   C1378     1.0  0.69447  0.32292  0.08760  1.0000
  H   H2345     1.0  0.57116  0.14704  0.28675  1.0000
  S   S391      1.0  0.63796  0.33181  0.13980  1.0000
  C   C1379     1.0  0.56384  0.15444  0.25319  1.0000
  H   H2346     1.0  0.64118  0.25236  0.33557  1.0000
  C   C1380     1.0  0.64928  0.24908  0.02088  1.0000
  H   H2347     1.0  0.72378  0.29801  0.04624  1.0000
  C   C1381     1.0  0.69370  0.28427  0.03649  1.0000
  C   C1382     1.0  0.55645  0.13276  0.22779  1.0000
  H   H2348     1.0  0.55080  0.12559  0.22191  1.0000
  H   H2349     1.0  0.65105  0.27255  0.99868  1.0000
  C   C1383     1.0  0.63582  0.28154  0.28067  1.0000
  C   C1384     1.0  0.66456  0.18196  0.00702  1.0000
  H   H2350     1.0  0.55718  0.13864  0.28758  1.0000
  H   H2351     1.0  0.56265  0.13834  0.20758  1.0000
  H   H2352     1.0  0.51380  0.04635  0.15466  1.0000
  H   H2353     1.0  0.57900  0.14623  0.21469  1.0000
  H   H2354     1.0  0.57886  0.11127  0.37522  1.0000
  Fe  Fe191     1.0  0.57718  0.23356  0.37589  1.0000
  S   S392      1.0  0.59521  0.26643  0.36426  1.0000
  C   C1385     1.0  0.67274  0.24987  0.06391  1.0000
  H   H2355     1.0  0.66024  0.16338  0.05467  1.0000
  S   S393      1.0  0.56764  0.32084  0.41104  1.0000
  C   C1386     1.0  0.54242  0.14056  0.98667  1.0000
  H   H2356     1.0  0.65694  0.28168  0.24393  1.0000
  C   C1387     1.0  0.56754  0.30688  0.40391  1.0000
  C   C1388     1.0  0.58165  0.14168  0.23312  1.0000
  H   H2357     1.0  0.59606  0.14674  0.25305  1.0000
  H   H2358     1.0  0.68892  0.29088  0.03251  1.0000
  H   H2359     1.0  0.58827  0.12566  0.36337  1.0000
  C   C1389     1.0  0.73509  0.33592  0.16019  1.0000
  H   H2360     1.0  0.57448  0.23574  0.29583  1.0000
  H   H2361     1.0  0.55094  0.03323  0.13515  1.0000
  H   H2362     1.0  0.68115  0.24451  0.29135  1.0000
  C   C1390     1.0  0.71328  0.31248  0.29133  1.0000
  H   H2363     1.0  0.57135  0.18959  0.37903  1.0000
  N   N92       1.0  0.66064  0.25425  0.02726  1.0000
  C   C1391     1.0  0.70072  0.27971  0.31758  1.0000
  C   C1392     1.0  0.57607  0.12799  0.27998  1.0000
  S   S394      1.0  0.57232  0.21361  0.37967  1.0000
  H   H2364     1.0  0.58599  0.30787  0.39781  1.0000
  H   H2365     1.0  0.65190  0.24441  0.32806  1.0000
  Fe  Fe192     1.0  0.57574  0.25898  0.37656  1.0000
  Fe  Fe193     1.0  0.70420  0.25038  0.41960  1.0000
  N   N93       1.0  0.53055  0.04254  0.14124  1.0000
  C   C1393     1.0  0.56688  0.11948  0.30649  1.0000
  H   H2366     1.0  0.60203  0.22675  0.29894  1.0000
  C   C1394     1.0  0.64955  0.25278  0.32045  1.0000
  Fe  Fe194     1.0  0.69998  0.26919  0.45131  1.0000
  H   H2367     1.0  0.66362  0.27010  0.24480  1.0000
  H   H2368     1.0  0.73518  0.30604  0.01516  1.0000
  C   C1395     1.0  0.60193  0.11185  0.35519  1.0000
  C   C1396     1.0  0.56903  0.31583  0.30068  1.0000
  C   C1397     1.0  0.66191  0.26700  0.02749  1.0000
  C   C1398     1.0  0.60416  0.12121  0.39419  1.0000
  H   H2369     1.0  0.63080  0.08753  0.15972  1.0000
  H   H2370     1.0  0.65578  0.26785  0.04658  1.0000
  C   C1399     1.0  0.58722  0.22091  0.23552  1.0000
  H   H2371     1.0  0.58120  0.12256  0.26965  1.0000
  C   C1400     1.0  0.60569  0.08799  0.11731  1.0000
  H   H2372     1.0  0.60740  0.08297  0.10131  1.0000
  H   H2373     1.0  0.72271  0.23498  0.33569  1.0000
  H   H2374     1.0  0.55444  0.23538  0.30597  1.0000
  C   C1401     1.0  0.55579  0.28896  0.39762  1.0000
  H   H2375     1.0  0.65763  0.23781  0.05954  1.0000
  H   H2376     1.0  0.59951  0.33038  0.01466  1.0000
  C   C1402     1.0  0.60230  0.25300  0.45965  1.0000
  H   H2377     1.0  0.68028  0.22250  0.36290  1.0000
  H   H2378     1.0  0.61600  0.09386  0.14481  1.0000
  H   H2379     1.0  0.61055  0.18824  0.44881  1.0000
  H   H2380     1.0  0.64014  0.09140  0.08047  1.0000
  H   H2381     1.0  0.64033  0.24627  0.29232  1.0000
  H   H2382     1.0  0.55482  0.30702  0.34038  1.0000
  C   C1403     1.0  0.73419  0.28363  0.98961  1.0000
  H   H2383     1.0  0.70914  0.31992  0.29204  1.0000
  H   H2384     1.0  0.67927  0.25778  0.00703  1.0000
  C   C1404     1.0  0.54922  0.03767  0.11520  1.0000
  H   H2385     1.0  0.62236  0.07628  0.09881  1.0000
  H   H2386     1.0  0.65656  0.26000  0.32188  1.0000
  H   H2387     1.0  0.66859  0.27137  0.46172  1.0000
  C   C1405     1.0  0.50202  0.00555  0.06796  1.0000
  C   C1406     1.0  0.69779  0.24032  0.29740  1.0000
  H   H2388     1.0  0.71853  0.24582  0.31191  1.0000
  C   C1407     1.0  0.65988  0.16064  0.01182  1.0000
  C   C1408     1.0  0.62681  0.07831  0.11531  1.0000
  H   H2389     1.0  0.55588  0.29902  0.31384  1.0000
  H   H2390     1.0  0.55182  0.05016  0.15337  1.0000
  H   H2391     1.0  0.53524  0.17249  0.44043  1.0000
  H   H2392     1.0  0.72100  0.29340  0.00018  1.0000
  H   H2393     1.0  0.74690  0.30834  0.30287  1.0000
  H   H2394     1.0  0.60913  0.05948  0.11320  1.0000
  H   H2395     1.0  0.64159  0.09284  0.11478  1.0000
  C   C1409     1.0  0.60356  0.05971  0.13375  1.0000
  C   C1410     1.0  0.62147  0.31572  0.98928  1.0000
  H   H2396     1.0  0.58994  0.10192  0.42817  1.0000
  H   H2397     1.0  0.66583  0.23873  0.98539  1.0000
  C   C1411     1.0  0.64553  0.25569  0.23149  1.0000
  H   H2398     1.0  0.71516  0.24455  0.35011  1.0000
  H   H2399     1.0  0.64031  0.25474  0.21562  1.0000
  H   H2400     1.0  0.67547  0.20809  0.33300  1.0000
  H   H2401     1.0  0.58090  0.31199  0.34111  1.0000
  H   H2402     1.0  0.60347  0.08232  0.16290  1.0000
  C   C1412     1.0  0.58936  0.22035  0.45651  1.0000
  S   S395      1.0  0.56349  0.27088  0.38211  1.0000
  C   C1413     1.0  0.71572  0.23960  0.33343  1.0000
  H   H2403     1.0  0.67581  0.22781  0.33222  1.0000
  H   H2404     1.0  0.68472  0.25616  0.31893  1.0000
  H   H2405     1.0  0.69178  0.24569  0.25942  1.0000
  H   H2406     1.0  0.50038  0.17586  0.42429  1.0000
  H   H2407     1.0  0.56877  0.18369  0.46876  1.0000
  H   H2408     1.0  0.72333  0.33550  0.26750  1.0000
  H   H2409     1.0  0.61618  0.05773  0.15815  1.0000
  H   H2410     1.0  0.59055  0.32682  0.35713  1.0000
  H   H2411     1.0  0.59869  0.08692  0.42616  1.0000
  C   C1414     1.0  0.68437  0.21387  0.32969  1.0000
  C   C1415     1.0  0.61073  0.06402  0.15377  1.0000
  C   C1416     1.0  0.56566  0.28460  0.39137  1.0000
  C   C1417     1.0  0.68326  0.22514  0.33920  1.0000
  H   H2412     1.0  0.51487  0.01383  0.09944  1.0000
  C   C1418     1.0  0.68249  0.25026  0.34071  1.0000
  H   H2413     1.0  0.68907  0.21580  0.30686  1.0000
  C   C1419     1.0  0.71389  0.31002  0.26169  1.0000
  N   N94       1.0  0.64636  0.26517  0.27404  1.0000
  H   H2414     1.0  0.63086  0.25748  0.26171  1.0000
  Fe  Fe195     1.0  0.70335  0.27449  0.38699  1.0000
  C   C1420     1.0  0.68789  0.24044  0.28194  1.0000
  Fe  Fe196     1.0  0.55088  0.01235  0.19404  1.0000
  H   H2415     1.0  0.68893  0.20875  0.34302  1.0000
  H   H2416     1.0  0.67387  0.24383  0.34567  1.0000
  H   H2417     1.0  0.68159  0.25602  0.35558  1.0000
  H   H2418     1.0  0.57054  0.12227  0.40423  1.0000
  H   H2419     1.0  0.60415  0.06269  0.17433  1.0000
  C   C1421     1.0  0.62558  0.07821  0.16490  1.0000
  C   C1422     1.0  0.64013  0.26261  0.25153  1.0000
  H   H2420     1.0  0.67560  0.30397  0.12578  1.0000
  H   H2421     1.0  0.63000  0.26327  0.30449  1.0000
  H   H2422     1.0  0.72482  0.30619  0.18635  1.0000
  C   C1423     1.0  0.69445  0.28211  0.29710  1.0000
  H   H2423     1.0  0.67099  0.27243  0.28383  1.0000
  H   H2424     1.0  0.66057  0.28023  0.29719  1.0000
  H   H2425     1.0  0.66942  0.16146  0.00397  1.0000
  C   C1424     1.0  0.65798  0.27394  0.25902  1.0000
  C   C1425     1.0  0.59928  0.09197  0.40419  1.0000
  N   N95       1.0  0.69424  0.23515  0.32941  1.0000
  C   C1426     1.0  0.69244  0.24443  0.34515  1.0000
  H   H2426     1.0  0.69083  0.24071  0.36857  1.0000
  H   H2427     1.0  0.57459  0.31248  0.28506  1.0000
  H   H2428     1.0  0.52500  0.03350  0.21581  1.0000
  C   C1427     1.0  0.68147  0.32154  0.14753  1.0000
  H   H2429     1.0  0.63209  0.07281  0.16381  1.0000
  H   H2430     1.0  0.62491  0.07802  0.20930  1.0000
  H   H2431     1.0  0.67160  0.28727  0.26558  1.0000
  H   H2432     1.0  0.60871  0.09597  0.39398  1.0000
  H   H2433     1.0  0.64389  0.28882  0.27092  1.0000
  H   H2434     1.0  0.50749  0.04882  0.11248  1.0000
  H   H2435     1.0  0.61899  0.25418  0.46968  1.0000
  C   C1428     1.0  0.51240  0.12109  0.99282  1.0000
  C   C1429     1.0  0.61876  0.07523  0.19656  1.0000
  C   C1430     1.0  0.66561  0.27855  0.27783  1.0000
  C   C1431     1.0  0.57661  0.29144  0.39162  1.0000
  H   H2436     1.0  0.57947  0.28361  0.04067  1.0000
  N   N96       1.0  0.65684  0.17195  0.99989  1.0000
  H   H2437     1.0  0.70128  0.22550  0.36104  1.0000
  Fe  Fe197     1.0  0.59498  0.25019  0.39667  1.0000
  H   H2438     1.0  0.66629  0.30995  0.18189  1.0000
  C   C1432     1.0  0.70403  0.23039  0.33806  1.0000
  H   H2439     1.0  0.70045  0.25182  0.33909  1.0000
  H   H2440     1.0  0.68712  0.28591  0.30186  1.0000
  H   H2441     1.0  0.70621  0.22390  0.32607  1.0000
  H   H2442     1.0  0.70322  0.24952  0.29193  1.0000
  C   C1433     1.0  0.63854  0.26995  0.29413  1.0000
  N   N97       1.0  0.57422  0.21881  0.28640  1.0000
  S   S396      1.0  0.71304  0.25824  0.45043  1.0000
  H   H2443     1.0  0.61185  0.07999  0.19972  1.0000
  C   C1434     1.0  0.57756  0.30260  0.39782  1.0000
  H   H2444     1.0  0.64220  0.27158  0.31217  1.0000
  H   H2445     1.0  0.54891  0.30304  0.40875  1.0000
  H   H2446     1.0  0.67348  0.18053  0.00567  1.0000
  S   S397      1.0  0.71126  0.28444  0.41524  1.0000
  C   C1435     1.0  0.58473  0.21736  0.29758  1.0000
  N   N98       1.0  0.57653  0.32498  0.31082  1.0000
  H   H2447     1.0  0.60044  0.33398  0.27157  1.0000
  C   C1436     1.0  0.72783  0.30304  0.30711  1.0000
  C   C1437     1.0  0.63911  0.18120  0.00483  1.0000
  H   H2448     1.0  0.58597  0.18636  0.43489  1.0000
  H   H2449     1.0  0.66011  0.29916  0.10076  1.0000
  H   H2450     1.0  0.66821  0.28268  0.48074  1.0000
  C   C1438     1.0  0.54159  0.11494  0.00820  1.0000
  C   C1439     1.0  0.53695  0.05526  0.13683  1.0000
  C   C1440     1.0  0.55676  0.22822  0.29665  1.0000
  S   S398      1.0  0.57540  0.24311  0.41090  1.0000
  C   C1441     1.0  0.60339  0.18915  0.46561  1.0000
  C   C1442     1.0  0.59429  0.10437  0.34056  1.0000
  H   H2451     1.0  0.72731  0.27538  0.00099  1.0000
  H   H2452     1.0  0.73794  0.30620  0.33884  1.0000
  H   H2453     1.0  0.69129  0.31383  0.08585  1.0000
  C   C1443     1.0  0.60434  0.20384  0.40731  1.0000
  H   H2454     1.0  0.66691  0.20089  0.00137  1.0000
  H   H2455     1.0  0.62100  0.12542  0.40406  1.0000
  H   H2456     1.0  0.54957  0.22015  0.30768  1.0000
  C   C1444     1.0  0.56116  0.30483  0.32397  1.0000
  H   H2457     1.0  0.67259  0.31014  0.07762  1.0000
  H   H2458     1.0  0.58941  0.21162  0.28760  1.0000
  H   H2459     1.0  0.63951  0.33053  0.01528  1.0000
  H   H2460     1.0  0.56720  0.22346  0.32543  1.0000
  H   H2461     1.0  0.67926  0.24657  0.05061  1.0000
  H   H2462     1.0  0.70486  0.30751  0.25905  1.0000
  H   H2463     1.0  0.74473  0.32297  0.08601  1.0000
  H   H2464     1.0  0.54236  0.16144  0.45215  1.0000
  C   C1445     1.0  0.73263  0.33540  0.26468  1.0000
  N   N99       1.0  0.51200  0.15404  0.45875  1.0000
  H   H2465     1.0  0.61385  0.11019  0.41614  1.0000
  H   H2466     1.0  0.61234  0.19725  0.98679  1.0000
  H   H2467     1.0  0.53565  0.13601  0.00695  1.0000
  C   C1446     1.0  0.55671  0.29991  0.40398  1.0000
  H   H2468     1.0  0.58158  0.21401  0.47191  1.0000
  C   C1447     1.0  0.51102  0.10076  0.27048  1.0000
  H   H2469     1.0  0.59585  0.08530  0.39332  1.0000
  C   C1448     1.0  0.58554  0.11751  0.38122  1.0000
  N   N100      1.0  0.59558  0.20404  0.43373  1.0000
  H   H2470     1.0  0.63973  0.27091  0.23726  1.0000
  H   H2471     1.0  0.72938  0.29945  0.28806  1.0000
  C   C1449     1.0  0.62263  0.33351  0.00812  1.0000
  S   S399      1.0  0.71696  0.26434  0.38197  1.0000
  H   H2472     1.0  0.60836  0.20727  0.36104  1.0000
  H   H2473     1.0  0.56225  0.18890  0.29152  1.0000
  H   H2474     1.0  0.52492  0.14707  0.47681  1.0000
  H   H2475     1.0  0.56325  0.31975  0.28883  1.0000
  H   H2476     1.0  0.63683  0.24475  0.06335  1.0000
  H   H2477     1.0  0.59881  0.27574  0.02501  1.0000
  H   H2478     1.0  0.54058  0.10553  0.00809  1.0000
  H   H2479     1.0  0.60265  0.32588  0.33002  1.0000
  H   H2480     1.0  0.57652  0.11307  0.42735  1.0000
  H   H2481     1.0  0.58389  0.12859  0.41163  1.0000
  H   H2482     1.0  0.58686  0.22872  0.45018  1.0000
  H   H2483     1.0  0.60188  0.22309  0.41709  1.0000
  C   C1450     1.0  0.73978  0.26408  0.02825  1.0000
  H   H2484     1.0  0.63065  0.28044  0.26482  1.0000
  H   H2485     1.0  0.58188  0.21274  0.32079  1.0000
  C   C1451     1.0  0.56540  0.20701  0.29411  1.0000
  H   H2486     1.0  0.58039  0.19754  0.41910  1.0000
  H   H2487     1.0  0.54369  0.12477  0.04104  1.0000
  S   S400      1.0  0.60726  0.25038  0.42588  1.0000
  H   H2488     1.0  0.71786  0.30262  0.25915  1.0000
  C   C1452     1.0  0.73002  0.31506  0.18323  1.0000
  H   H2489     1.0  0.66147  0.28421  0.00403  1.0000
  H   H2490     1.0  0.61298  0.21005  0.40471  1.0000
  H   H2491     1.0  0.73954  0.29394  0.32493  1.0000
  C   C1453     1.0  0.61559  0.11808  0.39819  1.0000
  Fe  Fe198     1.0  0.72421  0.27345  0.41306  1.0000
  C   C1454     1.0  0.51647  0.11308  0.47377  1.0000
  H   H2492     1.0  0.72040  0.29630  0.32302  1.0000
  C   C1455     1.0  0.51166  0.10036  0.00229  1.0000
  H   H2493     1.0  0.68678  0.31497  0.14709  1.0000
  C   C1456     1.0  0.51240  0.14623  0.43835  1.0000
  H   H2494     1.0  0.64524  0.24666  0.24309  1.0000
  H   H2495     1.0  0.58722  0.21726  0.41648  1.0000
  H   H2496     1.0  0.51883  0.12863  0.11656  1.0000
  C   C1457     1.0  0.59363  0.21628  0.42947  1.0000
  H   H2497     1.0  0.52491  0.02564  0.17241  1.0000
  H   H2498     1.0  0.61417  0.31095  0.00844  1.0000
  C   C1458     1.0  0.66008  0.27514  0.00114  1.0000
  H   H2499     1.0  0.50190  0.00422  0.12384  1.0000
  C   C1459     1.0  0.68437  0.32866  0.09578  1.0000
  H   H2500     1.0  0.60605  0.19501  0.40904  1.0000
  C   C1460     1.0  0.72333  0.31999  0.32490  1.0000
  H   H2501     1.0  0.55730  0.13701  0.00171  1.0000
  H   H2502     1.0  0.74176  0.28648  0.05153  1.0000
  H   H2503     1.0  0.57715  0.19512  0.28960  1.0000
  C   C1461     1.0  0.56945  0.19713  0.28264  1.0000
  C   C1462     1.0  0.60086  0.20682  0.37886  1.0000
  H   H2504     1.0  0.60847  0.27779  0.99005  1.0000
  N   N101      1.0  0.67543  0.32224  0.12356  1.0000
  C   C1463     1.0  0.50942  0.09944  0.03193  1.0000
  H   H2505     1.0  0.59091  0.23387  0.30928  1.0000
  H   H2506     1.0  0.56467  0.27824  0.03788  1.0000
  H   H2507     1.0  0.61092  0.28133  0.47545  1.0000
  C   C1464     1.0  0.73447  0.32305  0.27569  1.0000
  H   H2508     1.0  0.62108  0.11713  0.37833  1.0000
  C   C1465     1.0  0.67063  0.25351  0.00435  1.0000
  C   C1466     1.0  0.73647  0.28789  0.03572  1.0000
  H   H2509     1.0  0.66733  0.23411  0.02119  1.0000
  S   S401      1.0  0.71858  0.32182  0.14253  1.0000
  H   H2510     1.0  0.63212  0.31081  0.01870  1.0000
  H   H2511     1.0  0.58824  0.10914  0.33216  1.0000
  C   C1467     1.0  0.61001  0.25446  0.47723  1.0000
  H   H2512     1.0  0.70671  0.30483  0.30708  1.0000
  N   N102      1.0  0.72474  0.31466  0.29977  1.0000
  H   H2513     1.0  0.58862  0.21222  0.24419  1.0000
  H   H2514     1.0  0.59873  0.21544  0.37465  1.0000
  H   H2515     1.0  0.51268  0.03268  0.14563  1.0000
  H   H2516     1.0  0.55713  0.23080  0.27359  1.0000
  C   C1468     1.0  0.73866  0.31708  0.19810  1.0000
  S   S402      1.0  0.60041  0.33522  0.40711  1.0000
  H   H2517     1.0  0.53973  0.05991  0.11368  1.0000
  H   H2518     1.0  0.73378  0.26408  0.04848  1.0000
  H   H2519     1.0  0.58575  0.31004  0.45420  1.0000
  H   H2520     1.0  0.72819  0.28084  0.04497  1.0000
  H   H2521     1.0  0.53297  0.11658  0.00696  1.0000
  H   H2522     1.0  0.55485  0.06493  0.13316  1.0000
  H   H2523     1.0  0.59654  0.32277  0.16723  1.0000
  C   C1469     1.0  0.66308  0.27677  0.47065  1.0000
  C   C1470     1.0  0.52351  0.03861  0.19605  1.0000
  C   C1471     1.0  0.51811  0.04199  0.13930  1.0000
  H   H2524     1.0  0.57171  0.26908  0.05866  1.0000
  H   H2525     1.0  0.59785  0.29305  0.46231  1.0000
  N   N103      1.0  0.59590  0.11256  0.38441  1.0000
  H   H2526     1.0  0.51156  0.17197  0.45890  1.0000
  C   C1472     1.0  0.65991  0.17045  0.46422  1.0000
  C   C1473     1.0  0.51658  0.04785  0.10990  1.0000
  H   H2527     1.0  0.53091  0.06001  0.14686  1.0000
  H   H2528     1.0  0.59987  0.12232  0.41523  1.0000
  H   H2529     1.0  0.68013  0.32991  0.07778  1.0000
  C   C1474     1.0  0.59071  0.25344  0.46943  1.0000
  H   H2530     1.0  0.51617  0.12396  0.15429  1.0000
  H   H2531     1.0  0.74921  0.32409  0.13290  1.0000
  C   C1475     1.0  0.50038  0.12093  0.13773  1.0000
  H   H2532     1.0  0.66130  0.14913  0.05046  1.0000
  H   H2533     1.0  0.71400  0.31695  0.36941  1.0000
  C   C1476     1.0  0.54786  0.05761  0.14887  1.0000
  H   H2534     1.0  0.56900  0.19911  0.46118  1.0000
  H   H2535     1.0  0.66193  0.30583  0.14217  1.0000
  H   H2536     1.0  0.57293  0.29653  0.00501  1.0000
  H   H2537     1.0  0.65464  0.26036  0.21909  1.0000
  C   C1477     1.0  0.66523  0.30843  0.09676  1.0000
  C   C1478     1.0  0.65701  0.15632  0.04470  1.0000
  C   C1479     1.0  0.59961  0.32559  0.99771  1.0000
  Fe  Fe199     1.0  0.50635  0.09382  0.11535  1.0000
  H   H2538     1.0  0.53525  0.10987  0.05445  1.0000
  H   H2539     1.0  0.55078  0.11276  0.04263  1.0000
  H   H2540     1.0  0.59657  0.23462  0.27197  1.0000
  C   C1480     1.0  0.72833  0.32446  0.16390  1.0000
  S   S403      1.0  0.63746  0.14129  0.98477  1.0000
  H   H2541     1.0  0.73190  0.32289  0.32984  1.0000
  H   H2542     1.0  0.55488  0.04681  0.10719  1.0000
  H   H2543     1.0  0.59341  0.19983  0.37800  1.0000
  H   H2544     1.0  0.51702  0.13940  0.44485  1.0000
  C   C1481     1.0  0.59401  0.22888  0.29401  1.0000
  S   S404      1.0  0.74399  0.28232  0.40481  1.0000
  H   H2545     1.0  0.53595  0.04217  0.09687  1.0000
  H   H2546     1.0  0.58925  0.09566  0.35492  1.0000
  H   H2547     1.0  0.50109  0.11194  0.13649  1.0000
  C   C1482     1.0  0.67332  0.31810  0.17796  1.0000
  C   C1483     1.0  0.53455  0.16288  0.44473  1.0000
  S   S405      1.0  0.50638  0.09306  0.22365  1.0000
  H   H2548     1.0  0.66935  0.32533  0.18221  1.0000
  C   C1484     1.0  0.66610  0.32882  0.12775  1.0000
  H   H2549     1.0  0.63030  0.24606  0.03396  1.0000
  H   H2550     1.0  0.66108  0.18210  0.02957  1.0000
  H   H2551     1.0  0.53039  0.12875  0.46535  1.0000
  C   C1485     1.0  0.73332  0.29975  0.03619  1.0000
  C   C1486     1.0  0.59397  0.32793  0.33387  1.0000
  H   H2552     1.0  0.59007  0.32604  0.25582  1.0000
  C   C1487     1.0  0.63238  0.31201  0.99571  1.0000
  C   C1488     1.0  0.52330  0.15573  0.46804  1.0000
  H   H2553     1.0  0.66177  0.32935  0.10989  1.0000
  N   N104      1.0  0.58487  0.28003  0.98570  1.0000
  C   C1489     1.0  0.74822  0.27633  0.01276  1.0000
  H   H2554     1.0  0.73796  0.30975  0.11337  1.0000
  H   H2555     1.0  0.73467  0.26052  0.01424  1.0000
  C   C1490     1.0  0.66833  0.16506  0.44614  1.0000
  H   H2556     1.0  0.64078  0.31817  0.98267  1.0000
  H   H2557     1.0  0.51210  0.09260  0.99466  1.0000
  N   N105      1.0  0.74266  0.28651  0.00734  1.0000
  H   H2558     1.0  0.57476  0.33580  0.34072  1.0000
  H   H2559     1.0  0.50816  0.09102  0.04678  1.0000
  H   H2560     1.0  0.54514  0.14999  0.98662  1.0000
  H   H2561     1.0  0.74269  0.30420  0.42541  1.0000
  H   H2562     1.0  0.64272  0.18848  0.01375  1.0000
  H   H2563     1.0  0.53505  0.16024  0.42451  1.0000
  H   H2564     1.0  0.61018  0.28892  0.00886  1.0000
  C   C1491     1.0  0.55906  0.33361  0.32641  1.0000
  H   H2565     1.0  0.74284  0.32468  0.28212  1.0000
  H   H2566     1.0  0.59651  0.22232  0.46722  1.0000
  H   H2567     1.0  0.64723  0.26346  0.47856  1.0000
  C   C1492     1.0  0.56923  0.32878  0.33405  1.0000
  C   C1493     1.0  0.59531  0.28820  0.99002  1.0000
  C   C1494     1.0  0.50050  0.13939  0.43544  1.0000
  C   C1495     1.0  0.52408  0.12158  0.48169  1.0000
  S   S406      1.0  0.69201  0.28113  0.98392  1.0000
  H   H2568     1.0  0.67054  0.25867  0.98304  1.0000
  C   C1496     1.0  0.51313  0.11116  0.98252  1.0000
  N   N106      1.0  0.55117  0.12285  0.98289  1.0000
  C   C1497     1.0  0.56234  0.11913  0.98336  1.0000
  H   H2569     1.0  0.61628  0.29608  0.47671  1.0000
  C   C1498     1.0  0.55330  0.13555  0.98394  1.0000
  H   H2570     1.0  0.55448  0.33617  0.34515  1.0000
  Fe  Fe200     1.0  0.50042  0.06821  0.15122  1.0000
  H   H2571     1.0  0.58321  0.13396  0.55911  1.0000
  H   H2572     1.0  0.66062  0.10110  0.80445  1.0000
  H   H2573     1.0  0.73643  0.31978  0.78363  1.0000
  C   C1499     1.0  0.57336  0.01783  0.79477  1.0000
  C   C1500     1.0  0.59287  0.30683  0.89775  1.0000
  C   C1501     1.0  0.51385  0.02651  0.64903  1.0000
  C   C1502     1.0  0.72581  0.33495  0.64934  1.0000
  H   H2574     1.0  0.74456  0.30714  0.91810  1.0000
  H   H2575     1.0  0.51268  0.05153  0.70374  1.0000
  H   H2576     1.0  0.51641  0.08420  0.78733  1.0000
  Fe  Fe201     1.0  0.59492  0.24702  0.83693  1.0000
  S   S407      1.0  0.57545  0.24446  0.84968  1.0000
  S   S408      1.0  0.60532  0.24750  0.79289  1.0000
  C   C1503     1.0  0.52924  0.04648  0.69010  1.0000
  H   H2577     1.0  0.55183  0.05520  0.65449  1.0000
  S   S409      1.0  0.51066  0.07550  0.67775  1.0000
  H   H2578     1.0  0.69330  0.29756  0.79198  1.0000
  C   C1504     1.0  0.51763  0.03163  0.67279  1.0000
  H   H2579     1.0  0.62693  0.08606  0.79879  1.0000
  Fe  Fe202     1.0  0.61076  0.28613  0.59230  1.0000
  S   S410      1.0  0.59238  0.27501  0.60393  1.0000
  S   S411      1.0  0.61362  0.30557  0.57543  1.0000
  Fe  Fe203     1.0  0.62049  0.26513  0.60500  1.0000
  S   S412      1.0  0.60283  0.25202  0.61733  1.0000
  S   S413      1.0  0.63714  0.25967  0.60703  1.0000
  Fe  Fe204     1.0  0.59982  0.26351  0.57863  1.0000
  S   S414      1.0  0.58896  0.25843  0.54859  1.0000
  Fe  Fe205     1.0  0.59696  0.26468  0.64135  1.0000
  S   S415      1.0  0.58507  0.26110  0.68560  1.0000
  S   S416      1.0  0.61800  0.27547  0.56433  1.0000
  S   S417      1.0  0.61472  0.27686  0.63183  1.0000
  H   H2580     1.0  0.58299  0.19390  0.79930  1.0000
  S   S418      1.0  0.69076  0.26725  0.91746  1.0000
  C   C1505     1.0  0.54854  0.05291  0.63645  1.0000
  H   H2581     1.0  0.56996  0.14394  0.80925  1.0000
  C   C1506     1.0  0.50546  0.10388  0.76969  1.0000
  C   C1507     1.0  0.61027  0.19442  0.94528  1.0000
  H   H2582     1.0  0.55835  0.05700  0.70078  1.0000
  Fe  Fe206     1.0  0.68720  0.29279  0.65631  1.0000
  S   S419      1.0  0.69526  0.27741  0.66161  1.0000
  S   S420      1.0  0.66836  0.29305  0.66088  1.0000
  Fe  Fe207     1.0  0.71033  0.31091  0.63968  1.0000
  H   H2583     1.0  0.50681  0.17039  0.79454  1.0000
  H   H2584     1.0  0.53456  0.16271  0.76603  1.0000
  Fe  Fe208     1.0  0.70855  0.28823  0.62087  1.0000
  H   H2585     1.0  0.69372  0.33094  0.65798  1.0000
  Fe  Fe209     1.0  0.70652  0.28783  0.68390  1.0000
  S   S421      1.0  0.71262  0.27929  0.72163  1.0000
  S   S422      1.0  0.69951  0.30268  0.61387  1.0000
  S   S423      1.0  0.69731  0.30234  0.68192  1.0000
  Fe  Fe210     1.0  0.53015  0.13120  0.83818  1.0000
  S   S424      1.0  0.53586  0.12003  0.87245  1.0000
  S   S425      1.0  0.52931  0.12730  0.79419  1.0000
  Fe  Fe211     1.0  0.53299  0.15191  0.86787  1.0000
  S   S426      1.0  0.53841  0.14194  0.90443  1.0000
  S   S427      1.0  0.53316  0.17144  0.85941  1.0000
  Fe  Fe212     1.0  0.54939  0.13621  0.87044  1.0000
  S   S428      1.0  0.56777  0.13507  0.86939  1.0000
  Fe  Fe213     1.0  0.52435  0.12637  0.90492  1.0000
  S   S429      1.0  0.51519  0.11154  0.94556  1.0000
  S   S430      1.0  0.54494  0.14702  0.83379  1.0000
  S   S431      1.0  0.51762  0.13673  0.87068  1.0000
  S   S432      1.0  0.51530  0.08069  0.60844  1.0000
  H   H2586     1.0  0.73762  0.31350  0.66724  1.0000
  S   S433      1.0  0.52095  0.10280  0.63842  1.0000
  H   H2587     1.0  0.64852  0.13895  0.54348  1.0000
  Fe  Fe214     1.0  0.50972  0.09741  0.60961  1.0000
  H   H2588     1.0  0.50933  0.03238  0.68617  1.0000
  Fe  Fe215     1.0  0.52535  0.08554  0.63964  1.0000
  S   S434      1.0  0.54347  0.08322  0.63969  1.0000
  H   H2589     1.0  0.50937  0.13781  0.51525  1.0000
  Fe  Fe216     1.0  0.60105  0.09232  0.70548  1.0000
  S   S435      1.0  0.59589  0.10361  0.67055  1.0000
  S   S436      1.0  0.59879  0.07246  0.70887  1.0000
  Fe  Fe217     1.0  0.60789  0.11329  0.73344  1.0000
  S   S437      1.0  0.60275  0.12554  0.70019  1.0000
  S   S438      1.0  0.61135  0.11798  0.77510  1.0000
  Fe  Fe218     1.0  0.58735  0.11055  0.70581  1.0000
  S   S439      1.0  0.56947  0.11349  0.70963  1.0000
  Fe  Fe219     1.0  0.61184  0.11775  0.66697  1.0000
  S   S440      1.0  0.62151  0.13182  0.62496  1.0000
  S   S441      1.0  0.59151  0.09861  0.74103  1.0000
  S   S442      1.0  0.61811  0.10609  0.70000  1.0000
  Fe  Fe220     1.0  0.63383  0.15875  0.88321  1.0000
  S   S443      1.0  0.62841  0.17560  0.88537  1.0000
  S   S444      1.0  0.63634  0.15424  0.83893  1.0000
  Fe  Fe221     1.0  0.63302  0.15322  0.94809  1.0000
  S   S445      1.0  0.62684  0.16915  0.95371  1.0000
  H   H2590     1.0  0.52740  0.06161  0.64833  1.0000
  Fe  Fe222     1.0  0.61530  0.16438  0.92542  1.0000
  S   S446      1.0  0.59677  0.16616  0.93282  1.0000
  Fe  Fe223     1.0  0.64074  0.17932  0.91329  1.0000
  S   S447      1.0  0.64905  0.19842  0.91531  1.0000
  S   S448      1.0  0.62023  0.14746  0.92301  1.0000
  S   S449      1.0  0.64746  0.16337  0.90805  1.0000
  C   C1508     1.0  0.61789  0.12861  0.79228  1.0000
  C   C1509     1.0  0.61505  0.12599  0.82243  1.0000
  C   C1510     1.0  0.62020  0.13384  0.83703  1.0000
  C   C1511     1.0  0.62857  0.14441  0.82180  1.0000
  C   C1512     1.0  0.63137  0.14704  0.79164  1.0000
  C   C1513     1.0  0.62599  0.13934  0.77704  1.0000
  H   H2591     1.0  0.60878  0.11779  0.83472  1.0000
  H   H2592     1.0  0.61790  0.13157  0.86014  1.0000
  H   H2593     1.0  0.63779  0.15516  0.77944  1.0000
  H   H2594     1.0  0.62829  0.14166  0.75394  1.0000
  C   C1514     1.0  0.62074  0.13226  0.58910  1.0000
  C   C1515     1.0  0.62163  0.14312  0.57021  1.0000
  C   C1516     1.0  0.62253  0.14414  0.54080  1.0000
  C   C1517     1.0  0.62285  0.13434  0.52972  1.0000
  C   C1518     1.0  0.62159  0.12342  0.54875  1.0000
  C   C1519     1.0  0.62048  0.12235  0.57822  1.0000
  H   H2595     1.0  0.62186  0.15086  0.57831  1.0000
  H   H2596     1.0  0.55346  0.02456  0.78974  1.0000
  H   H2597     1.0  0.51330  0.05208  0.65790  1.0000
  H   H2598     1.0  0.61996  0.11396  0.59228  1.0000
  C   C1520     1.0  0.55042  0.09146  0.65988  1.0000
  C   C1521     1.0  0.54689  0.10125  0.66606  1.0000
  C   C1522     1.0  0.55273  0.10799  0.68138  1.0000
  C   C1523     1.0  0.56213  0.10494  0.69072  1.0000
  C   C1524     1.0  0.56548  0.09495  0.68531  1.0000
  C   C1525     1.0  0.55970  0.08827  0.66971  1.0000
  H   H2599     1.0  0.53981  0.10383  0.65871  1.0000
  H   H2600     1.0  0.54999  0.11562  0.68581  1.0000
  H   H2601     1.0  0.57235  0.09221  0.69368  1.0000
  H   H2602     1.0  0.56236  0.08058  0.66548  1.0000
  C   C1526     1.0  0.56801  0.04372  0.70073  1.0000
  C   C1527     1.0  0.56666  0.05505  0.70173  1.0000
  C   C1528     1.0  0.57594  0.06393  0.70392  1.0000
  C   C1529     1.0  0.58679  0.06165  0.70525  1.0000
  C   C1530     1.0  0.58814  0.05032  0.70427  1.0000
  C   C1531     1.0  0.57888  0.04146  0.70189  1.0000
  H   H2603     1.0  0.57469  0.07252  0.70469  1.0000
  H   H2604     1.0  0.59647  0.04842  0.70512  1.0000
  H   H2605     1.0  0.58019  0.03290  0.70076  1.0000
  H   H2606     1.0  0.64542  0.27487  0.49531  1.0000
  C   C1532     1.0  0.65888  0.25276  0.51190  1.0000
  H   H2607     1.0  0.58056  0.29239  0.66854  1.0000
  C   C1533     1.0  0.51516  0.11167  0.53259  1.0000
  C   C1534     1.0  0.52330  0.12096  0.51089  1.0000
  H   H2608     1.0  0.73917  0.31072  0.85158  1.0000
  Fe  Fe224     1.0  0.72457  0.27647  0.91081  1.0000
  H   H2609     1.0  0.51485  0.05441  0.61086  1.0000
  H   H2610     1.0  0.66256  0.09189  0.78115  1.0000
  H   H2611     1.0  0.52996  0.06188  0.60180  1.0000
  C   C1535     1.0  0.52181  0.11872  0.77414  1.0000
  C   C1536     1.0  0.52671  0.12071  0.74454  1.0000
  C   C1537     1.0  0.52111  0.11430  0.72774  1.0000
  C   C1538     1.0  0.51034  0.10585  0.74010  1.0000
  H   H2612     1.0  0.57335  0.03405  0.76392  1.0000
  C   C1539     1.0  0.51117  0.11012  0.78658  1.0000
  H   H2613     1.0  0.53497  0.12724  0.73445  1.0000
  H   H2614     1.0  0.52508  0.11598  0.70513  1.0000
  H   H2615     1.0  0.58518  0.26157  0.93908  1.0000
  H   H2616     1.0  0.55987  0.14133  0.96425  1.0000
  C   C1540     1.0  0.57594  0.14473  0.88477  1.0000
  C   C1541     1.0  0.57077  0.15171  0.90026  1.0000
  C   C1542     1.0  0.57725  0.15848  0.91458  1.0000
  C   C1543     1.0  0.58897  0.15844  0.91303  1.0000
  C   C1544     1.0  0.59428  0.15194  0.89633  1.0000
  C   C1545     1.0  0.58775  0.14499  0.88255  1.0000
  H   H2617     1.0  0.56176  0.15178  0.90168  1.0000
  H   H2618     1.0  0.57314  0.16366  0.92707  1.0000
  H   H2619     1.0  0.60339  0.15214  0.89419  1.0000
  H   H2620     1.0  0.59187  0.13970  0.87046  1.0000
  C   C1546     1.0  0.57740  0.11897  0.60994  1.0000
  C   C1547     1.0  0.71166  0.28010  0.80346  1.0000
  C   C1548     1.0  0.71424  0.27783  0.77641  1.0000
  C   C1549     1.0  0.70924  0.28259  0.75497  1.0000
  H   H2621     1.0  0.58792  0.20932  0.85510  1.0000
  S   S450      1.0  0.55581  0.03283  0.69833  1.0000
  H   H2622     1.0  0.71557  0.27640  0.81979  1.0000
  H   H2623     1.0  0.72009  0.27231  0.77209  1.0000
  S   S451      1.0  0.71348  0.28927  0.91003  1.0000
  C   C1550     1.0  0.69778  0.27568  0.51645  1.0000
  C   C1551     1.0  0.69219  0.27845  0.54110  1.0000
  C   C1552     1.0  0.69819  0.28055  0.56186  1.0000
  C   C1553     1.0  0.70982  0.27986  0.55812  1.0000
  H   H2624     1.0  0.59384  0.21130  0.77652  1.0000
  H   H2625     1.0  0.55481  0.10373  0.78011  1.0000
  H   H2626     1.0  0.68320  0.27895  0.54432  1.0000
  H   H2627     1.0  0.69377  0.28255  0.58090  1.0000
  C   C1554     1.0  0.65638  0.09673  0.79007  1.0000
  H   H2628     1.0  0.58394  0.21537  0.97301  1.0000
  C   C1555     1.0  0.68276  0.22536  0.91716  1.0000
  C   C1556     1.0  0.68334  0.21435  0.91179  1.0000
  C   C1557     1.0  0.67322  0.20604  0.91117  1.0000
  C   C1558     1.0  0.66223  0.20851  0.91614  1.0000
  C   C1559     1.0  0.66161  0.21946  0.92184  1.0000
  C   C1560     1.0  0.67174  0.22781  0.92232  1.0000
  H   H2629     1.0  0.69175  0.21229  0.90769  1.0000
  H   H2630     1.0  0.67398  0.19778  0.90648  1.0000
  H   H2631     1.0  0.65320  0.22155  0.92578  1.0000
  H   H2632     1.0  0.67102  0.23615  0.92660  1.0000
  C   C1561     1.0  0.64700  0.26966  0.61805  1.0000
  C   C1562     1.0  0.64557  0.28094  0.61778  1.0000
  C   C1563     1.0  0.65258  0.28835  0.62971  1.0000
  C   C1564     1.0  0.66124  0.28460  0.64137  1.0000
  C   C1565     1.0  0.66328  0.27366  0.63976  1.0000
  C   C1566     1.0  0.65611  0.26617  0.62821  1.0000
  H   H2633     1.0  0.63900  0.28395  0.60855  1.0000
  H   H2634     1.0  0.65112  0.29689  0.63043  1.0000
  H   H2635     1.0  0.67000  0.27074  0.64861  1.0000
  H   H2636     1.0  0.65740  0.25752  0.62803  1.0000
  C   C1567     1.0  0.58775  0.12438  0.62115  1.0000
  H   H2637     1.0  0.54070  0.09815  0.80648  1.0000
  C   C1568     1.0  0.58681  0.25510  0.49673  1.0000
  C   C1569     1.0  0.59447  0.25651  0.51439  1.0000
  H   H2638     1.0  0.73121  0.31990  0.73905  1.0000
  C   C1570     1.0  0.60466  0.24638  0.96199  1.0000
  H   H2639     1.0  0.57700  0.30459  0.50867  1.0000
  H   H2640     1.0  0.57778  0.25528  0.50422  1.0000
  H   H2641     1.0  0.61209  0.25742  0.51790  1.0000
  H   H2642     1.0  0.53590  0.16545  0.79940  1.0000
  C   C1571     1.0  0.59117  0.25792  0.71485  1.0000
  C   C1572     1.0  0.58577  0.25952  0.74123  1.0000
  C   C1573     1.0  0.59024  0.25669  0.76515  1.0000
  C   C1574     1.0  0.59994  0.25193  0.76299  1.0000
  C   C1575     1.0  0.60537  0.25038  0.73660  1.0000
  C   C1576     1.0  0.60108  0.25349  0.71249  1.0000
  H   H2643     1.0  0.57809  0.26294  0.74317  1.0000
  H   H2644     1.0  0.58602  0.25797  0.78537  1.0000
  H   H2645     1.0  0.61282  0.24661  0.73487  1.0000
  H   H2646     1.0  0.60527  0.25218  0.69226  1.0000
  H   H2647     1.0  0.73308  0.30380  0.79422  1.0000
  C   C1577     1.0  0.55827  0.18755  0.89383  1.0000
  C   C1578     1.0  0.55098  0.17897  0.88495  1.0000
  C   C1579     1.0  0.54279  0.18204  0.87041  1.0000
  C   C1580     1.0  0.54217  0.19386  0.86442  1.0000
  C   C1581     1.0  0.54955  0.20247  0.87306  1.0000
  H   H2648     1.0  0.62961  0.30013  0.68031  1.0000
  H   H2649     1.0  0.55160  0.16995  0.88977  1.0000
  H   H2650     1.0  0.53581  0.19634  0.85343  1.0000
  H   H2651     1.0  0.54872  0.21142  0.86902  1.0000
  C   C1582     1.0  0.63833  0.32919  0.61093  1.0000
  C   C1583     1.0  0.63717  0.31704  0.61798  1.0000
  C   C1584     1.0  0.62995  0.30970  0.60628  1.0000
  C   C1585     1.0  0.62393  0.31455  0.58747  1.0000
  C   C1586     1.0  0.62558  0.32676  0.57939  1.0000
  H   H2652     1.0  0.50711  0.13889  0.73308  1.0000
  H   H2653     1.0  0.64161  0.31329  0.63304  1.0000
  H   H2654     1.0  0.62892  0.30032  0.61213  1.0000
  H   H2655     1.0  0.62111  0.33054  0.56447  1.0000
  C   C1587     1.0  0.61262  0.25147  0.97599  1.0000
  H   H2656     1.0  0.61525  0.22041  0.93249  1.0000
  H   H2657     1.0  0.60849  0.18990  0.89250  1.0000
  C   C1588     1.0  0.67038  0.17184  0.50155  1.0000
  H   H2658     1.0  0.73482  0.29964  0.69249  1.0000
  C   C1589     1.0  0.67028  0.17399  0.53140  1.0000
  C   C1590     1.0  0.68399  0.32836  0.66444  1.0000
  C   C1591     1.0  0.67147  0.23909  0.84324  1.0000
  C   C1592     1.0  0.63242  0.33564  0.95731  1.0000
  H   H2659     1.0  0.54412  0.11191  0.78018  1.0000
  H   H2660     1.0  0.62391  0.28798  0.77309  1.0000
  H   H2661     1.0  0.62181  0.11576  0.54052  1.0000
  H   H2662     1.0  0.58061  0.12965  0.74719  1.0000
  H   H2663     1.0  0.65571  0.28656  0.51902  1.0000
  H   H2664     1.0  0.52841  0.17381  0.77925  1.0000
  H   H2665     1.0  0.65732  0.10315  0.74525  1.0000
  H   H2666     1.0  0.59210  0.28648  0.65416  1.0000
  H   H2667     1.0  0.59005  0.19036  0.92900  1.0000
  H   H2668     1.0  0.57763  0.31309  0.89380  1.0000
  H   H2669     1.0  0.68408  0.24956  0.87550  1.0000
  H   H2670     1.0  0.62437  0.08226  0.76735  1.0000
  H   H2671     1.0  0.51524  0.15747  0.82213  1.0000
  H   H2672     1.0  0.62375  0.24246  0.54064  1.0000
  H   H2673     1.0  0.53833  0.12283  0.95795  1.0000
  H   H2674     1.0  0.50151  0.09580  0.54092  1.0000
  H   H2675     1.0  0.60368  0.18595  0.95722  1.0000
  H   H2676     1.0  0.70805  0.25448  0.81417  1.0000
  H   H2677     1.0  0.63857  0.10003  0.73629  1.0000
  S   S452      1.0  0.71704  0.26793  0.87924  1.0000
  S   S453      1.0  0.68994  0.27276  0.49108  1.0000
  H   H2678     1.0  0.63615  0.10028  0.81407  1.0000
  S   S454      1.0  0.60976  0.24522  0.92677  1.0000
  C   C1593     1.0  0.61061  0.32107  0.68602  1.0000
  H   H2679     1.0  0.72141  0.30941  0.56721  1.0000
  H   H2680     1.0  0.65970  0.22386  0.83810  1.0000
  H   H2681     1.0  0.51340  0.01245  0.60052  1.0000
  H   H2682     1.0  0.62854  0.11004  0.80038  1.0000
  C   C1594     1.0  0.54524  0.10281  0.78392  1.0000
  H   H2683     1.0  0.71389  0.27312  0.49362  1.0000
  C   C1595     1.0  0.60613  0.25628  0.50448  1.0000
  H   H2684     1.0  0.74686  0.32444  0.69635  1.0000
  C   C1596     1.0  0.65491  0.10603  0.76519  1.0000
  H   H2685     1.0  0.71041  0.32632  0.68399  1.0000
  H   H2686     1.0  0.59067  0.28110  0.49303  1.0000
  H   H2687     1.0  0.52546  0.04617  0.60754  1.0000
  H   H2688     1.0  0.65127  0.23823  0.55146  1.0000
  H   H2689     1.0  0.59085  0.13407  0.61197  1.0000
  H   H2690     1.0  0.51304  0.17142  0.75802  1.0000
  H   H2691     1.0  0.74573  0.33053  0.84870  1.0000
  H   H2692     1.0  0.64070  0.16859  0.50521  1.0000
  N   N107      1.0  0.58058  0.11575  0.58201  1.0000
  N   N108      1.0  0.60422  0.20350  0.93391  1.0000
  C   C1597     1.0  0.64933  0.12257  0.71707  1.0000
  C   C1598     1.0  0.55963  0.01238  0.76540  1.0000
  H   H2693     1.0  0.53370  0.04031  0.70096  1.0000
  H   H2694     1.0  0.59610  0.27985  0.88989  1.0000
  H   H2695     1.0  0.63483  0.32223  0.93356  1.0000
  H   H2696     1.0  0.63176  0.21714  0.90733  1.0000
  H   H2697     1.0  0.69123  0.25625  0.75792  1.0000
  H   H2698     1.0  0.58782  0.29712  0.63058  1.0000
  H   H2699     1.0  0.62853  0.28709  0.66714  1.0000
  C   C1599     1.0  0.58773  0.10680  0.58379  1.0000
  H   H2700     1.0  0.57650  0.29877  0.55560  1.0000
  H   H2701     1.0  0.57224  0.12565  0.60811  1.0000
  H   H2702     1.0  0.64628  0.15207  0.55218  1.0000
  C   C1600     1.0  0.54734  0.11004  0.94794  1.0000
  S   S455      1.0  0.57256  0.27279  0.88124  1.0000
  C   C1601     1.0  0.59209  0.28710  0.89035  1.0000
  S   S456      1.0  0.59487  0.23186  0.87188  1.0000
  H   H2703     1.0  0.56609  0.12623  0.54914  1.0000
  H   H2704     1.0  0.59687  0.11085  0.58392  1.0000
  C   C1602     1.0  0.52255  0.05284  0.64730  1.0000
  S   S457      1.0  0.57754  0.24157  0.91571  1.0000
  C   C1603     1.0  0.54739  0.12177  0.95607  1.0000
  H   H2705     1.0  0.60947  0.28430  0.50952  1.0000
  H   H2706     1.0  0.62331  0.19152  0.96860  1.0000
  H   H2707     1.0  0.66492  0.24815  0.55096  1.0000
  C   C1604     1.0  0.73568  0.30917  0.69040  1.0000
  N   N109      1.0  0.53968  0.08383  0.76749  1.0000
  C   C1605     1.0  0.55190  0.08250  0.76744  1.0000
  C   C1606     1.0  0.54018  0.09676  0.76286  1.0000
  C   C1607     1.0  0.53646  0.07953  0.74281  1.0000
  C   C1608     1.0  0.53137  0.07650  0.79560  1.0000
  C   C1609     1.0  0.55387  0.07022  0.76689  1.0000
  H   H2708     1.0  0.52520  0.07941  0.71436  1.0000
  C   C1610     1.0  0.52557  0.08220  0.73422  1.0000
  H   H2709     1.0  0.57975  0.33094  0.66329  1.0000
  H   H2710     1.0  0.55850  0.08896  0.74871  1.0000
  H   H2711     1.0  0.55508  0.00502  0.75794  1.0000
  H   H2712     1.0  0.68650  0.24131  0.77876  1.0000
  H   H2713     1.0  0.54550  0.10172  0.74103  1.0000
  H   H2714     1.0  0.54382  0.08337  0.72328  1.0000
  H   H2715     1.0  0.53504  0.06981  0.74693  1.0000
  H   H2716     1.0  0.52918  0.06701  0.79574  1.0000
  H   H2717     1.0  0.57079  0.12796  0.93746  1.0000
  H   H2718     1.0  0.55383  0.06838  0.74581  1.0000
  H   H2719     1.0  0.58109  0.29006  0.94848  1.0000
  H   H2720     1.0  0.54733  0.06311  0.78412  1.0000
  H   H2721     1.0  0.67853  0.26896  0.86824  1.0000
  C   C1611     1.0  0.69132  0.25026  0.77822  1.0000
  C   C1612     1.0  0.68588  0.25482  0.80349  1.0000
  C   C1613     1.0  0.71933  0.33170  0.67791  1.0000
  C   C1614     1.0  0.72987  0.31342  0.55079  1.0000
  H   H2722     1.0  0.73884  0.28198  0.96951  1.0000
  H   H2723     1.0  0.51270  0.07172  0.81688  1.0000
  C   C1615     1.0  0.58044  0.26528  0.95530  1.0000
  C   C1616     1.0  0.51341  0.14971  0.75990  1.0000
  N   N110      1.0  0.59608  0.31619  0.65538  1.0000
  C   C1617     1.0  0.59844  0.30419  0.65801  1.0000
  H   H2724     1.0  0.67610  0.16581  0.49787  1.0000
  C   C1618     1.0  0.59397  0.32021  0.62617  1.0000
  C   C1619     1.0  0.58538  0.31502  0.67883  1.0000
  C   C1620     1.0  0.58908  0.29468  0.65239  1.0000
  H   H2725     1.0  0.53148  0.09849  0.76368  1.0000
  H   H2726     1.0  0.72549  0.30440  0.74848  1.0000
  H   H2727     1.0  0.70066  0.25047  0.77692  1.0000
  H   H2728     1.0  0.58061  0.20876  0.94564  1.0000
  H   H2729     1.0  0.59922  0.30045  0.67983  1.0000
  H   H2730     1.0  0.55630  0.10880  0.94212  1.0000
  H   H2731     1.0  0.62438  0.20661  0.89137  1.0000
  C   C1621     1.0  0.59763  0.33358  0.61185  1.0000
  H   H2732     1.0  0.58460  0.31685  0.62663  1.0000
  H   H2733     1.0  0.57747  0.30937  0.67559  1.0000
  H   H2734     1.0  0.58633  0.31043  0.69987  1.0000
  H   H2735     1.0  0.66481  0.24421  0.84180  1.0000
  C   C1622     1.0  0.58221  0.32652  0.68225  1.0000
  H   H2736     1.0  0.57484  0.25771  0.97302  1.0000
  H   H2737     1.0  0.51732  0.07705  0.75026  1.0000
  C   C1623     1.0  0.59616  0.20530  0.95947  1.0000
  H   H2738     1.0  0.67441  0.31026  0.60447  1.0000
  H   H2739     1.0  0.71105  0.24074  0.82856  1.0000
  H   H2740     1.0  0.64255  0.11810  0.70793  1.0000
  C   C1624     1.0  0.65395  0.27979  0.53938  1.0000
  C   C1625     1.0  0.70510  0.24653  0.83233  1.0000
  H   H2741     1.0  0.66955  0.23437  0.86618  1.0000
  N   N111      1.0  0.56789  0.00838  0.78210  1.0000
  N   N112      1.0  0.57754  0.21560  0.79373  1.0000
  C   C1626     1.0  0.57183  0.22536  0.78476  1.0000
  C   C1627     1.0  0.58893  0.21794  0.77142  1.0000
  C   C1628     1.0  0.58026  0.21651  0.82174  1.0000
  C   C1629     1.0  0.56913  0.20392  0.79685  1.0000
  C   C1630     1.0  0.56017  0.22507  0.80518  1.0000
  C   C1631     1.0  0.58787  0.21866  0.74059  1.0000
  H   H2742     1.0  0.57793  0.23410  0.78161  1.0000
  H   H2743     1.0  0.56980  0.22535  0.76383  1.0000
  H   H2744     1.0  0.52275  0.16018  0.48579  1.0000
  H   H2745     1.0  0.59497  0.22640  0.77098  1.0000
  H   H2746     1.0  0.58605  0.22537  0.81939  1.0000
  H   H2747     1.0  0.57220  0.21570  0.83821  1.0000
  H   H2748     1.0  0.56246  0.20125  0.81776  1.0000
  H   H2749     1.0  0.56414  0.20482  0.78024  1.0000
  H   H2750     1.0  0.56148  0.22735  0.82509  1.0000
  H   H2751     1.0  0.55635  0.23189  0.79460  1.0000
  H   H2752     1.0  0.55359  0.21649  0.81039  1.0000
  H   H2753     1.0  0.59626  0.21814  0.72722  1.0000
  H   H2754     1.0  0.58079  0.21140  0.73943  1.0000
  H   H2755     1.0  0.58642  0.22727  0.73080  1.0000
  S   S458      1.0  0.59970  0.31847  0.91089  1.0000
  H   H2756     1.0  0.58471  0.11268  0.78479  1.0000
  Fe  Fe225     1.0  0.70280  0.25527  0.91663  1.0000
  N   N113      1.0  0.52684  0.04324  0.66348  1.0000
  N   N114      1.0  0.74447  0.31021  0.73378  1.0000
  H   H2757     1.0  0.67463  0.22383  0.82678  1.0000
  H   H2758     1.0  0.65096  0.12768  0.75520  1.0000
  H   H2759     1.0  0.53717  0.03863  0.62767  1.0000
  H   H2760     1.0  0.57489  0.27008  0.94478  1.0000
  C   C1632     1.0  0.64922  0.17251  0.50929  1.0000
  H   H2761     1.0  0.60820  0.20433  0.87238  1.0000
  H   H2762     1.0  0.56001  0.14991  0.76986  1.0000
  H   H2763     1.0  0.52122  0.02502  0.63404  1.0000
  H   H2764     1.0  0.58098  0.01268  0.74169  1.0000
  C   C1633     1.0  0.63333  0.33117  0.93003  1.0000
  H   H2765     1.0  0.64624  0.29472  0.69131  1.0000
  C   C1634     1.0  0.50234  0.13683  0.50388  1.0000
  C   C1635     1.0  0.58775  0.12676  0.55945  1.0000
  H   H2766     1.0  0.55447  0.08451  0.78662  1.0000
  H   H2767     1.0  0.66182  0.11419  0.76274  1.0000
  H   H2768     1.0  0.58661  0.23796  0.96617  1.0000
  H   H2769     1.0  0.56631  0.14057  0.75088  1.0000
  H   H2770     1.0  0.58862  0.08984  0.60799  1.0000
  H   H2771     1.0  0.60565  0.33345  0.65645  1.0000
  H   H2772     1.0  0.54386  0.11019  0.92876  1.0000
  H   H2773     1.0  0.60524  0.15103  0.77008  1.0000
  H   H2774     1.0  0.65875  0.28396  0.55319  1.0000
  H   H2775     1.0  0.66103  0.14978  0.49598  1.0000
  H   H2776     1.0  0.66695  0.25691  0.86906  1.0000
  H   H2777     1.0  0.56674  0.01920  0.81223  1.0000
  H   H2778     1.0  0.53537  0.05540  0.68457  1.0000
  H   H2779     1.0  0.56830  0.18523  0.80944  1.0000
  N   N115      1.0  0.65211  0.26152  0.51871  1.0000
  H   H2780     1.0  0.58362  0.03602  0.78490  1.0000
  H   H2781     1.0  0.74710  0.33660  0.80121  1.0000
  C   C1636     1.0  0.63987  0.25535  0.53694  1.0000
  C   C1637     1.0  0.65835  0.26891  0.53506  1.0000
  C   C1638     1.0  0.58962  0.27332  0.96529  1.0000
  H   H2782     1.0  0.52072  0.15675  0.74428  1.0000
  C   C1639     1.0  0.63258  0.24612  0.52548  1.0000
  N   N116      1.0  0.68373  0.24710  0.83334  1.0000
  S   S459      1.0  0.50251  0.09760  0.71998  1.0000
  C   C1640     1.0  0.58179  0.30598  0.89243  1.0000
  C   C1641     1.0  0.51968  0.07985  0.80483  1.0000
  H   H2783     1.0  0.54150  0.10238  0.96502  1.0000
  H   H2784     1.0  0.64005  0.25083  0.55876  1.0000
  H   H2785     1.0  0.63465  0.26181  0.54016  1.0000
  H   H2786     1.0  0.65770  0.26356  0.55681  1.0000
  H   H2787     1.0  0.59703  0.11941  0.52688  1.0000
  C   C1642     1.0  0.65858  0.17336  0.96817  1.0000
  C   C1643     1.0  0.50793  0.10291  0.52460  1.0000
  H   H2788     1.0  0.58423  0.30530  0.97321  1.0000
  H   H2789     1.0  0.67790  0.18026  0.95599  1.0000
  H   H2790     1.0  0.64321  0.12717  0.80114  1.0000
  H   H2791     1.0  0.65634  0.18131  0.95748  1.0000
  C   C1644     1.0  0.72734  0.29274  0.98128  1.0000
  H   H2792     1.0  0.63120  0.25003  0.50454  1.0000
  H   H2793     1.0  0.59530  0.12055  0.61666  1.0000
  C   C1645     1.0  0.73976  0.31608  0.56580  1.0000
  H   H2794     1.0  0.56713  0.29496  0.88343  1.0000
  H   H2795     1.0  0.61596  0.19201  0.92806  1.0000
  H   H2796     1.0  0.67114  0.31559  0.57160  1.0000
  H   H2797     1.0  0.58337  0.12225  0.52096  1.0000
  H   H2798     1.0  0.63853  0.08312  0.77319  1.0000
  C   C1646     1.0  0.67672  0.31801  0.58589  1.0000
  C   C1647     1.0  0.60680  0.32444  0.65817  1.0000
  C   C1648     1.0  0.73284  0.31147  0.74952  1.0000
  C   C1649     1.0  0.53815  0.04179  0.64671  1.0000
  H   H2799     1.0  0.53572  0.07710  0.81326  1.0000
  H   H2800     1.0  0.51339  0.12943  0.97797  1.0000
  C   C1650     1.0  0.59176  0.14726  0.73298  1.0000
  H   H2801     1.0  0.69748  0.32824  0.60018  1.0000
  H   H2802     1.0  0.73671  0.29197  0.73630  1.0000
  H   H2803     1.0  0.59437  0.33525  0.59232  1.0000
  H   H2804     1.0  0.61444  0.32531  0.64024  1.0000
  H   H2805     1.0  0.52605  0.09172  0.72876  1.0000
  H   H2806     1.0  0.74916  0.30487  0.98224  1.0000
  H   H2807     1.0  0.64095  0.33593  0.96262  1.0000
  C   C1651     1.0  0.74576  0.29145  0.76925  1.0000
  C   C1652     1.0  0.69236  0.23969  0.83587  1.0000
  C   C1653     1.0  0.58614  0.30066  0.55258  1.0000
  H   H2808     1.0  0.50260  0.09703  0.48965  1.0000
  C   C1654     1.0  0.67580  0.26237  0.85645  1.0000
  H   H2809     1.0  0.56450  0.01935  0.74550  1.0000
  H   H2810     1.0  0.65744  0.11961  0.71171  1.0000
  H   H2811     1.0  0.52153  0.05116  0.72862  1.0000
  H   H2812     1.0  0.50334  0.13034  0.49116  1.0000
  H   H2813     1.0  0.58928  0.33268  0.68717  1.0000
  H   H2814     1.0  0.58520  0.00518  0.77077  1.0000
  H   H2815     1.0  0.59009  0.31028  0.54450  1.0000
  H   H2816     1.0  0.55287  0.12900  0.93725  1.0000
  H   H2817     1.0  0.58002  0.01504  0.80532  1.0000
  H   H2818     1.0  0.50723  0.10835  0.80923  1.0000
  C   C1655     1.0  0.67101  0.17379  0.95145  1.0000
  C   C1656     1.0  0.74579  0.31474  0.70214  1.0000
  H   H2819     1.0  0.62554  0.33119  0.92146  1.0000
  H   H2820     1.0  0.71929  0.33316  0.72065  1.0000
  H   H2821     1.0  0.62181  0.25482  0.96491  1.0000
  H   H2822     1.0  0.54508  0.02048  0.76611  1.0000
  C   C1657     1.0  0.61269  0.21521  0.91745  1.0000
  H   H2823     1.0  0.60835  0.22065  0.90427  1.0000
  C   C1658     1.0  0.65991  0.24376  0.53786  1.0000
  C   C1659     1.0  0.55763  0.19936  0.88797  1.0000
  H   H2824     1.0  0.65368  0.11863  0.80677  1.0000
  H   H2825     1.0  0.70608  0.24912  0.85217  1.0000
  C   C1660     1.0  0.59113  0.12535  0.52877  1.0000
  H   H2826     1.0  0.52915  0.00374  0.61197  1.0000
  C   C1661     1.0  0.62433  0.21492  0.89761  1.0000
  H   H2827     1.0  0.68185  0.31684  0.63733  1.0000
  H   H2828     1.0  0.66089  0.14963  0.54497  1.0000
  C   C1662     1.0  0.66861  0.22967  0.82699  1.0000
  H   H2829     1.0  0.67132  0.18349  0.53051  1.0000
  H   H2830     1.0  0.58618  0.28433  0.54072  1.0000
  H   H2831     1.0  0.73696  0.28707  0.78395  1.0000
  H   H2832     1.0  0.64044  0.11638  0.83384  1.0000
  C   C1663     1.0  0.64471  0.12091  0.74952  1.0000
  C   C1664     1.0  0.52340  0.05368  0.61523  1.0000
  C   C1665     1.0  0.57443  0.19335  0.79424  1.0000
  H   H2833     1.0  0.57502  0.19179  0.77269  1.0000
  H   H2834     1.0  0.51758  0.14238  0.76532  1.0000
  C   C1666     1.0  0.58601  0.20726  0.83541  1.0000
  H   H2835     1.0  0.59448  0.20733  0.82148  1.0000
  H   H2836     1.0  0.66827  0.23371  0.80503  1.0000
  H   H2837     1.0  0.65149  0.13211  0.70616  1.0000
  H   H2838     1.0  0.66491  0.23775  0.53000  1.0000
  H   H2839     1.0  0.60012  0.29318  0.53757  1.0000
  H   H2840     1.0  0.63932  0.27632  0.68250  1.0000
  H   H2841     1.0  0.64451  0.27743  0.55040  1.0000
  H   H2842     1.0  0.57393  0.09087  0.60985  1.0000
  H   H2843     1.0  0.68134  0.32067  0.68339  1.0000
  H   H2844     1.0  0.59271  0.22177  0.93730  1.0000
  H   H2845     1.0  0.57991  0.19833  0.84248  1.0000
  H   H2846     1.0  0.66471  0.32677  0.60602  1.0000
  C   C1667     1.0  0.64424  0.11832  0.81042  1.0000
  C   C1668     1.0  0.57595  0.29818  0.98157  1.0000
  H   H2847     1.0  0.66787  0.27206  0.52462  1.0000
  C   C1669     1.0  0.67871  0.32466  0.64069  1.0000
  H   H2848     1.0  0.63648  0.23860  0.52411  1.0000
  H   H2849     1.0  0.59157  0.20489  0.90859  1.0000
  H   H2850     1.0  0.55816  0.12203  0.58664  1.0000
  H   H2851     1.0  0.59613  0.13407  0.51413  1.0000
  C   C1670     1.0  0.57956  0.02991  0.77344  1.0000
  C   C1671     1.0  0.65455  0.15398  0.50645  1.0000
  C   C1672     1.0  0.65250  0.14859  0.53866  1.0000
  H   H2852     1.0  0.57130  0.11143  0.62705  1.0000
  H   H2853     1.0  0.66258  0.16867  0.54884  1.0000
  H   H2854     1.0  0.60497  0.15079  0.80618  1.0000
  H   H2855     1.0  0.60066  0.29429  0.96909  1.0000
  H   H2856     1.0  0.69354  0.26131  0.84696  1.0000
  H   H2857     1.0  0.66804  0.25733  0.49957  1.0000
  H   H2858     1.0  0.53848  0.14022  0.96840  1.0000
  H   H2859     1.0  0.69179  0.26361  0.80074  1.0000
  H   H2860     1.0  0.67809  0.17186  0.53769  1.0000
  H   H2861     1.0  0.50570  0.01280  0.55900  1.0000
  H   H2862     1.0  0.72202  0.28964  0.96711  1.0000
  C   C1673     1.0  0.57748  0.00553  0.76190  1.0000
  S   S460      1.0  0.59917  0.26010  0.86227  1.0000
  H   H2863     1.0  0.56652  0.12084  0.78952  1.0000
  H   H2864     1.0  0.59316  0.15512  0.74138  1.0000
  C   C1674     1.0  0.61786  0.19784  0.96540  1.0000
  H   H2865     1.0  0.60128  0.20933  0.97294  1.0000
  H   H2866     1.0  0.56269  0.07003  0.77010  1.0000
  H   H2867     1.0  0.67537  0.26739  0.83538  1.0000
  H   H2868     1.0  0.59628  0.19172  0.87902  1.0000
  H   H2869     1.0  0.62654  0.10306  0.75836  1.0000
  H   H2870     1.0  0.73114  0.30681  0.53848  1.0000
  H   H2871     1.0  0.69264  0.23427  0.82022  1.0000
  Fe  Fe226     1.0  0.54844  0.01337  0.69820  1.0000
  H   H2872     1.0  0.66064  0.19075  0.49757  1.0000
  H   H2873     1.0  0.60044  0.14751  0.71950  1.0000
  S   S461      1.0  0.69607  0.23565  0.91651  1.0000
  C   C1675     1.0  0.56358  0.14204  0.77236  1.0000
  H   H2874     1.0  0.72445  0.27669  0.53036  1.0000
  H   H2875     1.0  0.55596  0.05112  0.62207  1.0000
  H   H2876     1.0  0.54344  0.01002  0.79885  1.0000
  H   H2877     1.0  0.61806  0.32831  0.68587  1.0000
  H   H2878     1.0  0.65519  0.24783  0.49763  1.0000
  H   H2879     1.0  0.58672  0.02930  0.75617  1.0000
  Fe  Fe227     1.0  0.57970  0.25675  0.87779  1.0000
  H   H2880     1.0  0.54105  0.03478  0.65975  1.0000
  H   H2881     1.0  0.52891  0.12781  0.51677  1.0000
  H   H2882     1.0  0.64629  0.15070  0.50049  1.0000
  Fe  Fe228     1.0  0.57544  0.22959  0.88612  1.0000
  H   H2883     1.0  0.64742  0.17040  0.53284  1.0000
  H   H2884     1.0  0.59896  0.31645  0.61033  1.0000
  H   H2885     1.0  0.73629  0.31973  0.58358  1.0000
  H   H2886     1.0  0.62074  0.27377  0.79710  1.0000
  C   C1676     1.0  0.60300  0.19608  0.88854  1.0000
  H   H2887     1.0  0.52584  0.01180  0.55528  1.0000
  H   H2888     1.0  0.54631  0.06060  0.62430  1.0000
  H   H2889     1.0  0.72715  0.31054  0.70051  1.0000
  H   H2890     1.0  0.59596  0.27949  0.94577  1.0000
  H   H2891     1.0  0.57440  0.32438  0.70062  1.0000
  S   S462      1.0  0.56672  0.20965  0.90092  1.0000
  C   C1677     1.0  0.63108  0.08724  0.77591  1.0000
  C   C1678     1.0  0.57381  0.14408  0.78668  1.0000
  H   H2892     1.0  0.67760  0.25679  0.79972  1.0000
  H   H2893     1.0  0.56441  0.18498  0.90548  1.0000
  C   C1679     1.0  0.70172  0.28975  0.76063  1.0000
  H   H2894     1.0  0.69785  0.29349  0.74424  1.0000
  C   C1680     1.0  0.69915  0.29203  0.78769  1.0000
  C   C1681     1.0  0.70403  0.28714  0.80926  1.0000
  C   C1682     1.0  0.54994  0.01708  0.78139  1.0000
  C   C1683     1.0  0.62114  0.27844  0.77492  1.0000
  H   H2895     1.0  0.63773  0.27452  0.76143  1.0000
  H   H2896     1.0  0.59045  0.19667  0.97350  1.0000
  H   H2897     1.0  0.52035  0.08545  0.82004  1.0000
  H   H2898     1.0  0.52058  0.02482  0.68646  1.0000
  H   H2899     1.0  0.52117  0.14706  0.80718  1.0000
  S   S463      1.0  0.70043  0.29004  0.84307  1.0000
  H   H2900     1.0  0.61206  0.27603  0.77251  1.0000
  C   C1684     1.0  0.57581  0.29563  0.88676  1.0000
  H   H2901     1.0  0.72183  0.31108  0.79051  1.0000
  H   H2902     1.0  0.56373  0.10296  0.59312  1.0000
  S   S464      1.0  0.71752  0.28218  0.58404  1.0000
  C   C1685     1.0  0.62962  0.27422  0.75384  1.0000
  H   H2903     1.0  0.62542  0.26469  0.75739  1.0000
  H   H2904     1.0  0.64294  0.26056  0.73583  1.0000
  C   C1686     1.0  0.70947  0.27517  0.51256  1.0000
  H   H2905     1.0  0.65050  0.28863  0.72146  1.0000
  H   H2906     1.0  0.64284  0.30006  0.74941  1.0000
  C   C1687     1.0  0.59929  0.15010  0.79115  1.0000
  H   H2907     1.0  0.59511  0.15750  0.79079  1.0000
  C   C1688     1.0  0.64568  0.26617  0.71360  1.0000
  H   H2908     1.0  0.65411  0.27271  0.71013  1.0000
  H   H2909     1.0  0.63212  0.30277  0.72976  1.0000
  N   N117      1.0  0.68161  0.33396  0.61279  1.0000
  H   H2910     1.0  0.58489  0.12252  0.64479  1.0000
  H   H2911     1.0  0.57437  0.28943  0.50877  1.0000
  S   S465      1.0  0.71177  0.26239  0.94816  1.0000
  H   H2912     1.0  0.63630  0.12351  0.75267  1.0000
  N   N118      1.0  0.63260  0.28047  0.72245  1.0000
  C   C1689     1.0  0.64287  0.29111  0.71488  1.0000
  C   C1690     1.0  0.64098  0.30135  0.72807  1.0000
  C   C1691     1.0  0.62202  0.28359  0.71423  1.0000
  H   H2913     1.0  0.62833  0.26468  0.70758  1.0000
  H   H2914     1.0  0.61795  0.28864  0.72801  1.0000
  H   H2915     1.0  0.61497  0.27546  0.71751  1.0000
  C   C1692     1.0  0.59037  0.13797  0.80198  1.0000
  H   H2916     1.0  0.57899  0.15329  0.77701  1.0000
  H   H2917     1.0  0.59572  0.13151  0.80207  1.0000
  H   H2918     1.0  0.58601  0.14816  0.71816  1.0000
  C   C1693     1.0  0.58797  0.21328  0.95301  1.0000
  H   H2919     1.0  0.55624  0.13450  0.78593  1.0000
  C   C1694     1.0  0.63607  0.27197  0.70561  1.0000
  H   H2920     1.0  0.64742  0.26031  0.69938  1.0000
  C   C1695     1.0  0.58695  0.13525  0.75565  1.0000
  H   H2921     1.0  0.58612  0.13694  0.82476  1.0000
  H   H2922     1.0  0.59431  0.13097  0.75574  1.0000
  N   N119      1.0  0.65863  0.16723  0.49606  1.0000
  C   C1696     1.0  0.63754  0.10883  0.79860  1.0000
  S   S466      1.0  0.72048  0.29733  0.64343  1.0000
  H   H2923     1.0  0.64702  0.30972  0.71380  1.0000
  N   N120      1.0  0.58126  0.13541  0.78567  1.0000
  C   C1697     1.0  0.71545  0.27722  0.53338  1.0000
  Fe  Fe229     1.0  0.70053  0.27516  0.94614  1.0000
  H   H2924     1.0  0.67166  0.17644  0.92819  1.0000
  H   H2925     1.0  0.57220  0.10462  0.81343  1.0000
  H   H2926     1.0  0.58429  0.11346  0.82123  1.0000
  H   H2927     1.0  0.68597  0.31959  0.57390  1.0000
  H   H2928     1.0  0.61575  0.29175  0.67896  1.0000
  H   H2929     1.0  0.58261  0.09828  0.62995  1.0000
  Fe  Fe230     1.0  0.70512  0.27998  0.88128  1.0000
  H   H2930     1.0  0.56824  0.12336  0.82274  1.0000
  C   C1698     1.0  0.57323  0.12335  0.80111  1.0000
  C   C1699     1.0  0.57911  0.11306  0.80514  1.0000
  H   H2931     1.0  0.55378  0.11372  0.56302  1.0000
  H   H2932     1.0  0.74088  0.30741  0.57665  1.0000
  C   C1700     1.0  0.59666  0.19867  0.91598  1.0000
  C   C1701     1.0  0.62427  0.29105  0.68335  1.0000
  S   S467      1.0  0.71976  0.33002  0.62328  1.0000
  C   C1702     1.0  0.67420  0.32904  0.59467  1.0000
  C   C1703     1.0  0.65131  0.26904  0.49112  1.0000
  H   H2933     1.0  0.57764  0.13429  0.96185  1.0000
  Fe  Fe231     1.0  0.50591  0.09274  0.67614  1.0000
  H   H2934     1.0  0.65976  0.19587  0.97654  1.0000
  C   C1704     1.0  0.52989  0.16492  0.78516  1.0000
  Fe  Fe232     1.0  0.59691  0.24459  0.89898  1.0000
  C   C1705     1.0  0.57307  0.12593  0.95811  1.0000
  C   C1706     1.0  0.58279  0.09589  0.60947  1.0000
  S   S468      1.0  0.74423  0.28308  0.90838  1.0000
  C   C1707     1.0  0.59800  0.29737  0.89640  1.0000
  H   H2935     1.0  0.61390  0.31305  0.68753  1.0000
  H   H2936     1.0  0.66902  0.32138  0.64982  1.0000
  C   C1708     1.0  0.68477  0.25489  0.85365  1.0000
  S   S469      1.0  0.51316  0.11234  0.56894  1.0000
  H   H2937     1.0  0.59616  0.13026  0.56454  1.0000
  H   H2938     1.0  0.56845  0.28134  0.97512  1.0000
  H   H2939     1.0  0.72894  0.32143  0.53669  1.0000
  H   H2940     1.0  0.60696  0.30485  0.64303  1.0000
  H   H2941     1.0  0.64829  0.09000  0.80278  1.0000
  C   C1709     1.0  0.73116  0.31147  0.78126  1.0000
  C   C1710     1.0  0.60915  0.28796  0.48733  1.0000
  C   C1711     1.0  0.59160  0.29365  0.53298  1.0000
  H   H2942     1.0  0.62325  0.15255  0.52662  1.0000
  H   H2943     1.0  0.60354  0.32005  0.70528  1.0000
  C   C1712     1.0  0.56940  0.11040  0.57496  1.0000
  C   C1713     1.0  0.56158  0.11874  0.56809  1.0000
  C   C1714     1.0  0.58085  0.28606  0.88599  1.0000
  C   C1715     1.0  0.74476  0.29745  0.73941  1.0000
  H   H2944     1.0  0.58871  0.10339  0.56438  1.0000
  H   H2945     1.0  0.60971  0.32600  0.95649  1.0000
  H   H2946     1.0  0.57125  0.10642  0.55664  1.0000
  H   H2947     1.0  0.62638  0.22194  0.87747  1.0000
  C   C1716     1.0  0.63476  0.10020  0.75860  1.0000
  S   S470      1.0  0.53710  0.00950  0.66839  1.0000
  H   H2948     1.0  0.60651  0.29786  0.90064  1.0000
  N   N121      1.0  0.64310  0.10876  0.76840  1.0000
  C   C1717     1.0  0.51849  0.04668  0.71294  1.0000
  H   H2949     1.0  0.68958  0.23318  0.85713  1.0000
  C   C1718     1.0  0.50852  0.10368  0.49543  1.0000
  C   C1719     1.0  0.57742  0.28700  0.97202  1.0000
  C   C1720     1.0  0.51846  0.15534  0.80147  1.0000
  H   H2950     1.0  0.73305  0.30153  0.96910  1.0000
  H   H2951     1.0  0.50903  0.03198  0.63757  1.0000
  C   C1721     1.0  0.63276  0.33408  0.59110  1.0000
  H   H2952     1.0  0.61900  0.31165  0.97232  1.0000
  H   H2953     1.0  0.50209  0.15498  0.49960  1.0000
  C   C1722     1.0  0.59281  0.24202  0.97650  1.0000
  C   C1723     1.0  0.59709  0.28994  0.48554  1.0000
  H   H2954     1.0  0.67506  0.18047  0.48589  1.0000
  H   H2955     1.0  0.58766  0.29789  0.57405  1.0000
  C   C1724     1.0  0.65160  0.18602  0.49858  1.0000
  C   C1725     1.0  0.69459  0.33651  0.59948  1.0000
  H   H2956     1.0  0.74716  0.33540  0.51268  1.0000
  C   C1726     1.0  0.61115  0.33035  0.97374  1.0000
  H   H2957     1.0  0.50466  0.15341  0.72543  1.0000
  C   C1727     1.0  0.50630  0.16565  0.77744  1.0000
  H   H2958     1.0  0.67277  0.16496  0.95581  1.0000
  H   H2959     1.0  0.74911  0.31689  0.51031  1.0000
  H   H2960     1.0  0.51335  0.03761  0.72508  1.0000
  H   H2961     1.0  0.67499  0.33559  0.57459  1.0000
  H   H2962     1.0  0.64053  0.18440  0.98147  1.0000
  H   H2963     1.0  0.56929  0.30156  0.97216  1.0000
  H   H2964     1.0  0.50753  0.01776  0.65904  1.0000
  H   H2965     1.0  0.57930  0.12036  0.95524  1.0000
  N   N122      1.0  0.50891  0.15380  0.78590  1.0000
  H   H2966     1.0  0.65243  0.16594  0.96418  1.0000
  H   H2967     1.0  0.62394  0.20674  0.95653  1.0000
  H   H2968     1.0  0.67527  0.19734  0.97218  1.0000
  S   S471      1.0  0.62533  0.13527  0.49238  1.0000
  C   C1728     1.0  0.72436  0.33559  0.69863  1.0000
  N   N123      1.0  0.59275  0.29830  0.50152  1.0000
  H   H2969     1.0  0.64546  0.18920  0.51330  1.0000
  H   H2970     1.0  0.59465  0.26753  0.97487  1.0000
  C   C1729     1.0  0.58056  0.29827  0.49809  1.0000
  H   H2971     1.0  0.66653  0.27569  0.98113  1.0000
  H   H2972     1.0  0.68064  0.33550  0.67155  1.0000
  H   H2973     1.0  0.61867  0.32023  0.48293  1.0000
  C   C1730     1.0  0.60051  0.31071  0.48931  1.0000
  C   C1731     1.0  0.74890  0.31377  0.84447  1.0000
  C   C1732     1.0  0.61148  0.31399  0.50065  1.0000
  H   H2974     1.0  0.60638  0.18794  0.48556  1.0000
  H   H2975     1.0  0.74961  0.32624  0.60459  1.0000
  C   C1733     1.0  0.50459  0.14588  0.74284  1.0000
  H   H2976     1.0  0.61498  0.30660  0.50922  1.0000
  H   H2977     1.0  0.57757  0.19297  0.48364  1.0000
  H   H2978     1.0  0.50654  0.13132  0.82526  1.0000
  C   C1734     1.0  0.50211  0.14881  0.48556  1.0000
  H   H2979     1.0  0.60981  0.31898  0.51698  1.0000
  H   H2980     1.0  0.59537  0.31717  0.49369  1.0000
  H   H2981     1.0  0.50056  0.12844  0.79598  1.0000
  N   N124      1.0  0.62218  0.32871  0.98227  1.0000
  H   H2982     1.0  0.73602  0.46839  0.24876  1.0000
  C   C1735     1.0  0.66719  0.40164  0.25656  1.0000
  Fe  Fe233     1.0  0.54061  0.44834  0.42020  1.0000
  N   N125      1.0  0.55288  0.62656  0.27296  1.0000
  C   C1736     1.0  0.57827  0.40200  0.38640  1.0000
  H   H2983     1.0  0.60382  0.47340  0.39814  1.0000
  Fe  Fe234     1.0  0.72996  0.47948  0.42287  1.0000
  S   S472      1.0  0.71980  0.46047  0.43593  1.0000
  H   H2984     1.0  0.73619  0.45969  0.22376  1.0000
  Fe  Fe235     1.0  0.70731  0.48738  0.42278  1.0000
  S   S473      1.0  0.69588  0.46890  0.43602  1.0000
  S   S474      1.0  0.69942  0.50294  0.41204  1.0000
  Fe  Fe236     1.0  0.70689  0.46566  0.46694  1.0000
  C   C1737     1.0  0.55735  0.63696  0.24707  1.0000
  Fe  Fe237     1.0  0.70987  0.46536  0.40372  1.0000
  S   S475      1.0  0.70533  0.45224  0.37798  1.0000
  S   S476      1.0  0.71752  0.48445  0.45622  1.0000
  S   S477      1.0  0.72077  0.48404  0.38818  1.0000
  Fe  Fe238     1.0  0.64388  0.37584  0.12374  1.0000
  S   S478      1.0  0.62606  0.37937  0.12893  1.0000
  S   S479      1.0  0.66115  0.38962  0.11358  1.0000
  H   H2985     1.0  0.62931  0.37526  0.34491  1.0000
  S   S480      1.0  0.61534  0.35082  0.14498  1.0000
  Fe  Fe239     1.0  0.62208  0.36559  0.10472  1.0000
  S   S481      1.0  0.61026  0.36508  0.07402  1.0000
  Fe  Fe240     1.0  0.62100  0.36424  0.16834  1.0000
  S   S482      1.0  0.60943  0.36556  0.20923  1.0000
  S   S483      1.0  0.64044  0.36344  0.09588  1.0000
  S   S484      1.0  0.63903  0.36147  0.16431  1.0000
  Fe  Fe241     1.0  0.70868  0.45427  0.15537  1.0000
  S   S485      1.0  0.70417  0.43478  0.15970  1.0000
  S   S486      1.0  0.71708  0.46895  0.11498  1.0000
  Fe  Fe242     1.0  0.70157  0.45149  0.22029  1.0000
  S   S487      1.0  0.69613  0.43166  0.23025  1.0000
  S   S488      1.0  0.70331  0.46435  0.24824  1.0000
  Fe  Fe243     1.0  0.71253  0.43371  0.19642  1.0000
  S   S489      1.0  0.72617  0.42371  0.20065  1.0000
  Fe  Fe244     1.0  0.68803  0.43417  0.19271  1.0000
  S   S490      1.0  0.66972  0.42373  0.19433  1.0000
  S   S491      1.0  0.71848  0.45319  0.18907  1.0000
  S   S492      1.0  0.69197  0.45391  0.18577  1.0000
  Fe  Fe245     1.0  0.52248  0.59477  0.19044  1.0000
  S   S493      1.0  0.50990  0.60590  0.19839  1.0000
  H   H2986     1.0  0.52182  0.65021  0.29204  1.0000
  Fe  Fe246     1.0  0.54357  0.61328  0.18854  1.0000
  S   S494      1.0  0.53305  0.62647  0.19529  1.0000
  S   S495      1.0  0.56298  0.61756  0.18581  1.0000
  Fe  Fe247     1.0  0.52000  0.61147  0.22927  1.0000
  S   S496      1.0  0.51089  0.61051  0.27556  1.0000
  Fe  Fe248     1.0  0.52374  0.62006  0.16372  1.0000
  S   S497      1.0  0.51913  0.63310  0.12971  1.0000
  S   S498      1.0  0.53121  0.59876  0.22424  1.0000
  S   S499      1.0  0.53565  0.60843  0.15397  1.0000
  Fe  Fe249     1.0  0.53997  0.48941  0.11981  1.0000
  S   S500      1.0  0.54137  0.47143  0.11634  1.0000
  S   S501      1.0  0.55621  0.50432  0.10500  1.0000
  Fe  Fe250     1.0  0.57483  0.54106  0.19538  1.0000
  S   S502      1.0  0.58723  0.52984  0.20074  1.0000
  S   S503      1.0  0.55612  0.53256  0.19879  1.0000
  Fe  Fe251     1.0  0.59318  0.56352  0.18603  1.0000
  S   S504      1.0  0.60744  0.55393  0.18926  1.0000
  S   S505      1.0  0.59687  0.58309  0.18329  1.0000
  Fe  Fe252     1.0  0.59940  0.54332  0.16166  1.0000
  S   S506      1.0  0.60749  0.53410  0.12920  1.0000
  Fe  Fe253     1.0  0.59405  0.54127  0.22760  1.0000
  S   S507      1.0  0.59434  0.53298  0.27345  1.0000
  S   S508      1.0  0.58644  0.55410  0.15538  1.0000
  S   S509      1.0  0.58033  0.55135  0.22527  1.0000
  Fe  Fe254     1.0  0.60747  0.50981  0.44477  1.0000
  S   S510      1.0  0.61026  0.52943  0.43366  1.0000
  S   S511      1.0  0.58893  0.49864  0.45526  1.0000
  Fe  Fe255     1.0  0.63341  0.51128  0.43950  1.0000
  S   S512      1.0  0.63816  0.53113  0.42748  1.0000
  S   S513      1.0  0.64453  0.49847  0.44961  1.0000
  Fe  Fe256     1.0  0.62227  0.52924  0.46319  1.0000
  H   H2987     1.0  0.53848  0.54569  0.19125  1.0000
  Fe  Fe257     1.0  0.62560  0.52948  0.39911  1.0000
  S   S514      1.0  0.62960  0.54031  0.35280  1.0000
  H   H2988     1.0  0.58787  0.39529  0.43574  1.0000
  S   S515      1.0  0.62213  0.50980  0.40864  1.0000
  H   H2989     1.0  0.60393  0.55916  0.26318  1.0000
  H   H2990     1.0  0.58729  0.40710  0.37768  1.0000
  H   H2991     1.0  0.68125  0.52499  0.47266  1.0000
  H   H2992     1.0  0.55798  0.64853  0.28908  1.0000
  H   H2993     1.0  0.55161  0.47033  0.05614  1.0000
  H   H2994     1.0  0.52620  0.53961  0.16647  1.0000
  Fe  Fe258     1.0  0.54572  0.44979  0.35438  1.0000
  H   H2995     1.0  0.54404  0.50565  0.05478  1.0000
  H   H2996     1.0  0.56190  0.48730  0.35666  1.0000
  H   H2997     1.0  0.65215  0.38721  0.21660  1.0000
  S   S516      1.0  0.56046  0.44088  0.35593  1.0000
  H   H2998     1.0  0.67808  0.34333  0.13791  1.0000
  H   H2999     1.0  0.56224  0.34164  0.30835  1.0000
  C   C1738     1.0  0.59186  0.39320  0.45390  1.0000
  H   H3000     1.0  0.55030  0.66159  0.03367  1.0000
  S   S517      1.0  0.51845  0.64676  0.35285  1.0000
  Fe  Fe259     1.0  0.50922  0.64070  0.46315  1.0000
  H   H3001     1.0  0.50853  0.60721  0.33578  1.0000
  H   H3002     1.0  0.65022  0.37171  0.22710  1.0000
  H   H3003     1.0  0.55753  0.62364  0.10620  1.0000
  C   C1739     1.0  0.58765  0.48838  0.43456  1.0000
  C   C1740     1.0  0.59738  0.48460  0.42308  1.0000
  C   C1741     1.0  0.59624  0.47624  0.40708  1.0000
  C   C1742     1.0  0.58532  0.47144  0.40290  1.0000
  C   C1743     1.0  0.57553  0.47506  0.41479  1.0000
  C   C1744     1.0  0.57672  0.48359  0.43037  1.0000
  H   H3004     1.0  0.60574  0.48787  0.42713  1.0000
  N   N126      1.0  0.60955  0.57742  0.26382  1.0000
  H   H3005     1.0  0.56705  0.47136  0.41191  1.0000
  H   H3006     1.0  0.56913  0.48643  0.43925  1.0000
  C   C1745     1.0  0.60943  0.53690  0.09141  1.0000
  C   C1746     1.0  0.61149  0.54827  0.07392  1.0000
  C   C1747     1.0  0.66464  0.53427  0.01463  1.0000
  S   S518      1.0  0.58421  0.46125  0.38201  1.0000
  C   C1748     1.0  0.61257  0.52955  0.04829  1.0000
  C   C1749     1.0  0.60994  0.52757  0.07834  1.0000
  H   H3007     1.0  0.61125  0.55557  0.08351  1.0000
  H   H3008     1.0  0.62988  0.34759  0.27622  1.0000
  H   H3009     1.0  0.53748  0.47547  0.26723  1.0000
  H   H3010     1.0  0.60842  0.51874  0.09154  1.0000
  C   C1750     1.0  0.60440  0.53545  0.29470  1.0000
  C   C1751     1.0  0.61621  0.54155  0.28297  1.0000
  C   C1752     1.0  0.62384  0.54293  0.30096  1.0000
  C   C1753     1.0  0.61980  0.53813  0.33075  1.0000
  C   C1754     1.0  0.60800  0.53206  0.34238  1.0000
  C   C1755     1.0  0.60035  0.53086  0.32448  1.0000
  H   H3011     1.0  0.61949  0.54504  0.26008  1.0000
  H   H3012     1.0  0.63296  0.54763  0.29174  1.0000
  H   H3013     1.0  0.60473  0.52842  0.36525  1.0000
  H   H3014     1.0  0.59120  0.52634  0.33388  1.0000
  C   C1756     1.0  0.70903  0.46066  0.03395  1.0000
  H   H3015     1.0  0.62387  0.39548  0.26451  1.0000
  C   C1757     1.0  0.58849  0.56327  0.28416  1.0000
  H   H3016     1.0  0.67184  0.53071  0.05140  1.0000
  H   H3017     1.0  0.59911  0.50854  0.28706  1.0000
  C   C1758     1.0  0.56630  0.49682  0.35114  1.0000
  C   C1759     1.0  0.55494  0.64034  0.30663  1.0000
  C   C1760     1.0  0.53204  0.44927  0.04208  1.0000
  S   S519      1.0  0.61984  0.35124  0.33058  1.0000
  H   H3018     1.0  0.74133  0.47655  0.12571  1.0000
  C   C1761     1.0  0.55588  0.51342  0.12840  1.0000
  C   C1762     1.0  0.54531  0.51304  0.14709  1.0000
  C   C1763     1.0  0.54534  0.51909  0.16851  1.0000
  C   C1764     1.0  0.55594  0.52553  0.17113  1.0000
  C   C1765     1.0  0.56644  0.52635  0.15159  1.0000
  C   C1766     1.0  0.56640  0.52038  0.13010  1.0000
  H   H3019     1.0  0.53710  0.50805  0.14512  1.0000
  H   H3020     1.0  0.53718  0.51859  0.18329  1.0000
  H   H3021     1.0  0.57467  0.53133  0.15330  1.0000
  H   H3022     1.0  0.57460  0.52079  0.11553  1.0000
  C   C1767     1.0  0.51367  0.62080  0.29626  1.0000
  C   C1768     1.0  0.51137  0.61660  0.32609  1.0000
  C   C1769     1.0  0.51259  0.62443  0.34365  1.0000
  C   C1770     1.0  0.51631  0.63661  0.33156  1.0000
  C   C1771     1.0  0.51889  0.64081  0.30164  1.0000
  C   C1772     1.0  0.51749  0.63297  0.28409  1.0000
  H   H3023     1.0  0.63502  0.37606  0.25964  1.0000
  H   H3024     1.0  0.65630  0.39738  0.29832  1.0000
  C   C1773     1.0  0.65056  0.52070  0.99810  1.0000
  H   H3025     1.0  0.74904  0.48589  0.21198  1.0000
  C   C1774     1.0  0.51576  0.63111  0.09725  1.0000
  C   C1775     1.0  0.57790  0.37375  0.46897  1.0000
  C   C1776     1.0  0.63567  0.38658  0.30155  1.0000
  H   H3026     1.0  0.51070  0.62105  0.36657  1.0000
  H   H3027     1.0  0.58471  0.36918  0.46222  1.0000
  S   S520      1.0  0.61822  0.50957  0.47673  1.0000
  H   H3028     1.0  0.63301  0.37110  0.03239  1.0000
  H   H3029     1.0  0.50406  0.55737  0.16989  1.0000
  H   H3030     1.0  0.63341  0.33969  0.03494  1.0000
  H   H3031     1.0  0.58476  0.51954  0.02075  1.0000
  C   C1777     1.0  0.57161  0.60720  0.18585  1.0000
  C   C1778     1.0  0.56709  0.59519  0.18787  1.0000
  C   C1779     1.0  0.57463  0.58752  0.18732  1.0000
  C   C1780     1.0  0.58666  0.59187  0.18476  1.0000
  C   C1781     1.0  0.59099  0.60379  0.18322  1.0000
  C   C1782     1.0  0.58356  0.61136  0.18377  1.0000
  H   H3032     1.0  0.55786  0.59187  0.18974  1.0000
  H   H3033     1.0  0.57122  0.57831  0.18868  1.0000
  H   H3034     1.0  0.60023  0.60726  0.18118  1.0000
  H   H3035     1.0  0.58716  0.62058  0.18217  1.0000
  C   C1783     1.0  0.50328  0.46167  0.22344  1.0000
  H   H3036     1.0  0.56548  0.65667  0.05034  1.0000
  H   H3037     1.0  0.51446  0.49074  0.24851  1.0000
  C   C1784     1.0  0.73417  0.42863  0.22372  1.0000
  H   H3038     1.0  0.62299  0.56787  0.25846  1.0000
  C   C1785     1.0  0.72942  0.43439  0.24331  1.0000
  H   H3039     1.0  0.57585  0.47759  0.34643  1.0000
  H   H3040     1.0  0.72060  0.43538  0.24514  1.0000
  C   C1786     1.0  0.66339  0.39818  0.13805  1.0000
  C   C1787     1.0  0.67488  0.40358  0.13812  1.0000
  C   C1788     1.0  0.67694  0.41117  0.15584  1.0000
  C   C1789     1.0  0.66753  0.41367  0.17310  1.0000
  C   C1790     1.0  0.65604  0.40830  0.17290  1.0000
  C   C1791     1.0  0.65396  0.40045  0.15581  1.0000
  H   H3041     1.0  0.68222  0.40189  0.12438  1.0000
  H   H3042     1.0  0.68583  0.41520  0.15576  1.0000
  H   H3043     1.0  0.64870  0.41038  0.18562  1.0000
  H   H3044     1.0  0.64508  0.39646  0.15566  1.0000
  C   C1792     1.0  0.60961  0.57754  0.29425  1.0000
  C   C1793     1.0  0.70921  0.45161  0.05665  1.0000
  C   C1794     1.0  0.71151  0.45411  0.08170  1.0000
  C   C1795     1.0  0.71378  0.46570  0.08407  1.0000
  C   C1796     1.0  0.71396  0.47483  0.06104  1.0000
  C   C1797     1.0  0.71150  0.47231  0.03603  1.0000
  H   H3045     1.0  0.70769  0.44264  0.05483  1.0000
  H   H3046     1.0  0.71168  0.44707  0.09902  1.0000
  H   H3047     1.0  0.71579  0.48383  0.06276  1.0000
  H   H3048     1.0  0.61643  0.58530  0.29462  1.0000
  C   C1798     1.0  0.70612  0.45574  0.34100  1.0000
  C   C1799     1.0  0.70965  0.46738  0.32432  1.0000
  C   C1800     1.0  0.70905  0.46987  0.29565  1.0000
  C   C1801     1.0  0.70514  0.46073  0.28328  1.0000
  C   C1802     1.0  0.70212  0.44907  0.29961  1.0000
  C   C1803     1.0  0.70255  0.44660  0.32840  1.0000
  H   H3049     1.0  0.71261  0.47446  0.33368  1.0000
  H   H3050     1.0  0.71143  0.47892  0.28310  1.0000
  H   H3051     1.0  0.69912  0.44197  0.29031  1.0000
  H   H3052     1.0  0.69988  0.43756  0.34111  1.0000
  C   C1804     1.0  0.68418  0.50172  0.42290  1.0000
  C   C1805     1.0  0.67648  0.49167  0.44259  1.0000
  C   C1806     1.0  0.66438  0.49083  0.45026  1.0000
  C   C1807     1.0  0.65981  0.50000  0.43838  1.0000
  C   C1808     1.0  0.66747  0.51005  0.41859  1.0000
  C   C1809     1.0  0.67962  0.51093  0.41106  1.0000
  H   H3053     1.0  0.67986  0.48456  0.45204  1.0000
  H   H3054     1.0  0.74565  0.46785  0.29329  1.0000
  H   H3055     1.0  0.66406  0.51712  0.40908  1.0000
  H   H3056     1.0  0.68551  0.51871  0.39568  1.0000
  C   C1810     1.0  0.61699  0.35531  0.29684  1.0000
  C   C1811     1.0  0.62335  0.35239  0.27337  1.0000
  C   C1812     1.0  0.62132  0.35569  0.24617  1.0000
  C   C1813     1.0  0.61285  0.36186  0.24239  1.0000
  C   C1814     1.0  0.60651  0.36476  0.26588  1.0000
  C   C1815     1.0  0.60860  0.36155  0.29295  1.0000
  H   H3057     1.0  0.62620  0.35334  0.22826  1.0000
  H   H3058     1.0  0.59994  0.36953  0.26309  1.0000
  H   H3059     1.0  0.60379  0.36403  0.31071  1.0000
  C   C1816     1.0  0.73710  0.46881  0.22571  1.0000
  H   H3060     1.0  0.56104  0.45575  0.46283  1.0000
  C   C1817     1.0  0.60580  0.36030  0.02474  1.0000
  C   C1818     1.0  0.61452  0.36420  0.03820  1.0000
  C   C1819     1.0  0.62622  0.36804  0.02232  1.0000
  H   H3061     1.0  0.58653  0.49265  0.36120  1.0000
  H   H3062     1.0  0.65873  0.51896  0.98654  1.0000
  H   H3063     1.0  0.59672  0.35726  0.03695  1.0000
  S   S521      1.0  0.54176  0.46058  0.31483  1.0000
  H   H3064     1.0  0.55215  0.58114  0.10585  1.0000
  H   H3065     1.0  0.68154  0.43829  0.12907  1.0000
  C   C1820     1.0  0.64399  0.37883  0.26248  1.0000
  C   C1821     1.0  0.54380  0.61739  0.26695  1.0000
  C   C1822     1.0  0.50855  0.58698  0.14503  1.0000
  H   H3066     1.0  0.64106  0.52560  0.04848  1.0000
  H   H3067     1.0  0.73634  0.46945  0.33918  1.0000
  H   H3068     1.0  0.57906  0.65888  0.00431  1.0000
  H   H3069     1.0  0.58334  0.51034  0.26392  1.0000
  S   S522      1.0  0.51284  0.46300  0.14244  1.0000
  C   C1823     1.0  0.51272  0.62975  0.04235  1.0000
  S   S523      1.0  0.50884  0.62816  0.43480  1.0000
  C   C1824     1.0  0.53895  0.45783  0.28247  1.0000
  S   S524      1.0  0.53316  0.43678  0.39389  1.0000
  H   H3070     1.0  0.74410  0.48359  0.47682  1.0000
  C   C1825     1.0  0.66008  0.52904  0.46797  1.0000
  H   H3071     1.0  0.54628  0.49243  0.99764  1.0000
  C   C1826     1.0  0.55625  0.48948  0.04223  1.0000
  H   H3072     1.0  0.60752  0.49573  0.35284  1.0000
  H   H3073     1.0  0.57307  0.62334  0.23473  1.0000
  H   H3074     1.0  0.50637  0.46076  0.29868  1.0000
  C   C1827     1.0  0.67026  0.34168  0.12943  1.0000
  H   H3075     1.0  0.53476  0.60655  0.31098  1.0000
  H   H3076     1.0  0.58418  0.46631  0.47612  1.0000
  H   H3077     1.0  0.60859  0.38878  0.45701  1.0000
  C   C1828     1.0  0.65260  0.37996  0.23389  1.0000
  C   C1829     1.0  0.56158  0.51133  0.02528  1.0000
  C   C1830     1.0  0.60342  0.49347  0.33582  1.0000
  H   H3078     1.0  0.59402  0.50674  0.33815  1.0000
  H   H3079     1.0  0.57006  0.62886  0.28116  1.0000
  C   C1831     1.0  0.57511  0.50092  0.32146  1.0000
  H   H3080     1.0  0.60135  0.57875  0.30634  1.0000
  H   H3081     1.0  0.57884  0.51061  0.31709  1.0000
  C   C1832     1.0  0.74181  0.46483  0.01771  1.0000
  H   H3082     1.0  0.67557  0.40179  0.26273  1.0000
  H   H3083     1.0  0.55276  0.65138  0.22101  1.0000
  H   H3084     1.0  0.73900  0.49112  0.03373  1.0000
  C   C1833     1.0  0.53719  0.46704  0.26242  1.0000
  C   C1834     1.0  0.53511  0.46547  0.23623  1.0000
  H   H3085     1.0  0.56735  0.63814  0.09915  1.0000
  H   H3086     1.0  0.63112  0.40615  0.23152  1.0000
  C   C1835     1.0  0.56396  0.38316  0.40486  1.0000
  H   H3087     1.0  0.73246  0.44363  0.27520  1.0000
  Fe  Fe260     1.0  0.51356  0.48173  0.14475  1.0000
  H   H3088     1.0  0.67584  0.53203  0.43288  1.0000
  S   S525      1.0  0.58168  0.34852  0.43691  1.0000
  C   C1836     1.0  0.74917  0.47705  0.20849  1.0000
  H   H3089     1.0  0.64027  0.37062  0.32318  1.0000
  Fe  Fe261     1.0  0.63388  0.34942  0.13717  1.0000
  C   C1837     1.0  0.57567  0.38962  0.39363  1.0000
  H   H3090     1.0  0.56034  0.61493  0.29934  1.0000
  H   H3091     1.0  0.54472  0.62254  0.31839  1.0000
  H   H3092     1.0  0.51590  0.47618  0.26020  1.0000
  H   H3093     1.0  0.64018  0.34562  0.99783  1.0000
  H   H3094     1.0  0.65019  0.40275  0.23333  1.0000
  H   H3095     1.0  0.54138  0.63309  0.09631  1.0000
  H   H3096     1.0  0.56534  0.64315  0.24853  1.0000
  S   S526      1.0  0.55471  0.43908  0.42603  1.0000
  H   H3097     1.0  0.54898  0.60865  0.06704  1.0000
  S   S527      1.0  0.51063  0.65630  0.42687  1.0000
  H   H3098     1.0  0.57218  0.64465  0.00173  1.0000
  C   C1838     1.0  0.51151  0.63968  0.05215  1.0000
  H   H3099     1.0  0.73845  0.47399  0.06258  1.0000
  H   H3100     1.0  0.57041  0.49890  0.36823  1.0000
  C   C1839     1.0  0.61518  0.54100  0.03076  1.0000
  C   C1840     1.0  0.55499  0.38907  0.40890  1.0000
  H   H3101     1.0  0.63057  0.39107  0.23340  1.0000
  H   H3102     1.0  0.53605  0.62072  0.26441  1.0000
  H   H3103     1.0  0.74886  0.45535  0.32989  1.0000
  C   C1841     1.0  0.57672  0.50059  0.02632  1.0000
  C   C1842     1.0  0.59084  0.54244  0.48174  1.0000
  H   H3104     1.0  0.56308  0.60898  0.25203  1.0000
  H   H3105     1.0  0.66782  0.54356  0.01545  1.0000
  C   C1843     1.0  0.53905  0.60552  0.28993  1.0000
  H   H3106     1.0  0.56605  0.51882  0.00611  1.0000
  H   H3107     1.0  0.67929  0.45364  0.00787  1.0000
  C   C1844     1.0  0.55806  0.63300  0.10585  1.0000
  S   S528      1.0  0.62038  0.54435  0.99272  1.0000
  H   H3108     1.0  0.64495  0.37117  0.27792  1.0000
  C   C1845     1.0  0.64333  0.39987  0.25376  1.0000
  H   H3109     1.0  0.56478  0.51392  0.04328  1.0000
  C   C1846     1.0  0.64430  0.54436  0.03827  1.0000
  C   C1847     1.0  0.53538  0.44230  0.02358  1.0000
  C   C1848     1.0  0.54852  0.64420  0.24084  1.0000
  C   C1849     1.0  0.63765  0.37849  0.32782  1.0000
  H   H3110     1.0  0.59169  0.37488  0.00229  1.0000
  S   S529      1.0  0.51270  0.62911  0.00669  1.0000
  H   H3111     1.0  0.51328  0.59524  0.14736  1.0000
  H   H3112     1.0  0.53218  0.59972  0.28350  1.0000
  C   C1850     1.0  0.54585  0.61677  0.06303  1.0000
  H   H3113     1.0  0.56701  0.47654  0.04275  1.0000
  H   H3114     1.0  0.63680  0.54318  0.05682  1.0000
  H   H3115     1.0  0.63476  0.50951  0.03076  1.0000
  C   C1851     1.0  0.50950  0.57630  0.16088  1.0000
  N   N127      1.0  0.67470  0.47678  0.36974  1.0000
  C   C1852     1.0  0.67023  0.48762  0.37077  1.0000
  C   C1853     1.0  0.68781  0.48051  0.36554  1.0000
  C   C1854     1.0  0.66924  0.46794  0.39833  1.0000
  C   C1855     1.0  0.67120  0.47202  0.34588  1.0000
  C   C1856     1.0  0.65679  0.48569  0.37927  1.0000
  C   C1857     1.0  0.69464  0.49031  0.33830  1.0000
  C   C1858     1.0  0.67272  0.45618  0.40249  1.0000
  C   C1859     1.0  0.67834  0.46403  0.33354  1.0000
  H   H3116     1.0  0.67372  0.49213  0.38590  1.0000
  H   H3117     1.0  0.67341  0.49422  0.34965  1.0000
  H   H3118     1.0  0.69190  0.47307  0.36531  1.0000
  H   H3119     1.0  0.68989  0.48372  0.38400  1.0000
  H   H3120     1.0  0.67125  0.47193  0.41581  1.0000
  H   H3121     1.0  0.65953  0.46538  0.40265  1.0000
  H   H3122     1.0  0.66179  0.46702  0.35276  1.0000
  H   H3123     1.0  0.67191  0.47943  0.32733  1.0000
  H   H3124     1.0  0.65302  0.48153  0.40248  1.0000
  H   H3125     1.0  0.65472  0.49440  0.37528  1.0000
  H   H3126     1.0  0.65234  0.48048  0.36664  1.0000
  H   H3127     1.0  0.70419  0.49131  0.33578  1.0000
  H   H3128     1.0  0.69256  0.48825  0.31879  1.0000
  H   H3129     1.0  0.69309  0.49897  0.33997  1.0000
  H   H3130     1.0  0.66919  0.45077  0.38899  1.0000
  H   H3131     1.0  0.66874  0.45099  0.42500  1.0000
  H   H3132     1.0  0.68229  0.45729  0.39885  1.0000
  H   H3133     1.0  0.67229  0.45665  0.32929  1.0000
  H   H3134     1.0  0.68331  0.45996  0.34736  1.0000
  H   H3135     1.0  0.68441  0.46892  0.31239  1.0000
  C   C1860     1.0  0.51497  0.62031  0.06069  1.0000
  C   C1861     1.0  0.54526  0.64213  0.04156  1.0000
  H   H3136     1.0  0.55669  0.55760  0.20036  1.0000
  C   C1862     1.0  0.62911  0.36839  0.99303  1.0000
  H   H3137     1.0  0.66610  0.41074  0.25367  1.0000
  H   H3138     1.0  0.51583  0.61252  0.05349  1.0000
  H   H3139     1.0  0.54594  0.60080  0.29212  1.0000
  C   C1863     1.0  0.56305  0.62180  0.27868  1.0000
  H   H3140     1.0  0.64425  0.38329  0.33686  1.0000
  H   H3141     1.0  0.73491  0.47689  0.17234  1.0000
  H   H3142     1.0  0.71137  0.47934  0.01858  1.0000
  C   C1864     1.0  0.74392  0.48279  0.16325  1.0000
  C   C1865     1.0  0.74377  0.33793  0.17505  1.0000
  S   S530      1.0  0.60808  0.36374  0.39779  1.0000
  H   H3143     1.0  0.53392  0.47267  0.22101  1.0000
  H   H3144     1.0  0.56180  0.37364  0.41052  1.0000
  H   H3145     1.0  0.54595  0.38401  0.41763  1.0000
  H   H3146     1.0  0.54705  0.48895  0.04139  1.0000
  H   H3147     1.0  0.62705  0.38210  0.29888  1.0000
  H   H3148     1.0  0.64831  0.50835  0.04021  1.0000
  H   H3149     1.0  0.51915  0.63637  0.26124  1.0000
  H   H3150     1.0  0.66823  0.39945  0.23570  1.0000
  C   C1866     1.0  0.51640  0.62093  0.08804  1.0000
  H   H3151     1.0  0.51233  0.46320  0.22593  1.0000
  H   H3152     1.0  0.54043  0.61670  0.08399  1.0000
  N   N128      1.0  0.58302  0.38424  0.47899  1.0000
  C   C1867     1.0  0.54730  0.63005  0.29904  1.0000
  H   H3153     1.0  0.59508  0.34168  0.24428  1.0000
  N   N129      1.0  0.66802  0.43287  0.07447  1.0000
  C   C1868     1.0  0.65511  0.43092  0.07575  1.0000
  C   C1869     1.0  0.67434  0.44445  0.05289  1.0000
  C   C1870     1.0  0.66943  0.43358  0.10377  1.0000
  C   C1871     1.0  0.67186  0.42254  0.06632  1.0000
  C   C1872     1.0  0.64677  0.42022  0.09927  1.0000
  H   H3154     1.0  0.60189  0.35754  0.98544  1.0000
  C   C1873     1.0  0.68172  0.43939  0.10611  1.0000
  C   C1874     1.0  0.68510  0.42339  0.05854  1.0000
  H   H3155     1.0  0.65207  0.43884  0.07896  1.0000
  H   H3156     1.0  0.65337  0.42959  0.05525  1.0000
  H   H3157     1.0  0.68377  0.44701  0.05221  1.0000
  H   H3158     1.0  0.67089  0.45173  0.05922  1.0000
  H   H3159     1.0  0.66354  0.43861  0.11324  1.0000
  H   H3160     1.0  0.66667  0.42465  0.11856  1.0000
  H   H3161     1.0  0.66792  0.41445  0.08406  1.0000
  H   H3162     1.0  0.66833  0.42023  0.04849  1.0000
  H   H3163     1.0  0.63763  0.41959  0.09753  1.0000
  H   H3164     1.0  0.64868  0.41176  0.09692  1.0000
  H   H3165     1.0  0.64687  0.42114  0.12108  1.0000
  H   H3166     1.0  0.65242  0.54675  0.04530  1.0000
  C   C1875     1.0  0.55651  0.62763  0.05047  1.0000
  H   H3167     1.0  0.67183  0.41888  0.48196  1.0000
  H   H3168     1.0  0.68850  0.43529  0.09712  1.0000
  H   H3169     1.0  0.50840  0.59973  0.46196  1.0000
  C   C1876     1.0  0.74536  0.45968  0.07807  1.0000
  H   H3170     1.0  0.68802  0.41996  0.07775  1.0000
  H   H3171     1.0  0.69060  0.43230  0.04704  1.0000
  H   H3172     1.0  0.68690  0.41792  0.04339  1.0000
  N   N130      1.0  0.54432  0.56155  0.15614  1.0000
  C   C1877     1.0  0.53989  0.55540  0.18764  1.0000
  C   C1878     1.0  0.53440  0.55826  0.14257  1.0000
  C   C1879     1.0  0.54767  0.57469  0.15313  1.0000
  C   C1880     1.0  0.55484  0.55746  0.14409  1.0000
  S   S531      1.0  0.70555  0.45701  0.00361  1.0000
  H   H3173     1.0  0.59490  0.51088  0.01456  1.0000
  C   C1881     1.0  0.54716  0.58287  0.12520  1.0000
  H   H3174     1.0  0.65394  0.53452  0.47342  1.0000
  C   C1882     1.0  0.54252  0.65400  0.04331  1.0000
  H   H3175     1.0  0.61246  0.36857  0.46492  1.0000
  H   H3176     1.0  0.53662  0.56293  0.11966  1.0000
  H   H3177     1.0  0.52669  0.56111  0.15256  1.0000
  H   H3178     1.0  0.50669  0.44752  0.20436  1.0000
  H   H3179     1.0  0.55667  0.57756  0.15592  1.0000
  H   H3180     1.0  0.74918  0.42269  0.20681  1.0000
  H   H3181     1.0  0.56204  0.56006  0.15424  1.0000
  C   C1883     1.0  0.55065  0.63826  0.08715  1.0000
  H   H3182     1.0  0.74897  0.34678  0.17199  1.0000
  H   H3183     1.0  0.65851  0.48303  0.46564  1.0000
  H   H3184     1.0  0.74076  0.46983  0.37191  1.0000
  H   H3185     1.0  0.52309  0.54385  0.13282  1.0000
  H   H3186     1.0  0.56455  0.65622  0.99992  1.0000
  H   H3187     1.0  0.55102  0.59214  0.12493  1.0000
  H   H3188     1.0  0.53793  0.58223  0.12422  1.0000
  H   H3189     1.0  0.73250  0.45646  0.36765  1.0000
  H   H3190     1.0  0.60413  0.38620  0.02599  1.0000
  H   H3191     1.0  0.55397  0.56246  0.09887  1.0000
  H   H3192     1.0  0.50979  0.64702  0.03836  1.0000
  C   C1884     1.0  0.53850  0.44682  0.99368  1.0000
  H   H3193     1.0  0.57315  0.64559  0.05169  1.0000
  C   C1885     1.0  0.59179  0.49720  0.33899  1.0000
  Fe  Fe262     1.0  0.50850  0.64321  0.39978  1.0000
  C   C1886     1.0  0.50333  0.56564  0.15770  1.0000
  H   H3194     1.0  0.56658  0.46812  0.31819  1.0000
  H   H3195     1.0  0.58024  0.49343  0.01960  1.0000
  C   C1887     1.0  0.63149  0.39783  0.24569  1.0000
  H   H3196     1.0  0.54956  0.64242  0.32513  1.0000
  H   H3197     1.0  0.59464  0.40174  0.45921  1.0000
  H   H3198     1.0  0.59398  0.59154  0.28218  1.0000
  H   H3199     1.0  0.58598  0.38614  0.01367  1.0000
  H   H3200     1.0  0.59439  0.50579  0.24253  1.0000
  N   N131      1.0  0.57297  0.49115  0.18152  1.0000
  C   C1888     1.0  0.58177  0.50226  0.18069  1.0000
  C   C1889     1.0  0.56093  0.49267  0.19303  1.0000
  C   C1890     1.0  0.57431  0.49021  0.15114  1.0000
  C   C1891     1.0  0.57557  0.48077  0.19982  1.0000
  C   C1892     1.0  0.59471  0.50325  0.16657  1.0000
  C   C1893     1.0  0.55867  0.49521  0.22272  1.0000
  C   C1894     1.0  0.56564  0.47996  0.14619  1.0000
  C   C1895     1.0  0.56542  0.46945  0.21292  1.0000
  H   H3201     1.0  0.57957  0.51021  0.16929  1.0000
  H   H3202     1.0  0.58156  0.50325  0.20263  1.0000
  H   H3203     1.0  0.55387  0.48493  0.19436  1.0000
  H   H3204     1.0  0.55923  0.50002  0.17811  1.0000
  H   H3205     1.0  0.57361  0.49849  0.13732  1.0000
  H   H3206     1.0  0.58315  0.48918  0.14198  1.0000
  H   H3207     1.0  0.58306  0.47825  0.18753  1.0000
  H   H3208     1.0  0.57841  0.48328  0.21830  1.0000
  H   H3209     1.0  0.59644  0.50531  0.14294  1.0000
  H   H3210     1.0  0.60037  0.51074  0.17143  1.0000
  H   H3211     1.0  0.59754  0.49527  0.17467  1.0000
  H   H3212     1.0  0.56113  0.48887  0.23863  1.0000
  H   H3213     1.0  0.56328  0.50438  0.22155  1.0000
  H   H3214     1.0  0.54917  0.49445  0.23058  1.0000
  H   H3215     1.0  0.56711  0.48100  0.12279  1.0000
  H   H3216     1.0  0.55636  0.47993  0.15425  1.0000
  H   H3217     1.0  0.56721  0.47134  0.15512  1.0000
  H   H3218     1.0  0.56902  0.46162  0.21325  1.0000
  H   H3219     1.0  0.55850  0.46835  0.20144  1.0000
  H   H3220     1.0  0.56143  0.46880  0.23568  1.0000
  C   C1896     1.0  0.62158  0.57661  0.24938  1.0000
  C   C1897     1.0  0.60783  0.58897  0.24870  1.0000
  C   C1898     1.0  0.60048  0.56713  0.26160  1.0000
  C   C1899     1.0  0.62427  0.57823  0.21674  1.0000
  C   C1900     1.0  0.59592  0.59150  0.25936  1.0000
  H   H3221     1.0  0.61484  0.59648  0.24948  1.0000
  H   H3222     1.0  0.60862  0.58953  0.22566  1.0000
  H   H3223     1.0  0.59872  0.56893  0.24010  1.0000
  H   H3224     1.0  0.61690  0.57336  0.21016  1.0000
  H   H3225     1.0  0.62653  0.58769  0.20519  1.0000
  H   H3226     1.0  0.63202  0.57489  0.20961  1.0000
  H   H3227     1.0  0.59609  0.60041  0.24700  1.0000
  H   H3228     1.0  0.58872  0.58527  0.25505  1.0000
  H   H3229     1.0  0.58136  0.56125  0.27346  1.0000
  H   H3230     1.0  0.58636  0.56983  0.29563  1.0000
  H   H3231     1.0  0.60732  0.39928  0.99811  1.0000
  H   H3232     1.0  0.57614  0.49908  0.04964  1.0000
  C   C1901     1.0  0.61447  0.55030  0.04385  1.0000
  N   N132      1.0  0.64518  0.38959  0.27403  1.0000
  H   H3233     1.0  0.64378  0.55173  0.02129  1.0000
  N   N133      1.0  0.65324  0.53229  0.00602  1.0000
  C   C1902     1.0  0.51275  0.48183  0.24455  1.0000
  H   H3234     1.0  0.58587  0.34352  0.29282  1.0000
  H   H3235     1.0  0.63498  0.53132  0.02113  1.0000
  H   H3236     1.0  0.55632  0.49007  0.06433  1.0000
  H   H3237     1.0  0.54761  0.52016  0.03233  1.0000
  C   C1903     1.0  0.65697  0.39293  0.28060  1.0000
  N   N134      1.0  0.56475  0.50017  0.02087  1.0000
  H   H3238     1.0  0.56675  0.57083  0.10661  1.0000
  H   H3239     1.0  0.64421  0.40769  0.26283  1.0000
  H   H3240     1.0  0.72977  0.47211  0.21969  1.0000
  H   H3241     1.0  0.57147  0.41743  0.38475  1.0000
  C   C1904     1.0  0.54787  0.55907  0.20684  1.0000
  H   H3242     1.0  0.54066  0.63882  0.23700  1.0000
  C   C1905     1.0  0.60306  0.38961  0.44176  1.0000
  Fe  Fe263     1.0  0.60032  0.34786  0.43514  1.0000
  H   H3243     1.0  0.66170  0.38103  0.23598  1.0000
  H   H3244     1.0  0.62859  0.58325  0.25336  1.0000
  S   S532      1.0  0.52882  0.48329  0.16467  1.0000
  H   H3245     1.0  0.54574  0.64844  0.25804  1.0000
  H   H3246     1.0  0.58773  0.55487  0.29979  1.0000
  C   C1906     1.0  0.64307  0.53280  0.02879  1.0000
  H   H3247     1.0  0.66322  0.34382  0.14424  1.0000
  C   C1907     1.0  0.58739  0.50288  0.26286  1.0000
  H   H3248     1.0  0.57730  0.47606  0.28538  1.0000
  H   H3249     1.0  0.67167  0.51184  0.47278  1.0000
  H   H3250     1.0  0.65540  0.52250  0.45831  1.0000
  C   C1908     1.0  0.51308  0.64037  0.07935  1.0000
  H   H3251     1.0  0.56589  0.48224  0.30170  1.0000
  H   H3252     1.0  0.61300  0.52227  0.03869  1.0000
  H   H3253     1.0  0.54721  0.61550  0.24617  1.0000
  H   H3254     1.0  0.68433  0.44903  0.09620  1.0000
  C   C1909     1.0  0.56908  0.61661  0.25538  1.0000
  H   H3255     1.0  0.74308  0.46006  0.17850  1.0000
  C   C1910     1.0  0.55760  0.40147  0.40174  1.0000
  C   C1911     1.0  0.53464  0.46530  0.00096  1.0000
  H   H3256     1.0  0.63438  0.39473  0.30783  1.0000
  H   H3257     1.0  0.58084  0.49528  0.26138  1.0000
  S   S533      1.0  0.55203  0.46180  0.38059  1.0000
  H   H3258     1.0  0.54869  0.56835  0.20776  1.0000
  H   H3259     1.0  0.57111  0.39996  0.45059  1.0000
  H   H3260     1.0  0.50416  0.46761  0.20220  1.0000
  C   C1912     1.0  0.60870  0.36050  0.99553  1.0000
  C   C1913     1.0  0.56553  0.49937  0.99057  1.0000
  H   H3261     1.0  0.59869  0.49410  0.28271  1.0000
  Fe  Fe264     1.0  0.52885  0.46520  0.16030  1.0000
  C   C1914     1.0  0.53458  0.45457  0.22981  1.0000
  C   C1915     1.0  0.53851  0.44696  0.27600  1.0000
  H   H3262     1.0  0.53984  0.43977  0.29114  1.0000
  S   S534      1.0  0.52491  0.48947  0.10017  1.0000
  H   H3263     1.0  0.74228  0.46018  0.10044  1.0000
  H   H3264     1.0  0.62122  0.56633  0.30568  1.0000
  H   H3265     1.0  0.74099  0.45539  0.02760  1.0000
  C   C1916     1.0  0.59302  0.50001  0.28798  1.0000
  C   C1917     1.0  0.57219  0.47699  0.30577  1.0000
  H   H3266     1.0  0.58773  0.47747  0.31987  1.0000
  C   C1918     1.0  0.61190  0.56653  0.31221  1.0000
  S   S535      1.0  0.58751  0.38281  0.38965  1.0000
  H   H3267     1.0  0.54014  0.61613  0.04810  1.0000
  C   C1919     1.0  0.53630  0.44534  0.24989  1.0000
  H   H3268     1.0  0.53595  0.43688  0.24521  1.0000
  H   H3269     1.0  0.61011  0.56674  0.33500  1.0000
  C   C1920     1.0  0.58033  0.48166  0.32347  1.0000
  Fe  Fe265     1.0  0.56559  0.45196  0.38513  1.0000
  H   H3270     1.0  0.56257  0.63796  0.31331  1.0000
  Fe  Fe266     1.0  0.58933  0.36387  0.39786  1.0000
  Fe  Fe267     1.0  0.52560  0.47092  0.09850  1.0000
  S   S536      1.0  0.53184  0.45209  0.19714  1.0000
  C   C1921     1.0  0.66499  0.52607  0.04265  1.0000
  C   C1922     1.0  0.73957  0.46460  0.35622  1.0000
  H   H3271     1.0  0.65991  0.38491  0.28825  1.0000
  H   H3272     1.0  0.51832  0.61368  0.10160  1.0000
  H   H3273     1.0  0.73379  0.34322  0.14535  1.0000
  H   H3274     1.0  0.52951  0.44558  0.06497  1.0000
  H   H3275     1.0  0.50153  0.44540  0.30021  1.0000
  S   S537      1.0  0.52568  0.46938  0.05285  1.0000
  H   H3276     1.0  0.51804  0.48289  0.22266  1.0000
  C   C1923     1.0  0.53143  0.46075  0.03086  1.0000
  S   S538      1.0  0.54604  0.40852  0.40799  1.0000
  H   H3277     1.0  0.53897  0.63230  0.29705  1.0000
  S   S539      1.0  0.53171  0.45772  0.45098  1.0000
  N   N135      1.0  0.58487  0.49483  0.31758  1.0000
  H   H3278     1.0  0.56981  0.49997  0.30584  1.0000
  H   H3279     1.0  0.60202  0.48382  0.33884  1.0000
  H   H3280     1.0  0.60985  0.49825  0.31517  1.0000
  H   H3281     1.0  0.60619  0.55823  0.31115  1.0000
  H   H3282     1.0  0.56021  0.63403  0.22740  1.0000
  H   H3283     1.0  0.61646  0.55919  0.03061  1.0000
  H   H3284     1.0  0.55064  0.64710  0.09087  1.0000
  H   H3285     1.0  0.53412  0.47412  0.99198  1.0000
  C   C1924     1.0  0.50372  0.45446  0.28612  1.0000
  H   H3286     1.0  0.55931  0.50158  0.35084  1.0000
  C   C1925     1.0  0.74271  0.49055  0.01178  1.0000
  H   H3287     1.0  0.60842  0.39658  0.42235  1.0000
  H   H3288     1.0  0.67175  0.53320  0.99787  1.0000
  N   N136      1.0  0.55460  0.63912  0.05565  1.0000
  Fe  Fe268     1.0  0.60625  0.35124  0.36978  1.0000
  C   C1926     1.0  0.73612  0.43902  0.26041  1.0000
  H   H3289     1.0  0.57634  0.61335  0.26208  1.0000
  C   C1927     1.0  0.56931  0.40790  0.39040  1.0000
  Fe  Fe269     1.0  0.54842  0.42849  0.39680  1.0000
  H   H3290     1.0  0.60111  0.38135  0.43497  1.0000
  S   S540      1.0  0.58813  0.35229  0.36742  1.0000
  H   H3291     1.0  0.53687  0.63531  0.05133  1.0000
  S   S541      1.0  0.60565  0.34288  0.47675  1.0000
  H   H3292     1.0  0.65684  0.52377  0.05985  1.0000
  H   H3293     1.0  0.56418  0.62551  0.05765  1.0000
  H   H3294     1.0  0.54374  0.50795  0.01771  1.0000
  C   C1928     1.0  0.64405  0.50954  0.02246  1.0000
  H   H3295     1.0  0.54385  0.55350  0.22901  1.0000
  C   C1929     1.0  0.53012  0.54504  0.14420  1.0000
  C   C1930     1.0  0.50110  0.58700  0.12674  1.0000
  C   C1931     1.0  0.58635  0.51219  0.01139  1.0000
  H   H3296     1.0  0.61180  0.38623  0.99144  1.0000
  H   H3297     1.0  0.74933  0.39634  0.34207  1.0000
  H   H3298     1.0  0.55296  0.54771  0.14965  1.0000
  H   H3299     1.0  0.67289  0.43353  0.46509  1.0000
  C   C1932     1.0  0.74554  0.42724  0.22177  1.0000
  H   H3300     1.0  0.64387  0.50169  0.01376  1.0000
  H   H3301     1.0  0.53541  0.43330  0.03253  1.0000
  H   H3302     1.0  0.54180  0.57704  0.17036  1.0000
  S   S542      1.0  0.51756  0.57630  0.18649  1.0000
  H   H3303     1.0  0.73309  0.46624  0.02601  1.0000
  H   H3304     1.0  0.59980  0.54831  0.47155  1.0000
  H   H3305     1.0  0.66721  0.51789  0.03878  1.0000
  H   H3306     1.0  0.55751  0.47580  0.01864  1.0000
  C   C1933     1.0  0.74355  0.46603  0.98532  1.0000
  C   C1934     1.0  0.54846  0.51109  0.03272  1.0000
  C   C1935     1.0  0.55840  0.47747  0.03942  1.0000
  H   H3307     1.0  0.57400  0.36612  0.99891  1.0000
  H   H3308     1.0  0.55454  0.63323  0.12827  1.0000
  S   S543      1.0  0.74930  0.47969  0.41631  1.0000
  H   H3309     1.0  0.53858  0.65398  0.06565  1.0000
  H   H3310     1.0  0.55897  0.62831  0.02717  1.0000
  H   H3311     1.0  0.58752  0.53930  0.46457  1.0000
  H   H3312     1.0  0.67733  0.43814  0.01375  1.0000
  C   C1936     1.0  0.74706  0.47185  0.05771  1.0000
  H   H3313     1.0  0.53719  0.54156  0.13354  1.0000
  H   H3314     1.0  0.53118  0.55683  0.19662  1.0000
  H   H3315     1.0  0.57482  0.37654  0.44961  1.0000
  C   C1937     1.0  0.67042  0.53715  0.44335  1.0000
  C   C1938     1.0  0.56602  0.64850  0.04336  1.0000
  H   H3316     1.0  0.66475  0.44436  0.01921  1.0000
  H   H3317     1.0  0.66684  0.54179  0.42663  1.0000
  H   H3318     1.0  0.51249  0.64826  0.08628  1.0000
  C   C1939     1.0  0.67375  0.44498  0.02182  1.0000
  C   C1940     1.0  0.56044  0.56207  0.11171  1.0000
  H   H3319     1.0  0.56939  0.49208  0.98609  1.0000
  C   C1941     1.0  0.59290  0.38457  0.99720  1.0000
  H   H3320     1.0  0.56522  0.55577  0.10452  1.0000
  H   H3321     1.0  0.73678  0.34174  0.27548  1.0000
  H   H3322     1.0  0.67222  0.34792  0.10806  1.0000
  C   C1942     1.0  0.74771  0.43825  0.25723  1.0000
  C   C1943     1.0  0.60478  0.38954  0.00288  1.0000
  H   H3323     1.0  0.73846  0.45282  0.07469  1.0000
  H   H3324     1.0  0.74926  0.34057  0.10033  1.0000
  H   H3325     1.0  0.67603  0.54399  0.45004  1.0000
  H   H3326     1.0  0.74317  0.49218  0.12119  1.0000
  H   H3327     1.0  0.61912  0.34143  0.00655  1.0000
  H   H3328     1.0  0.58741  0.51486  0.98804  1.0000
  C   C1944     1.0  0.56593  0.39332  0.47065  1.0000
  C   C1945     1.0  0.57054  0.65212  0.01046  1.0000
  H   H3329     1.0  0.73573  0.48561  0.00403  1.0000
  H   H3330     1.0  0.51137  0.45483  0.26905  1.0000
  H   H3331     1.0  0.57597  0.33812  0.27409  1.0000
  H   H3332     1.0  0.56084  0.38560  0.46547  1.0000
  H   H3333     1.0  0.54737  0.64194  0.01871  1.0000
  H   H3334     1.0  0.56448  0.35724  0.48057  1.0000
  C   C1946     1.0  0.53842  0.45850  0.98250  1.0000
  H   H3335     1.0  0.73668  0.33867  0.24132  1.0000
  H   H3336     1.0  0.74551  0.49969  0.99784  1.0000
  H   H3337     1.0  0.53589  0.65539  0.03117  1.0000
  H   H3338     1.0  0.74301  0.49120  0.16850  1.0000
  H   H3339     1.0  0.50115  0.56787  0.25068  1.0000
  H   H3340     1.0  0.64489  0.52105  0.98294  1.0000
  C   C1947     1.0  0.74621  0.48449  0.13059  1.0000
  H   H3341     1.0  0.55943  0.39740  0.48146  1.0000
  H   H3342     1.0  0.59566  0.33734  0.32306  1.0000
  H   H3343     1.0  0.65739  0.55086  0.98384  1.0000
  H   H3344     1.0  0.68859  0.33775  0.09636  1.0000
  H   H3345     1.0  0.75007  0.39346  0.29490  1.0000
  C   C1948     1.0  0.63472  0.33745  0.01399  1.0000
  H   H3346     1.0  0.57261  0.38646  0.98266  1.0000
  H   H3347     1.0  0.62193  0.33716  0.10565  1.0000
  H   H3348     1.0  0.51877  0.60321  0.48200  1.0000
  Fe  Fe270     1.0  0.58240  0.33687  0.40632  1.0000
  H   H3349     1.0  0.57706  0.47457  0.69465  1.0000
  H   H3350     1.0  0.56776  0.38414  0.51128  1.0000
  S   S544      1.0  0.54140  0.43723  0.97139  1.0000
  H   H3351     1.0  0.50826  0.46162  0.93483  1.0000
  H   H3352     1.0  0.68432  0.35721  0.57620  1.0000
  S   S545      1.0  0.62317  0.37118  0.80875  1.0000
  Fe  Fe271     1.0  0.73410  0.48586  0.91683  1.0000
  S   S546      1.0  0.72522  0.46659  0.92963  1.0000
  H   H3353     1.0  0.50860  0.58333  0.53769  1.0000
  Fe  Fe272     1.0  0.71056  0.49211  0.91883  1.0000
  S   S547      1.0  0.70016  0.47318  0.93200  1.0000
  S   S548      1.0  0.70252  0.50743  0.90688  1.0000
  Fe  Fe273     1.0  0.71186  0.47082  0.96158  1.0000
  N   N137      1.0  0.74994  0.47398  0.51103  1.0000
  Fe  Fe274     1.0  0.71445  0.47054  0.89883  1.0000
  S   S549      1.0  0.71121  0.45701  0.87350  1.0000
  S   S550      1.0  0.72139  0.49000  0.95116  1.0000
  S   S551      1.0  0.72418  0.48959  0.88342  1.0000
  Fe  Fe275     1.0  0.64808  0.38115  0.62015  1.0000
  S   S552      1.0  0.62999  0.38353  0.62114  1.0000
  S   S553      1.0  0.66412  0.39625  0.61157  1.0000
  H   H3354     1.0  0.55183  0.48841  0.73953  1.0000
  S   S554      1.0  0.62183  0.35532  0.62558  1.0000
  Fe  Fe276     1.0  0.62950  0.37197  0.59043  1.0000
  S   S555      1.0  0.62337  0.37753  0.55016  1.0000
  Fe  Fe277     1.0  0.62394  0.36663  0.65618  1.0000
  S   S556      1.0  0.60931  0.36158  0.69689  1.0000
  S   S557      1.0  0.64808  0.37082  0.58701  1.0000
  S   S558      1.0  0.64210  0.36517  0.65741  1.0000
  Fe  Fe278     1.0  0.71220  0.45189  0.65756  1.0000
  S   S559      1.0  0.71038  0.43237  0.66827  1.0000
  S   S560      1.0  0.71896  0.46452  0.61349  1.0000
  Fe  Fe279     1.0  0.70615  0.45255  0.72052  1.0000
  S   S561      1.0  0.70352  0.43303  0.73642  1.0000
  S   S562      1.0  0.70530  0.46596  0.74685  1.0000
  Fe  Fe280     1.0  0.71974  0.43556  0.70185  1.0000
  S   S563      1.0  0.73428  0.42714  0.70920  1.0000
  Fe  Fe281     1.0  0.69421  0.43141  0.70167  1.0000
  S   S564      1.0  0.67736  0.41698  0.71245  1.0000
  S   S565      1.0  0.72310  0.45518  0.68819  1.0000
  S   S566      1.0  0.69533  0.45081  0.68869  1.0000
  Fe  Fe282     1.0  0.51870  0.59763  0.69088  1.0000
  S   S567      1.0  0.50861  0.61105  0.69641  1.0000
  S   S568      1.0  0.51099  0.57914  0.68949  1.0000
  Fe  Fe283     1.0  0.54161  0.61424  0.68446  1.0000
  S   S569      1.0  0.53345  0.62950  0.68851  1.0000
  S   S570      1.0  0.56120  0.61633  0.67771  1.0000
  Fe  Fe284     1.0  0.51975  0.61628  0.72549  1.0000
  S   S571      1.0  0.50876  0.61910  0.76633  1.0000
  Fe  Fe285     1.0  0.52278  0.62329  0.65911  1.0000
  S   S572      1.0  0.51525  0.63449  0.62748  1.0000
  S   S573      1.0  0.52858  0.60151  0.72306  1.0000
  S   S574      1.0  0.53219  0.60938  0.65201  1.0000
  Fe  Fe286     1.0  0.53681  0.48694  0.62009  1.0000
  S   S575      1.0  0.54046  0.46921  0.62579  1.0000
  S   S576      1.0  0.55196  0.50292  0.59955  1.0000
  Fe  Fe287     1.0  0.57328  0.53852  0.69261  1.0000
  S   S577      1.0  0.58590  0.52794  0.70122  1.0000
  S   S578      1.0  0.55463  0.52963  0.69611  1.0000
  Fe  Fe288     1.0  0.59125  0.56150  0.67969  1.0000
  S   S579      1.0  0.60579  0.55257  0.68553  1.0000
  S   S580      1.0  0.59457  0.58133  0.67150  1.0000
  Fe  Fe289     1.0  0.59804  0.54042  0.66058  1.0000
  S   S581      1.0  0.60559  0.52989  0.63081  1.0000
  Fe  Fe290     1.0  0.59248  0.54080  0.72522  1.0000
  S   S582      1.0  0.59294  0.53409  0.77175  1.0000
  S   S583      1.0  0.58490  0.55054  0.65136  1.0000
  S   S584      1.0  0.57842  0.55023  0.72006  1.0000
  Fe  Fe291     1.0  0.60942  0.51085  0.94616  1.0000
  S   S585      1.0  0.60925  0.52985  0.93414  1.0000
  H   H3355     1.0  0.61193  0.33987  0.96479  1.0000
  Fe  Fe292     1.0  0.63579  0.51595  0.93868  1.0000
  S   S586      1.0  0.63774  0.53555  0.92552  1.0000
  S   S587      1.0  0.64817  0.50456  0.94937  1.0000
  Fe  Fe293     1.0  0.62171  0.53231  0.96214  1.0000
  C   C1949     1.0  0.56811  0.38683  0.81926  1.0000
  Fe  Fe294     1.0  0.62497  0.53139  0.89868  1.0000
  S   S588      1.0  0.62784  0.54188  0.85227  1.0000
  H   H3356     1.0  0.66282  0.44204  0.55403  1.0000
  S   S589      1.0  0.62433  0.51206  0.90938  1.0000
  Fe  Fe295     1.0  0.56847  0.45894  0.87336  1.0000
  S   S590      1.0  0.61829  0.34966  0.88461  1.0000
  S   S591      1.0  0.58203  0.47618  0.85766  1.0000
  H   H3357     1.0  0.58176  0.36624  0.96321  1.0000
  Fe  Fe296     1.0  0.64045  0.35505  0.62445  1.0000
  H   H3358     1.0  0.57100  0.38001  0.78198  1.0000
  Fe  Fe297     1.0  0.54596  0.44681  0.86198  1.0000
  H   H3359     1.0  0.65058  0.37974  0.76666  1.0000
  H   H3360     1.0  0.58715  0.37328  0.76261  1.0000
  H   H3361     1.0  0.62033  0.57078  0.74763  1.0000
  S   S592      1.0  0.56483  0.44864  0.84189  1.0000
  H   H3362     1.0  0.51673  0.64353  0.67635  1.0000
  H   H3363     1.0  0.63406  0.38148  0.74894  1.0000
  C   C1950     1.0  0.50328  0.62864  0.81192  1.0000
  Fe  Fe298     1.0  0.50802  0.64404  0.90521  1.0000
  S   S593      1.0  0.52050  0.64489  0.86257  1.0000
  H   H3364     1.0  0.51427  0.61473  0.52420  1.0000
  H   H3365     1.0  0.65396  0.50761  0.53049  1.0000
  C   C1951     1.0  0.50120  0.66939  0.48752  1.0000
  H   H3366     1.0  0.55601  0.37935  0.91619  1.0000
  C   C1952     1.0  0.58932  0.49119  0.93154  1.0000
  C   C1953     1.0  0.58074  0.48061  0.93696  1.0000
  C   C1954     1.0  0.57831  0.47607  0.91424  1.0000
  C   C1955     1.0  0.58445  0.48212  0.88610  1.0000
  C   C1956     1.0  0.59266  0.49294  0.88063  1.0000
  C   C1957     1.0  0.59507  0.49749  0.90335  1.0000
  Fe  Fe299     1.0  0.61221  0.35957  0.91609  1.0000
  H   H3367     1.0  0.66408  0.52557  0.53604  1.0000
  H   H3368     1.0  0.59732  0.49771  0.85887  1.0000
  H   H3369     1.0  0.60146  0.50581  0.89899  1.0000
  C   C1958     1.0  0.60956  0.53308  0.59272  1.0000
  C   C1959     1.0  0.61179  0.52411  0.57959  1.0000
  H   H3370     1.0  0.74664  0.47161  0.58384  1.0000
  H   H3371     1.0  0.74237  0.34447  0.61956  1.0000
  C   C1960     1.0  0.61481  0.54658  0.54528  1.0000
  C   C1961     1.0  0.61095  0.54430  0.57530  1.0000
  H   H3372     1.0  0.61079  0.51541  0.59281  1.0000
  C   C1962     1.0  0.51450  0.42764  0.95660  1.0000
  C   C1963     1.0  0.58659  0.37403  0.81751  1.0000
  H   H3373     1.0  0.60933  0.55132  0.58498  1.0000
  C   C1964     1.0  0.60299  0.53630  0.79332  1.0000
  C   C1965     1.0  0.61441  0.54359  0.78230  1.0000
  C   C1966     1.0  0.62191  0.54516  0.80055  1.0000
  C   C1967     1.0  0.61817  0.53937  0.82993  1.0000
  C   C1968     1.0  0.60679  0.53202  0.84083  1.0000
  C   C1969     1.0  0.59926  0.53057  0.82269  1.0000
  H   H3374     1.0  0.61748  0.54797  0.75976  1.0000
  H   H3375     1.0  0.63071  0.55082  0.79186  1.0000
  H   H3376     1.0  0.60377  0.52752  0.86333  1.0000
  H   H3377     1.0  0.59046  0.52497  0.83167  1.0000
  Fe  Fe300     1.0  0.54956  0.44191  0.92308  1.0000
  C   C1970     1.0  0.52624  0.54845  0.72600  1.0000
  Fe  Fe301     1.0  0.61183  0.36126  0.85315  1.0000
  H   H3378     1.0  0.52352  0.46507  0.74506  1.0000
  H   H3379     1.0  0.52167  0.46303  0.79698  1.0000
  C   C1971     1.0  0.52901  0.46059  0.75561  1.0000
  C   C1972     1.0  0.74410  0.48077  0.82799  1.0000
  C   C1973     1.0  0.61092  0.35270  0.49639  1.0000
  C   C1974     1.0  0.59979  0.38584  0.94533  1.0000
  H   H3380     1.0  0.61065  0.33862  0.53158  1.0000
  C   C1975     1.0  0.55269  0.51175  0.62368  1.0000
  C   C1976     1.0  0.56360  0.51749  0.62630  1.0000
  C   C1977     1.0  0.56424  0.52318  0.64826  1.0000
  C   C1978     1.0  0.55396  0.52328  0.66735  1.0000
  C   C1979     1.0  0.54305  0.51799  0.66390  1.0000
  C   C1980     1.0  0.54243  0.51228  0.64201  1.0000
  H   H3381     1.0  0.57157  0.51708  0.61228  1.0000
  H   H3382     1.0  0.57271  0.52716  0.65086  1.0000
  H   H3383     1.0  0.53507  0.51811  0.67845  1.0000
  H   H3384     1.0  0.53397  0.50820  0.63947  1.0000
  C   C1981     1.0  0.51239  0.62656  0.79235  1.0000
  C   C1982     1.0  0.52389  0.63018  0.79453  1.0000
  C   C1983     1.0  0.52621  0.63577  0.81607  1.0000
  C   C1984     1.0  0.51707  0.63758  0.83612  1.0000
  H   H3385     1.0  0.57701  0.44957  0.52050  1.0000
  H   H3386     1.0  0.57459  0.50861  0.55960  1.0000
  H   H3387     1.0  0.53102  0.62867  0.77970  1.0000
  H   H3388     1.0  0.53515  0.63861  0.81740  1.0000
  H   H3389     1.0  0.68504  0.34965  0.62833  1.0000
  H   H3390     1.0  0.56983  0.48357  0.62020  1.0000
  H   H3391     1.0  0.57040  0.52516  0.49020  1.0000
  H   H3392     1.0  0.53243  0.57118  0.69256  1.0000
  H   H3393     1.0  0.57746  0.38636  0.94637  1.0000
  H   H3394     1.0  0.57180  0.50732  0.97516  1.0000
  C   C1985     1.0  0.58999  0.50646  0.53157  1.0000
  C   C1986     1.0  0.74246  0.34546  0.66245  1.0000
  C   C1987     1.0  0.52799  0.45944  0.78508  1.0000
  H   H3395     1.0  0.56373  0.47274  0.65373  1.0000
  H   H3396     1.0  0.73275  0.36992  0.66572  1.0000
  C   C1988     1.0  0.53942  0.56988  0.67592  1.0000
  C   C1989     1.0  0.56962  0.60576  0.67691  1.0000
  C   C1990     1.0  0.56476  0.59349  0.68484  1.0000
  C   C1991     1.0  0.57217  0.58569  0.68349  1.0000
  C   C1992     1.0  0.58444  0.59020  0.67421  1.0000
  C   C1993     1.0  0.58913  0.60240  0.66684  1.0000
  C   C1994     1.0  0.58183  0.61008  0.66820  1.0000
  H   H3397     1.0  0.55536  0.59010  0.69230  1.0000
  H   H3398     1.0  0.56846  0.57626  0.68969  1.0000
  H   H3399     1.0  0.59854  0.60601  0.65974  1.0000
  H   H3400     1.0  0.58570  0.61949  0.66220  1.0000
  H   H3401     1.0  0.57991  0.40637  0.93846  1.0000
  H   H3402     1.0  0.55912  0.50509  0.50094  1.0000
  C   C1995     1.0  0.74255  0.34187  0.54956  1.0000
  C   C1996     1.0  0.74310  0.43548  0.72587  1.0000
  C   C1997     1.0  0.67835  0.34479  0.61945  1.0000
  C   C1998     1.0  0.73935  0.44432  0.73677  1.0000
  H   H3403     1.0  0.59948  0.51020  0.52881  1.0000
  H   H3404     1.0  0.73057  0.44526  0.73757  1.0000
  C   C1999     1.0  0.66770  0.40177  0.63999  1.0000
  C   C2000     1.0  0.67769  0.41114  0.63422  1.0000
  C   C2001     1.0  0.68069  0.41588  0.65627  1.0000
  C   C2002     1.0  0.67378  0.41119  0.68434  1.0000
  C   C2003     1.0  0.66383  0.40173  0.69017  1.0000
  C   C2004     1.0  0.66077  0.39706  0.66805  1.0000
  H   H3405     1.0  0.68318  0.41476  0.61266  1.0000
  H   H3406     1.0  0.68832  0.42319  0.65149  1.0000
  H   H3407     1.0  0.65847  0.39796  0.71177  1.0000
  H   H3408     1.0  0.65307  0.38981  0.67271  1.0000
  C   C2005     1.0  0.70420  0.45625  0.53961  1.0000
  C   C2006     1.0  0.70228  0.44732  0.56463  1.0000
  C   C2007     1.0  0.70643  0.44982  0.58785  1.0000
  C   C2008     1.0  0.71256  0.46128  0.58612  1.0000
  C   C2009     1.0  0.71429  0.47025  0.56133  1.0000
  C   C2010     1.0  0.71015  0.46774  0.53812  1.0000
  H   H3409     1.0  0.69776  0.43839  0.56605  1.0000
  H   H3410     1.0  0.70508  0.44285  0.60687  1.0000
  H   H3411     1.0  0.71890  0.47916  0.56005  1.0000
  H   H3412     1.0  0.52630  0.43459  0.54977  1.0000
  C   C2011     1.0  0.71037  0.45985  0.83761  1.0000
  C   C2012     1.0  0.71203  0.47128  0.82101  1.0000
  C   C2013     1.0  0.71083  0.47306  0.79284  1.0000
  C   C2014     1.0  0.70802  0.46346  0.78106  1.0000
  C   C2015     1.0  0.70674  0.45208  0.79739  1.0000
  C   C2016     1.0  0.70785  0.45029  0.82560  1.0000
  H   H3413     1.0  0.71416  0.47872  0.82990  1.0000
  H   H3414     1.0  0.71195  0.48189  0.78013  1.0000
  H   H3415     1.0  0.70459  0.44464  0.78853  1.0000
  H   H3416     1.0  0.70663  0.44143  0.83828  1.0000
  C   C2017     1.0  0.68748  0.50675  0.91956  1.0000
  C   C2018     1.0  0.67979  0.49691  0.93995  1.0000
  C   C2019     1.0  0.66783  0.49652  0.94899  1.0000
  C   C2020     1.0  0.66338  0.50586  0.93749  1.0000
  C   C2021     1.0  0.67106  0.51572  0.91709  1.0000
  C   C2022     1.0  0.68307  0.51618  0.90831  1.0000
  H   H3417     1.0  0.68305  0.48961  0.94882  1.0000
  C   C2023     1.0  0.67344  0.51802  0.48627  1.0000
  H   H3418     1.0  0.66774  0.52294  0.90793  1.0000
  H   H3419     1.0  0.68896  0.52381  0.89244  1.0000
  C   C2024     1.0  0.61951  0.36781  0.77801  1.0000
  C   C2025     1.0  0.62645  0.37454  0.75090  1.0000
  C   C2026     1.0  0.62357  0.37243  0.72598  1.0000
  C   C2027     1.0  0.61354  0.36375  0.72792  1.0000
  C   C2028     1.0  0.60653  0.35703  0.75501  1.0000
  C   C2029     1.0  0.60960  0.35894  0.77999  1.0000
  H   H3420     1.0  0.62898  0.37770  0.70522  1.0000
  H   H3421     1.0  0.59877  0.35028  0.75664  1.0000
  H   H3422     1.0  0.60424  0.35363  0.80072  1.0000
  C   C2030     1.0  0.74348  0.48275  0.49998  1.0000
  H   H3423     1.0  0.56471  0.52348  0.55387  1.0000
  C   C2031     1.0  0.61741  0.37241  0.50243  1.0000
  C   C2032     1.0  0.61895  0.36777  0.52952  1.0000
  C   C2033     1.0  0.61661  0.35555  0.53978  1.0000
  H   H3424     1.0  0.66714  0.48398  0.90480  1.0000
  H   H3425     1.0  0.50356  0.46079  0.59375  1.0000
  C   C2034     1.0  0.50237  0.57922  0.66495  1.0000
  H   H3426     1.0  0.53613  0.63476  0.53012  1.0000
  H   H3427     1.0  0.73952  0.44510  0.64749  1.0000
  H   H3428     1.0  0.51753  0.64113  0.72274  1.0000
  H   H3429     1.0  0.73545  0.46494  0.54788  1.0000
  C   C2035     1.0  0.56733  0.47461  0.73627  1.0000
  C   C2036     1.0  0.61714  0.53764  0.53218  1.0000
  S   S594      1.0  0.54418  0.42997  0.89523  1.0000
  H   H3430     1.0  0.58536  0.54784  0.49066  1.0000
  H   H3431     1.0  0.60860  0.38837  0.81514  1.0000
  H   H3432     1.0  0.66643  0.43858  0.58736  1.0000
  H   H3433     1.0  0.58987  0.59307  0.77067  1.0000
  H   H3434     1.0  0.73563  0.47489  0.82869  1.0000
  C   C2037     1.0  0.51690  0.65296  0.67429  1.0000
  H   H3435     1.0  0.57098  0.47944  0.52147  1.0000
  H   H3436     1.0  0.65129  0.37420  0.80307  1.0000
  H   H3437     1.0  0.50140  0.60747  0.84626  1.0000
  H   H3438     1.0  0.73414  0.34123  0.54339  1.0000
  H   H3439     1.0  0.51550  0.66802  0.54846  1.0000
  H   H3440     1.0  0.59465  0.37470  0.49557  1.0000
  H   H3441     1.0  0.69970  0.34093  0.61244  1.0000
  S   S595      1.0  0.51298  0.45833  0.65859  1.0000
  H   H3442     1.0  0.61301  0.40362  0.79734  1.0000
  C   C2038     1.0  0.51298  0.60601  0.56789  1.0000
  N   N138      1.0  0.59145  0.38918  0.96770  1.0000
  S   S596      1.0  0.56880  0.44344  0.90687  1.0000
  H   H3443     1.0  0.74593  0.44907  0.80986  1.0000
  H   H3444     1.0  0.69318  0.34370  0.55524  1.0000
  H   H3445     1.0  0.57622  0.47575  0.95873  1.0000
  C   C2039     1.0  0.50542  0.41554  0.96544  1.0000
  H   H3446     1.0  0.51087  0.54225  0.65808  1.0000
  S   S597      1.0  0.59415  0.34743  0.93248  1.0000
  H   H3447     1.0  0.67248  0.54353  0.95459  1.0000
  H   H3448     1.0  0.73834  0.46053  0.80977  1.0000
  H   H3449     1.0  0.64022  0.52033  0.53403  1.0000
  N   N139      1.0  0.56498  0.46057  0.52775  1.0000
  H   H3450     1.0  0.59079  0.49031  0.69970  1.0000
  H   H3451     1.0  0.66255  0.37419  0.77343  1.0000
  C   C2040     1.0  0.73731  0.34197  0.64159  1.0000
  C   C2041     1.0  0.59312  0.38109  0.76559  1.0000
  H   H3452     1.0  0.58389  0.37622  0.83824  1.0000
  H   H3453     1.0  0.72477  0.38424  0.68433  1.0000
  H   H3454     1.0  0.51487  0.42127  0.90448  1.0000
  C   C2042     1.0  0.57610  0.38652  0.79087  1.0000
  N   N140      1.0  0.56863  0.48903  0.68776  1.0000
  H   H3455     1.0  0.59309  0.41780  0.92962  1.0000
  C   C2043     1.0  0.61255  0.34806  0.52336  1.0000
  H   H3456     1.0  0.59392  0.50160  0.66647  1.0000
  S   S598      1.0  0.53852  0.45666  0.70302  1.0000
  H   H3457     1.0  0.52270  0.46793  0.93698  1.0000
  C   C2044     1.0  0.50912  0.63957  0.54804  1.0000
  C   C2045     1.0  0.59169  0.53212  0.50490  1.0000
  H   H3458     1.0  0.61370  0.57449  0.70001  1.0000
  H   H3459     1.0  0.73498  0.40341  0.72933  1.0000
  C   C2046     1.0  0.69944  0.34437  0.56865  1.0000
  H   H3460     1.0  0.59593  0.38465  0.92714  1.0000
  H   H3461     1.0  0.54742  0.45024  0.55119  1.0000
  H   H3462     1.0  0.68327  0.53948  0.49168  1.0000
  H   H3463     1.0  0.66330  0.54949  0.93480  1.0000
  H   H3464     1.0  0.61723  0.51937  0.53991  1.0000
  C   C2047     1.0  0.56405  0.38567  0.90321  1.0000
  H   H3465     1.0  0.61056  0.59850  0.73674  1.0000
  C   C2048     1.0  0.54129  0.57996  0.64910  1.0000
  H   H3466     1.0  0.56579  0.47075  0.48518  1.0000
  C   C2049     1.0  0.52551  0.45248  0.54843  1.0000
  H   H3467     1.0  0.51730  0.54591  0.72298  1.0000
  H   H3468     1.0  0.55263  0.50670  0.97226  1.0000
  S   S599      1.0  0.62207  0.54110  0.49413  1.0000
  S   S600      1.0  0.52108  0.48180  0.60329  1.0000
  H   H3469     1.0  0.57188  0.46777  0.91859  1.0000
  C   C2050     1.0  0.53588  0.54897  0.69955  1.0000
  C   C2051     1.0  0.54535  0.55596  0.64831  1.0000
  S   S601      1.0  0.51079  0.65519  0.93667  1.0000
  C   C2052     1.0  0.55826  0.55990  0.64927  1.0000
  H   H3470     1.0  0.53484  0.53988  0.69678  1.0000
  H   H3471     1.0  0.54433  0.55106  0.70558  1.0000
  H   H3472     1.0  0.73513  0.45482  0.86576  1.0000
  H   H3473     1.0  0.54379  0.54651  0.64808  1.0000
  H   H3474     1.0  0.54745  0.57137  0.68383  1.0000
  H   H3475     1.0  0.52670  0.54160  0.74433  1.0000
  H   H3476     1.0  0.55986  0.55531  0.66934  1.0000
  H   H3477     1.0  0.56390  0.55764  0.63156  1.0000
  H   H3478     1.0  0.56133  0.56955  0.64611  1.0000
  N   N141      1.0  0.56545  0.50165  0.80443  1.0000
  C   C2053     1.0  0.56507  0.51224  0.78240  1.0000
  C   C2054     1.0  0.57815  0.50241  0.80374  1.0000
  C   C2055     1.0  0.55880  0.50227  0.83340  1.0000
  C   C2056     1.0  0.55969  0.49075  0.79676  1.0000
  C   C2057     1.0  0.55272  0.51341  0.78035  1.0000
  C   C2058     1.0  0.58618  0.50225  0.77528  1.0000
  C   C2059     1.0  0.56281  0.49699  0.85984  1.0000
  C   C2060     1.0  0.56083  0.47892  0.81344  1.0000
  H   H3479     1.0  0.56964  0.52052  0.78660  1.0000
  H   H3480     1.0  0.56975  0.51229  0.76056  1.0000
  H   H3481     1.0  0.57907  0.49509  0.82007  1.0000
  H   H3482     1.0  0.58211  0.51054  0.80944  1.0000
  H   H3483     1.0  0.55939  0.51161  0.83403  1.0000
  H   H3484     1.0  0.54927  0.49805  0.83766  1.0000
  H   H3485     1.0  0.55012  0.48983  0.79976  1.0000
  H   H3486     1.0  0.56324  0.49148  0.77377  1.0000
  H   H3487     1.0  0.54714  0.51352  0.80103  1.0000
  H   H3488     1.0  0.55365  0.52191  0.76488  1.0000
  H   H3489     1.0  0.54820  0.50637  0.77196  1.0000
  H   H3490     1.0  0.58295  0.49435  0.76803  1.0000
  H   H3491     1.0  0.58761  0.51039  0.75825  1.0000
  H   H3492     1.0  0.59496  0.50196  0.77866  1.0000
  H   H3493     1.0  0.57157  0.50225  0.85973  1.0000
  H   H3494     1.0  0.56307  0.48772  0.86192  1.0000
  H   H3495     1.0  0.55658  0.49721  0.87950  1.0000
  H   H3496     1.0  0.57007  0.47849  0.81075  1.0000
  H   H3497     1.0  0.55644  0.47174  0.80519  1.0000
  H   H3498     1.0  0.55633  0.47689  0.83632  1.0000
  N   N142      1.0  0.68231  0.48701  0.85079  1.0000
  C   C2061     1.0  0.68738  0.50003  0.84675  1.0000
  C   C2062     1.0  0.66913  0.48481  0.85887  1.0000
  C   C2063     1.0  0.68617  0.48432  0.82240  1.0000
  C   C2064     1.0  0.68691  0.48023  0.87334  1.0000
  C   C2065     1.0  0.70086  0.50458  0.83610  1.0000
  C   C2066     1.0  0.66386  0.48786  0.88671  1.0000
  C   C2067     1.0  0.68177  0.47152  0.82091  1.0000
  C   C2068     1.0  0.67984  0.46736  0.88864  1.0000
  H   H3499     1.0  0.68360  0.50539  0.83161  1.0000
  H   H3500     1.0  0.68502  0.50252  0.86718  1.0000
  H   H3501     1.0  0.66460  0.47556  0.86111  1.0000
  H   H3502     1.0  0.66621  0.48997  0.84147  1.0000
  H   H3503     1.0  0.68351  0.49009  0.80549  1.0000
  H   H3504     1.0  0.69587  0.48628  0.81544  1.0000
  H   H3505     1.0  0.69608  0.48000  0.86418  1.0000
  H   H3506     1.0  0.68745  0.48490  0.89053  1.0000
  H   H3507     1.0  0.70348  0.51378  0.83791  1.0000
  H   H3508     1.0  0.70543  0.49942  0.84922  1.0000
  H   H3509     1.0  0.70407  0.50486  0.81324  1.0000
  H   H3510     1.0  0.66552  0.49753  0.88383  1.0000
  H   H3511     1.0  0.68562  0.46544  0.83389  1.0000
  H   H3512     1.0  0.68485  0.47107  0.79848  1.0000
  H   H3513     1.0  0.67209  0.46838  0.82667  1.0000
  H   H3514     1.0  0.68606  0.46174  0.89063  1.0000
  H   H3515     1.0  0.67360  0.46323  0.87786  1.0000
  H   H3516     1.0  0.67512  0.46675  0.91087  1.0000
  N   N143      1.0  0.66852  0.42134  0.53785  1.0000
  C   C2069     1.0  0.67163  0.42759  0.55990  1.0000
  C   C2070     1.0  0.67703  0.41388  0.53293  1.0000
  C   C2071     1.0  0.65610  0.41366  0.54996  1.0000
  C   C2072     1.0  0.66943  0.43059  0.51120  1.0000
  C   C2073     1.0  0.66314  0.43463  0.57113  1.0000
  C   C2074     1.0  0.69004  0.42065  0.52017  1.0000
  C   C2075     1.0  0.65260  0.40289  0.53812  1.0000
  C   C2076     1.0  0.51503  0.43921  0.90824  1.0000
  H   H3517     1.0  0.67232  0.42121  0.57889  1.0000
  H   H3518     1.0  0.68035  0.43401  0.55134  1.0000
  H   H3519     1.0  0.67488  0.40824  0.51863  1.0000
  H   H3520     1.0  0.67644  0.40752  0.55336  1.0000
  H   H3521     1.0  0.65431  0.40995  0.57346  1.0000
  H   H3522     1.0  0.64964  0.41895  0.54729  1.0000
  H   H3523     1.0  0.66264  0.43549  0.51523  1.0000
  H   H3524     1.0  0.67778  0.43763  0.50515  1.0000
  H   H3525     1.0  0.51372  0.59525  0.84314  1.0000
  H   H3526     1.0  0.50599  0.66820  0.72147  1.0000
  H   H3527     1.0  0.65419  0.42894  0.58198  1.0000
  H   H3528     1.0  0.50679  0.64497  0.74648  1.0000
  H   H3529     1.0  0.59419  0.33892  0.62563  1.0000
  C   C2077     1.0  0.66446  0.53069  0.51423  1.0000
  H   H3530     1.0  0.65698  0.39598  0.54544  1.0000
  H   H3531     1.0  0.65438  0.40514  0.51460  1.0000
  H   H3532     1.0  0.64302  0.39886  0.54684  1.0000
  H   H3533     1.0  0.69527  0.41428  0.51595  1.0000
  C   C2078     1.0  0.73598  0.34239  0.69096  1.0000
  C   C2079     1.0  0.74702  0.45216  0.74620  1.0000
  N   N144      1.0  0.65674  0.39938  0.79304  1.0000
  C   C2080     1.0  0.64831  0.40169  0.77510  1.0000
  C   C2081     1.0  0.66360  0.39163  0.78042  1.0000
  C   C2082     1.0  0.66482  0.41113  0.79117  1.0000
  C   C2083     1.0  0.64965  0.39352  0.82338  1.0000
  C   C2084     1.0  0.64113  0.41045  0.78238  1.0000
  C   C2085     1.0  0.65643  0.37929  0.78120  1.0000
  C   C2086     1.0  0.67703  0.41110  0.79617  1.0000
  C   C2087     1.0  0.65633  0.38915  0.84510  1.0000
  H   H3534     1.0  0.65308  0.40514  0.75207  1.0000
  H   H3535     1.0  0.64175  0.39341  0.77684  1.0000
  H   H3536     1.0  0.67063  0.39017  0.79096  1.0000
  H   H3537     1.0  0.66832  0.39608  0.75770  1.0000
  H   H3538     1.0  0.66663  0.41726  0.76961  1.0000
  H   H3539     1.0  0.66058  0.41562  0.80640  1.0000
  H   H3540     1.0  0.64520  0.39968  0.83245  1.0000
  H   H3541     1.0  0.64218  0.38608  0.82448  1.0000
  H   H3542     1.0  0.63498  0.40703  0.80393  1.0000
  H   H3543     1.0  0.64678  0.41928  0.78033  1.0000
  H   H3544     1.0  0.63571  0.41168  0.76688  1.0000
  H   H3545     1.0  0.51268  0.65534  0.65668  1.0000
  C   C2088     1.0  0.61203  0.39448  0.93164  1.0000
  H   H3546     1.0  0.58741  0.47657  0.49743  1.0000
  H   H3547     1.0  0.67666  0.40486  0.81632  1.0000
  H   H3548     1.0  0.68140  0.42005  0.79722  1.0000
  H   H3549     1.0  0.68273  0.40921  0.77789  1.0000
  H   H3550     1.0  0.65999  0.39634  0.85431  1.0000
  H   H3551     1.0  0.66335  0.38526  0.83633  1.0000
  Fe  Fe302     1.0  0.51131  0.47712  0.64974  1.0000
  C   C2089     1.0  0.52818  0.63565  0.54333  1.0000
  H   H3552     1.0  0.59744  0.52739  0.49381  1.0000
  C   C2090     1.0  0.55335  0.47434  0.54737  1.0000
  S   S602      1.0  0.59292  0.49627  0.96023  1.0000
  C   C2091     1.0  0.58950  0.49892  0.68966  1.0000
  H   H3553     1.0  0.63221  0.34504  0.95149  1.0000
  C   C2092     1.0  0.54394  0.44989  0.75428  1.0000
  H   H3554     1.0  0.63817  0.37166  0.98079  1.0000
  H   H3555     1.0  0.54675  0.46693  0.56353  1.0000
  H   H3556     1.0  0.61308  0.39318  0.77639  1.0000
  H   H3557     1.0  0.60311  0.39858  0.73737  1.0000
  H   H3558     1.0  0.73974  0.48145  0.56528  1.0000
  C   C2093     1.0  0.61348  0.36492  0.48586  1.0000
  H   H3559     1.0  0.55535  0.49707  0.67471  1.0000
  H   H3560     1.0  0.54466  0.56067  0.62710  1.0000
  H   H3561     1.0  0.55008  0.44606  0.74254  1.0000
  C   C2094     1.0  0.57393  0.51852  0.50264  1.0000
  C   C2095     1.0  0.51681  0.63537  0.59038  1.0000
  H   H3562     1.0  0.67506  0.36165  0.60258  1.0000
  C   C2096     1.0  0.60378  0.59056  0.73711  1.0000
  H   H3563     1.0  0.72044  0.40356  0.69743  1.0000
  H   H3564     1.0  0.71146  0.47472  0.51921  1.0000
  H   H3565     1.0  0.57230  0.39370  0.82858  1.0000
  H   H3566     1.0  0.61606  0.55536  0.53213  1.0000
  C   C2097     1.0  0.58275  0.51436  0.54391  1.0000
  H   H3567     1.0  0.52003  0.66275  0.74752  1.0000
  H   H3568     1.0  0.58875  0.50521  0.51079  1.0000
  C   C2098     1.0  0.56528  0.47154  0.53830  1.0000
  C   C2099     1.0  0.61838  0.57917  0.73803  1.0000
  H   H3569     1.0  0.55168  0.46304  0.50538  1.0000
  C   C2100     1.0  0.56423  0.39769  0.89465  1.0000
  C   C2101     1.0  0.61545  0.52633  0.54955  1.0000
  H   H3570     1.0  0.62520  0.58634  0.74094  1.0000
  C   C2102     1.0  0.59615  0.39088  0.73767  1.0000
  S   S603      1.0  0.69907  0.45286  0.51058  1.0000
  H   H3571     1.0  0.58076  0.45928  0.54139  1.0000
  C   C2103     1.0  0.58866  0.38008  0.50237  1.0000
  C   C2104     1.0  0.52612  0.46338  0.53060  1.0000
  H   H3572     1.0  0.58832  0.39371  0.73362  1.0000
  H   H3573     1.0  0.59319  0.40501  0.91629  1.0000
  C   C2105     1.0  0.58547  0.56480  0.77437  1.0000
  H   H3574     1.0  0.58967  0.39452  0.52395  1.0000
  H   H3575     1.0  0.51751  0.66483  0.51478  1.0000
  H   H3576     1.0  0.74752  0.49604  0.52436  1.0000
  H   H3577     1.0  0.55574  0.50351  0.71795  1.0000
  H   H3578     1.0  0.73004  0.45372  0.52026  1.0000
  N   N145      1.0  0.73843  0.39118  0.70396  1.0000
  H   H3579     1.0  0.54852  0.57998  0.63122  1.0000
  H   H3580     1.0  0.56190  0.47005  0.70082  1.0000
  H   H3581     1.0  0.55685  0.45479  0.58995  1.0000
  H   H3582     1.0  0.69367  0.42507  0.53522  1.0000
  C   C2106     1.0  0.54308  0.44892  0.78360  1.0000
  C   C2107     1.0  0.55847  0.44767  0.57973  1.0000
  H   H3583     1.0  0.73075  0.46442  0.48783  1.0000
  H   H3584     1.0  0.56876  0.53556  0.52363  1.0000
  C   C2108     1.0  0.62082  0.58023  0.70562  1.0000
  C   C2109     1.0  0.56540  0.48222  0.64306  1.0000
  H   H3585     1.0  0.57123  0.36306  0.80792  1.0000
  H   H3586     1.0  0.59580  0.56972  0.73054  1.0000
  H   H3587     1.0  0.59831  0.58159  0.79486  1.0000
  H   H3588     1.0  0.56000  0.38904  0.81515  1.0000
  C   C2110     1.0  0.62037  0.36479  0.97942  1.0000
  C   C2111     1.0  0.73523  0.45818  0.49802  1.0000
  S   S604      1.0  0.57516  0.42088  0.86344  1.0000
  C   C2112     1.0  0.55621  0.49036  0.69282  1.0000
  H   H3589     1.0  0.55697  0.48458  0.64361  1.0000
  H   H3590     1.0  0.59134  0.60125  0.73522  1.0000
  H   H3591     1.0  0.74596  0.41019  0.63617  1.0000
  C   C2113     1.0  0.59754  0.56864  0.75205  1.0000
  N   N146      1.0  0.51014  0.65456  0.70181  1.0000
  H   H3592     1.0  0.55197  0.43944  0.59329  1.0000
  H   H3593     1.0  0.67810  0.54304  0.52380  1.0000
  H   H3594     1.0  0.56654  0.50000  0.52672  1.0000
  Fe  Fe303     1.0  0.50505  0.63803  0.97154  1.0000
  H   H3595     1.0  0.59966  0.38736  0.71952  1.0000
  H   H3596     1.0  0.53498  0.65680  0.67877  1.0000
  C   C2114     1.0  0.57321  0.49024  0.65623  1.0000
  H   H3597     1.0  0.54992  0.48202  0.69350  1.0000
  H   H3598     1.0  0.58451  0.55617  0.78935  1.0000
  C   C2115     1.0  0.56352  0.50764  0.51724  1.0000
  H   H3599     1.0  0.51968  0.60217  0.52825  1.0000
  C   C2116     1.0  0.60823  0.39487  0.79608  1.0000
  H   H3600     1.0  0.52507  0.53988  0.64753  1.0000
  H   H3601     1.0  0.58457  0.58594  0.74483  1.0000
  Fe  Fe304     1.0  0.56361  0.43273  0.87696  1.0000
  H   H3602     1.0  0.60314  0.56112  0.80228  1.0000
  C   C2117     1.0  0.59550  0.39513  0.79594  1.0000
  C   C2118     1.0  0.74689  0.47691  0.56245  1.0000
  H   H3603     1.0  0.74414  0.45919  0.75386  1.0000
  H   H3604     1.0  0.60125  0.37833  0.76710  1.0000
  H   H3605     1.0  0.74307  0.47478  0.97365  1.0000
  H   H3606     1.0  0.66994  0.34221  0.63640  1.0000
  N   N147      1.0  0.58782  0.38417  0.79248  1.0000
  C   C2119     1.0  0.50797  0.63823  0.57763  1.0000
  C   C2120     1.0  0.57714  0.45865  0.52263  1.0000
  H   H3607     1.0  0.56731  0.44643  0.58003  1.0000
  H   H3608     1.0  0.58357  0.57110  0.78690  1.0000
  H   H3609     1.0  0.55798  0.47247  0.74795  1.0000
  C   C2121     1.0  0.52691  0.63404  0.57300  1.0000
  H   H3610     1.0  0.57456  0.49947  0.64367  1.0000
  C   C2122     1.0  0.51933  0.54266  0.66399  1.0000
  H   H3611     1.0  0.54984  0.47706  0.52872  1.0000
  H   H3612     1.0  0.54849  0.44434  0.79419  1.0000
  H   H3613     1.0  0.52509  0.47068  0.53970  1.0000
  C   C2123     1.0  0.52991  0.65972  0.66364  1.0000
  H   H3614     1.0  0.57341  0.49904  0.71763  1.0000
  H   H3615     1.0  0.55714  0.44175  0.54208  1.0000
  H   H3616     1.0  0.74428  0.37130  0.68312  1.0000
  H   H3617     1.0  0.60135  0.56090  0.75487  1.0000
  H   H3618     1.0  0.61831  0.56930  0.79449  1.0000
  C   C2124     1.0  0.51048  0.42829  0.89808  1.0000
  C   C2125     1.0  0.64059  0.51506  0.51806  1.0000
  H   H3619     1.0  0.65417  0.48431  0.89283  1.0000
  C   C2126     1.0  0.52957  0.45547  0.48850  1.0000
  N   N148      1.0  0.53631  0.55756  0.67220  1.0000
  S   S605      1.0  0.74253  0.34641  0.71735  1.0000
  C   C2127     1.0  0.60652  0.58028  0.78280  1.0000
  H   H3620     1.0  0.58341  0.35665  0.80828  1.0000
  H   H3621     1.0  0.52755  0.55687  0.73233  1.0000
  H   H3622     1.0  0.56009  0.36762  0.49862  1.0000
  S   S606      1.0  0.62057  0.51312  0.97667  1.0000
  H   H3623     1.0  0.57394  0.35732  0.84104  1.0000
  H   H3624     1.0  0.72743  0.38847  0.74645  1.0000
  H   H3625     1.0  0.58249  0.53321  0.57033  1.0000
  H   H3626     1.0  0.59233  0.38726  0.87168  1.0000
  H   H3627     1.0  0.57767  0.39816  0.49573  1.0000
  C   C2128     1.0  0.52684  0.44309  0.53616  1.0000
  S   S607      1.0  0.54972  0.45831  0.89150  1.0000
  H   H3628     1.0  0.59406  0.50558  0.69908  1.0000
  Fe  Fe305     1.0  0.52389  0.46356  0.61288  1.0000
  S   S608      1.0  0.52345  0.45017  0.58596  1.0000
  Fe  Fe306     1.0  0.52955  0.46535  0.67098  1.0000
  H   H3629     1.0  0.65689  0.53467  0.51797  1.0000
  H   H3630     1.0  0.52099  0.46290  0.90626  1.0000
  H   H3631     1.0  0.58481  0.54589  0.54096  1.0000
  H   H3632     1.0  0.66869  0.35041  0.58788  1.0000
  C   C2129     1.0  0.67745  0.51149  0.51125  1.0000
  C   C2130     1.0  0.57828  0.53788  0.55531  1.0000
  N   N149      1.0  0.60622  0.57952  0.75286  1.0000
  H   H3633     1.0  0.50737  0.61137  0.57662  1.0000
  H   H3634     1.0  0.61787  0.35189  0.56044  1.0000
  H   H3635     1.0  0.50216  0.41298  0.94776  1.0000
  H   H3636     1.0  0.61331  0.58826  0.78214  1.0000
  H   H3637     1.0  0.58195  0.48834  0.65155  1.0000
  H   H3638     1.0  0.58736  0.40441  0.98044  1.0000
  H   H3639     1.0  0.65171  0.50572  0.49719  1.0000
  C   C2131     1.0  0.55664  0.44987  0.54933  1.0000
  H   H3640     1.0  0.57141  0.54090  0.56836  1.0000
  C   C2132     1.0  0.71890  0.39723  0.71825  1.0000
  H   H3641     1.0  0.54190  0.49382  0.72154  1.0000
  H   H3642     1.0  0.74136  0.50051  0.49548  1.0000
  C   C2133     1.0  0.59285  0.40230  0.96209  1.0000
  H   H3643     1.0  0.54371  0.58852  0.65454  1.0000
  H   H3644     1.0  0.62899  0.57755  0.69839  1.0000
  H   H3645     1.0  0.74883  0.45489  0.61498  1.0000
  H   H3646     1.0  0.74997  0.40880  0.68757  1.0000
  H   H3647     1.0  0.58724  0.49751  0.54636  1.0000
  H   H3648     1.0  0.51619  0.42912  0.97711  1.0000
  S   S609      1.0  0.52699  0.48357  0.66587  1.0000
  C   C2134     1.0  0.52897  0.44459  0.50637  1.0000
  H   H3649     1.0  0.53387  0.63202  0.58230  1.0000
  H   H3650     1.0  0.57258  0.48179  0.74265  1.0000
  H   H3651     1.0  0.50247  0.58286  0.84228  1.0000
  C   C2135     1.0  0.57450  0.40588  0.87731  1.0000
  S   S610      1.0  0.60753  0.37237  0.88322  1.0000
  H   H3652     1.0  0.56532  0.37817  0.83528  1.0000
  H   H3653     1.0  0.58780  0.51841  0.55747  1.0000
  H   H3654     1.0  0.60773  0.57045  0.82390  1.0000
  C   C2136     1.0  0.55133  0.49421  0.71970  1.0000
  C   C2137     1.0  0.52460  0.55537  0.66511  1.0000
  H   H3655     1.0  0.51801  0.55784  0.68042  1.0000
  H   H3656     1.0  0.57836  0.56339  0.76336  1.0000
  C   C2138     1.0  0.67662  0.35391  0.59477  1.0000
  H   H3657     1.0  0.67363  0.54919  0.49273  1.0000
  C   C2139     1.0  0.53691  0.45570  0.74009  1.0000
  C   C2140     1.0  0.73030  0.39513  0.72537  1.0000
  C   C2141     1.0  0.51929  0.63835  0.53063  1.0000
  C   C2142     1.0  0.51219  0.60552  0.53739  1.0000
  H   H3658     1.0  0.56850  0.44861  0.48510  1.0000
  C   C2143     1.0  0.50033  0.60083  0.50438  1.0000
  H   H3659     1.0  0.60197  0.40711  0.96039  1.0000
  C   C2144     1.0  0.50447  0.59006  0.85293  1.0000
  C   C2145     1.0  0.59166  0.59262  0.74814  1.0000
  C   C2146     1.0  0.57248  0.52996  0.53833  1.0000
  H   H3660     1.0  0.52214  0.61032  0.56721  1.0000
  H   H3661     1.0  0.53318  0.57975  0.64173  1.0000
  H   H3662     1.0  0.66195  0.48886  0.96480  1.0000
  Fe  Fe307     1.0  0.58980  0.35967  0.89727  1.0000
  S   S611      1.0  0.57357  0.36660  0.90561  1.0000
  N   N150      1.0  0.58021  0.52372  0.52239  1.0000
  H   H3663     1.0  0.59957  0.38560  0.52962  1.0000
  H   H3664     1.0  0.51071  0.59715  0.58281  1.0000
  H   H3665     1.0  0.56933  0.47118  0.55666  1.0000
  H   H3666     1.0  0.51703  0.44846  0.96840  1.0000
  H   H3667     1.0  0.59499  0.46535  0.49557  1.0000
  H   H3668     1.0  0.52520  0.56111  0.64386  1.0000
  H   H3669     1.0  0.50081  0.42497  0.90538  1.0000
  S   S612      1.0  0.62445  0.36591  0.94230  1.0000
  C   C2147     1.0  0.74507  0.46866  0.54273  1.0000
  H   H3670     1.0  0.60431  0.59062  0.71438  1.0000
  H   H3671     1.0  0.53150  0.66162  0.71909  1.0000
  C   C2148     1.0  0.57416  0.38179  0.89491  1.0000
  C   C2149     1.0  0.58449  0.39005  0.87823  1.0000
  H   H3672     1.0  0.57053  0.35979  0.50938  1.0000
  H   H3673     1.0  0.69148  0.42716  0.49951  1.0000
  H   H3674     1.0  0.57077  0.46692  0.74358  1.0000
  H   H3675     1.0  0.59259  0.40829  0.85593  1.0000
  C   C2150     1.0  0.58461  0.40199  0.86927  1.0000
  H   H3676     1.0  0.59665  0.53589  0.51886  1.0000
  C   C2151     1.0  0.65263  0.51232  0.51006  1.0000
  C   C2152     1.0  0.58957  0.40808  0.93498  1.0000
  H   H3677     1.0  0.54094  0.46220  0.95963  1.0000
  H   H3678     1.0  0.53118  0.66940  0.65894  1.0000
  S   S613      1.0  0.59372  0.34912  0.86514  1.0000
  H   H3679     1.0  0.74221  0.48898  0.83248  1.0000
  H   H3680     1.0  0.63374  0.50663  0.52795  1.0000
  C   C2153     1.0  0.53498  0.45356  0.79929  1.0000
  H   H3681     1.0  0.55449  0.48181  0.55746  1.0000
  H   H3682     1.0  0.59526  0.37218  0.81770  1.0000
  C   C2154     1.0  0.66338  0.54209  0.95237  1.0000
  H   H3683     1.0  0.64592  0.54174  0.97476  1.0000
  H   H3684     1.0  0.61936  0.38186  0.49417  1.0000
  S   S614      1.0  0.53303  0.45190  0.83673  1.0000
  H   H3685     1.0  0.61757  0.39018  0.91854  1.0000
  C   C2155     1.0  0.57367  0.38989  0.49064  1.0000
  C   C2156     1.0  0.56890  0.47697  0.70374  1.0000
  H   H3686     1.0  0.62226  0.58948  0.69328  1.0000
  H   H3687     1.0  0.53371  0.65772  0.64329  1.0000
  C   C2157     1.0  0.60906  0.56962  0.80158  1.0000
  H   H3688     1.0  0.52817  0.44914  0.93863  1.0000
  H   H3689     1.0  0.50403  0.58611  0.87548  1.0000
  C   C2158     1.0  0.51102  0.66738  0.70072  1.0000
  Fe  Fe308     1.0  0.59984  0.33801  0.89895  1.0000
  H   H3690     1.0  0.57732  0.39516  0.77556  1.0000
  H   H3691     1.0  0.59169  0.39704  0.81632  1.0000
  C   C2159     1.0  0.57642  0.49890  0.69503  1.0000
  H   H3692     1.0  0.57594  0.50755  0.68242  1.0000
  C   C2160     1.0  0.52802  0.46482  0.50084  1.0000
  H   H3693     1.0  0.52298  0.42661  0.94471  1.0000
  C   C2161     1.0  0.57836  0.36215  0.81842  1.0000
  H   H3694     1.0  0.52837  0.47324  0.48720  1.0000
  H   H3695     1.0  0.74700  0.39456  0.75458  1.0000
  N   N151      1.0  0.51139  0.43812  0.93993  1.0000
  H   H3696     1.0  0.59587  0.40303  0.77910  1.0000
  C   C2162     1.0  0.58632  0.46730  0.49640  1.0000
  H   H3697     1.0  0.55637  0.40056  0.90085  1.0000
  H   H3698     1.0  0.51736  0.53619  0.68496  1.0000
  H   H3699     1.0  0.65015  0.38185  0.86273  1.0000
  H   H3700     1.0  0.74460  0.44556  0.86015  1.0000
  H   H3701     1.0  0.72644  0.37399  0.71309  1.0000
  H   H3702     1.0  0.50356  0.59783  0.65673  1.0000
  H   H3703     1.0  0.71265  0.38886  0.71933  1.0000
  H   H3704     1.0  0.73395  0.47957  0.51075  1.0000
  C   C2163     1.0  0.73152  0.38146  0.69429  1.0000
  H   H3705     1.0  0.51282  0.43074  0.87432  1.0000
  H   H3706     1.0  0.68566  0.50917  0.50239  1.0000
  H   H3707     1.0  0.74825  0.46080  0.55028  1.0000
  H   H3708     1.0  0.58195  0.37407  0.52146  1.0000
  C   C2164     1.0  0.55409  0.49797  0.98079  1.0000
  H   H3709     1.0  0.50973  0.58828  0.48954  1.0000
  C   C2165     1.0  0.50556  0.63395  0.83389  1.0000
  H   H3710     1.0  0.55476  0.49324  0.96365  1.0000
  H   H3711     1.0  0.63810  0.51955  0.49919  1.0000
  H   H3712     1.0  0.61155  0.40260  0.91699  1.0000
  H   H3713     1.0  0.67944  0.51704  0.52587  1.0000
  C   C2166     1.0  0.74580  0.40146  0.67943  1.0000
  C   C2167     1.0  0.74665  0.38600  0.71904  1.0000
  H   H3714     1.0  0.74190  0.37739  0.73468  1.0000
  C   C2168     1.0  0.51743  0.46092  0.92973  1.0000
  H   H3715     1.0  0.52994  0.43727  0.49725  1.0000
  C   C2169     1.0  0.66799  0.42632  0.48446  1.0000
  H   H3716     1.0  0.52476  0.44166  0.90034  1.0000
  C   C2170     1.0  0.52371  0.65659  0.73664  1.0000
  C   C2171     1.0  0.74883  0.44893  0.63524  1.0000
  H   H3717     1.0  0.50504  0.50119  0.61608  1.0000
  H   H3718     1.0  0.70265  0.35374  0.56865  1.0000
  H   H3719     1.0  0.60124  0.37711  0.95420  1.0000
  H   H3720     1.0  0.73203  0.40099  0.65499  1.0000
  H   H3721     1.0  0.67098  0.50305  0.52335  1.0000
  H   H3722     1.0  0.52681  0.65090  0.75258  1.0000
  H   H3723     1.0  0.56686  0.36695  0.97069  1.0000
  C   C2172     1.0  0.59551  0.38979  0.51332  1.0000
  H   H3724     1.0  0.61670  0.39694  0.94740  1.0000
  H   H3725     1.0  0.71448  0.40113  0.73455  1.0000
  H   H3726     1.0  0.58004  0.51613  0.48599  1.0000
  H   H3727     1.0  0.63385  0.34351  0.58506  1.0000
  H   H3728     1.0  0.74299  0.47331  0.87163  1.0000
  H   H3729     1.0  0.73513  0.45128  0.48609  1.0000
  H   H3730     1.0  0.73093  0.44572  0.82912  1.0000
  S   S615      1.0  0.50394  0.62731  0.93939  1.0000
  C   C2173     1.0  0.74811  0.46415  0.49627  1.0000
  C   C2174     1.0  0.51422  0.64877  0.72692  1.0000
  H   H3731     1.0  0.51212  0.44646  0.89605  1.0000
  C   C2175     1.0  0.51871  0.44889  0.94518  1.0000
  C   C2176     1.0  0.56086  0.46223  0.50081  1.0000
  H   H3732     1.0  0.50962  0.40865  0.97408  1.0000
  C   C2177     1.0  0.65455  0.54204  0.97991  1.0000
  S   S616      1.0  0.64596  0.33809  0.62862  1.0000
  C   C2178     1.0  0.67547  0.54115  0.50462  1.0000
  H   H3733     1.0  0.66096  0.53393  0.94530  1.0000
  H   H3734     1.0  0.55689  0.50941  0.53381  1.0000
  H   H3735     1.0  0.74363  0.44984  0.90482  1.0000
  H   H3736     1.0  0.73705  0.41481  0.66325  1.0000
  H   H3737     1.0  0.50222  0.64168  0.53867  1.0000
  S   S617      1.0  0.52150  0.64025  0.49300  1.0000
  N   N152      1.0  0.66293  0.52278  0.49446  1.0000
  C   C2179     1.0  0.57902  0.38354  0.96781  1.0000
  C   C2180     1.0  0.56768  0.36419  0.49100  1.0000
  C   C2181     1.0  0.73969  0.40706  0.65766  1.0000
  C   C2182     1.0  0.73879  0.37631  0.67294  1.0000
  H   H3738     1.0  0.55272  0.44488  0.49552  1.0000
  C   C2183     1.0  0.74751  0.49548  0.50240  1.0000
  H   H3739     1.0  0.60278  0.39620  0.49628  1.0000
  C   C2184     1.0  0.74303  0.45417  0.85058  1.0000
  C   C2185     1.0  0.73946  0.45245  0.82310  1.0000
  C   C2186     1.0  0.50992  0.59774  0.48365  1.0000
  C   C2187     1.0  0.56075  0.45220  0.48560  1.0000
  C   C2188     1.0  0.57538  0.36993  0.97571  1.0000
  H   H3740     1.0  0.50712  0.66352  0.48429  1.0000
  H   H3741     1.0  0.74434  0.38318  0.65365  1.0000
  H   H3742     1.0  0.74689  0.35145  0.54421  1.0000
  H   H3743     1.0  0.74069  0.33865  0.57295  1.0000
  H   H3744     1.0  0.60731  0.33686  0.60469  1.0000
  H   H3745     1.0  0.70696  0.34153  0.55770  1.0000
  H   H3746     1.0  0.50546  0.60634  0.88997  1.0000
  H   H3747     1.0  0.50115  0.61039  0.49584  1.0000
  N   N153      1.0  0.50079  0.59820  0.53519  1.0000
  H   H3748     1.0  0.75003  0.48337  0.80621  1.0000
  C   C2189     1.0  0.74963  0.47519  0.85095  1.0000
  H   H3749     1.0  0.74918  0.46452  0.90837  1.0000
  H   H3750     1.0  0.65861  0.42393  0.48428  1.0000
  H   H3751     1.0  0.64096  0.33715  0.91306  1.0000
  H   H3752     1.0  0.73631  0.45944  0.98215  1.0000
  H   H3753     1.0  0.51358  0.98872  0.03736  1.0000
  H   H3754     1.0  0.52188  0.97073  0.13895  1.0000
  Fe  Fe309     1.0  0.51395  0.93122  0.47930  1.0000
  Fe  Fe310     1.0  0.54297  0.99145  0.16631  1.0000
  S   S618      1.0  0.52814  0.98223  0.20495  1.0000
  S   S619      1.0  0.54594  0.98659  0.12269  1.0000
  H   H3755     1.0  0.54404  0.92017  0.43761  1.0000
  C   C2190     1.0  0.54163  0.91383  0.42500  1.0000
  C   C2191     1.0  0.54363  0.92000  0.39316  1.0000
  Fe  Fe311     1.0  0.54027  0.98713  0.23234  1.0000
  S   S620      1.0  0.53708  0.97203  0.27241  1.0000
  C   C2192     1.0  0.54071  0.93538  0.35615  1.0000
  H   H3756     1.0  0.54730  0.90765  0.42691  1.0000
  S   S621      1.0  0.55587  0.99511  0.19331  1.0000
  C   C2193     1.0  0.53619  0.93666  0.40562  1.0000
  N   N154      1.0  0.53605  0.92826  0.38681  1.0000
  C   C2194     1.0  0.51761  0.68831  0.43489  1.0000
  H   H3757     1.0  0.54997  0.94049  0.35214  1.0000
  Fe  Fe312     1.0  0.52406  0.95686  0.44425  1.0000
  H   H3758     1.0  0.54220  0.91284  0.38208  1.0000
  H   H3759     1.0  0.53182  0.93209  0.42848  1.0000
  H   H3760     1.0  0.50497  0.98071  0.11326  1.0000
  H   H3761     1.0  0.55312  0.92454  0.38443  1.0000
  C   C2195     1.0  0.51955  0.96496  0.10114  1.0000
  S   S622      1.0  0.50134  0.93512  0.01641  1.0000
  Fe  Fe313     1.0  0.52489  0.99993  0.20449  1.0000
  S   S623      1.0  0.51384  0.91190  0.48134  1.0000
  S   S624      1.0  0.50707  0.00324  0.20624  1.0000
  H   H3762     1.0  0.53245  0.90854  0.43476  1.0000
  C   C2196     1.0  0.53741  0.97817  0.10421  1.0000
  C   C2197     1.0  0.54236  0.97863  0.07544  1.0000
  C   C2198     1.0  0.53600  0.97235  0.05965  1.0000
  C   C2199     1.0  0.52452  0.96541  0.07236  1.0000
  C   C2200     1.0  0.52589  0.97126  0.11691  1.0000
  H   H3763     1.0  0.55124  0.98388  0.06524  1.0000
  C   C2201     1.0  0.51488  0.92744  0.38208  1.0000
  C   C2202     1.0  0.53582  0.97252  0.30866  1.0000
  C   C2203     1.0  0.54361  0.98099  0.31620  1.0000
  C   C2204     1.0  0.54349  0.98005  0.34519  1.0000
  C   C2205     1.0  0.53544  0.97083  0.36711  1.0000
  C   C2206     1.0  0.52765  0.96338  0.33062  1.0000
  H   H3764     1.0  0.55006  0.98796  0.29962  1.0000
  H   H3765     1.0  0.54983  0.98643  0.35062  1.0000
  C   C2207     1.0  0.54833  0.94464  0.40347  1.0000
  H   H3766     1.0  0.51152  0.82032  0.28283  1.0000
  H   H3767     1.0  0.50106  0.80638  0.29766  1.0000
  H   H3768     1.0  0.52086  0.95573  0.37622  1.0000
  H   H3769     1.0  0.51317  0.98994  0.14073  1.0000
  H   H3770     1.0  0.50462  0.82888  0.36652  1.0000
  S   S625      1.0  0.51589  0.95735  0.05337  1.0000
  H   H3771     1.0  0.55057  0.95274  0.38571  1.0000
  H   H3772     1.0  0.51721  0.93079  0.35851  1.0000
  H   H3773     1.0  0.54678  0.92256  0.33454  1.0000
  S   S626      1.0  0.51348  0.96385  0.47693  1.0000
  S   S627      1.0  0.50904  0.94245  0.44381  1.0000
  H   H3774     1.0  0.52415  0.67884  0.46717  1.0000
  H   H3775     1.0  0.52163  0.95676  0.32506  1.0000
  H   H3776     1.0  0.55551  0.94022  0.40059  1.0000
  H   H3777     1.0  0.52643  0.69086  0.41970  1.0000
  H   H3778     1.0  0.53173  0.92279  0.33543  1.0000
  H   H3779     1.0  0.53080  0.94284  0.40023  1.0000
  C   C2208     1.0  0.54060  0.92823  0.33357  1.0000
  C   C2209     1.0  0.50544  0.88921  0.47753  1.0000
  H   H3780     1.0  0.51985  0.91702  0.41588  1.0000
  H   H3781     1.0  0.52652  0.99974  0.11623  1.0000
  C   C2210     1.0  0.52363  0.92095  0.39255  1.0000
  S   S628      1.0  0.53639  0.96952  0.40310  1.0000
  C   C2211     1.0  0.50233  0.81594  0.29533  1.0000
  C   C2212     1.0  0.51751  0.99916  0.12832  1.0000
  H   H3782     1.0  0.54004  0.97285  0.03766  1.0000
  C   C2213     1.0  0.50473  0.90098  0.47003  1.0000
  H   H3783     1.0  0.54357  0.93447  0.31197  1.0000
  H   H3784     1.0  0.52333  0.91326  0.38311  1.0000
  H   H3785     1.0  0.52475  0.69354  0.46837  1.0000
  H   H3786     1.0  0.51339  0.70655  0.46524  1.0000
  C   C2214     1.0  0.51897  0.68554  0.46573  1.0000
  Fe  Fe314     1.0  0.51505  0.95205  0.01087  1.0000
  H   H3787     1.0  0.50448  0.97798  0.21916  1.0000
  H   H3788     1.0  0.50608  0.92114  0.38840  1.0000
  H   H3789     1.0  0.53589  0.94220  0.35127  1.0000
  H   H3790     1.0  0.51398  0.93475  0.39203  1.0000
  H   H3791     1.0  0.51069  0.95969  0.11145  1.0000
  C   C2215     1.0  0.52729  0.96268  0.35966  1.0000
  H   H3792     1.0  0.50098  0.82885  0.31869  1.0000
  C   C2216     1.0  0.52023  0.99640  0.03815  1.0000
  H   H3793     1.0  0.52271  0.99058  0.07996  1.0000
  H   H3794     1.0  0.54819  0.94727  0.42376  1.0000
  H   H3795     1.0  0.52892  0.99497  0.02932  1.0000
  H   H3796     1.0  0.50791  0.81813  0.33295  1.0000
  H   H3797     1.0  0.51361  0.69579  0.43022  1.0000
  H   H3798     1.0  0.50208  0.97361  0.07431  1.0000
  N   N155      1.0  0.50791  0.99825  0.08619  1.0000
  S   S629      1.0  0.53000  0.94530  0.47790  1.0000
  H   H3799     1.0  0.51242  0.68056  0.43017  1.0000
  C   C2217     1.0  0.51959  0.99784  0.06866  1.0000
  H   H3800     1.0  0.50049  0.00200  0.04969  1.0000
  H   H3801     1.0  0.52927  0.99866  0.57110  1.0000
  H   H3802     1.0  0.50923  0.91077  0.84562  1.0000
  H   H3803     1.0  0.52600  0.92502  0.91503  1.0000
  Fe  Fe315     1.0  0.54323  0.99306  0.66664  1.0000
  S   S630      1.0  0.52914  0.98149  0.70495  1.0000
  S   S631      1.0  0.54647  0.98913  0.62188  1.0000
  H   H3804     1.0  0.53501  0.95565  0.87341  1.0000
  C   C2218     1.0  0.50498  0.89104  0.97192  1.0000
  C   C2219     1.0  0.51065  0.68069  0.51734  1.0000
  Fe  Fe316     1.0  0.54092  0.98737  0.73217  1.0000
  S   S632      1.0  0.54274  0.97416  0.77063  1.0000
  H   H3805     1.0  0.52614  0.96795  0.64106  1.0000
  C   C2220     1.0  0.52496  0.93076  0.84629  1.0000
  C   C2221     1.0  0.57394  0.99396  0.75308  1.0000
  H   H3806     1.0  0.52223  0.93704  0.83071  1.0000
  Fe  Fe317     1.0  0.51835  0.95150  0.51082  1.0000
  H   H3807     1.0  0.51643  0.95520  0.61423  1.0000
  H   H3808     1.0  0.54075  0.97624  0.53557  1.0000
  C   C2222     1.0  0.51994  0.99901  0.62347  1.0000
  H   H3809     1.0  0.52930  0.91112  0.91811  1.0000
  H   H3810     1.0  0.55619  0.99077  0.79805  1.0000
  N   N156      1.0  0.51068  0.99782  0.58095  1.0000
  H   H3811     1.0  0.53575  0.91800  0.84168  1.0000
  C   C2223     1.0  0.52428  0.99825  0.53262  1.0000
  C   C2224     1.0  0.50694  0.98454  0.59067  1.0000
  H   H3812     1.0  0.53967  0.93081  0.81258  1.0000
  H   H3813     1.0  0.56617  0.99348  0.74429  1.0000
  H   H3814     1.0  0.50888  0.68377  0.67677  1.0000
  H   H3815     1.0  0.51038  0.90900  0.90829  1.0000
  C   C2225     1.0  0.53907  0.97944  0.60384  1.0000
  C   C2226     1.0  0.54308  0.98155  0.57391  1.0000
  C   C2227     1.0  0.53749  0.97438  0.55851  1.0000
  C   C2228     1.0  0.52779  0.96479  0.57274  1.0000
  C   C2229     1.0  0.52938  0.96983  0.61812  1.0000
  H   H3816     1.0  0.55060  0.98884  0.56244  1.0000
  H   H3817     1.0  0.54149  0.95683  0.82149  1.0000
  C   C2230     1.0  0.53667  0.97294  0.80744  1.0000
  C   C2231     1.0  0.53186  0.98164  0.81646  1.0000
  C   C2232     1.0  0.52852  0.98113  0.84583  1.0000
  C   C2233     1.0  0.52952  0.97172  0.86667  1.0000
  C   C2234     1.0  0.53758  0.96347  0.82826  1.0000
  H   H3818     1.0  0.53112  0.98899  0.80078  1.0000
  H   H3819     1.0  0.52525  0.98815  0.85247  1.0000
  Fe  Fe318     1.0  0.52346  0.99798  0.70718  1.0000
  C   C2235     1.0  0.53389  0.96277  0.85771  1.0000
  H   H3820     1.0  0.50294  0.92555  0.90679  1.0000
  C   C2236     1.0  0.53209  0.92422  0.82851  1.0000
  H   H3821     1.0  0.51116  0.88694  0.49080  1.0000
  S   S633      1.0  0.52669  0.97239  0.90300  1.0000
  H   H3822     1.0  0.51852  0.00129  0.51954  1.0000
  H   H3823     1.0  0.50072  0.98165  0.61215  1.0000
  C   C2237     1.0  0.52802  0.91862  0.90275  1.0000
  H   H3824     1.0  0.51457  0.98102  0.59330  1.0000
  C   C2238     1.0  0.56811  0.99218  0.82539  1.0000
  H   H3825     1.0  0.52304  0.98858  0.53648  1.0000
  S   S634      1.0  0.50572  0.94142  0.94617  1.0000
  C   C2239     1.0  0.51123  0.00264  0.60669  1.0000
  C   C2240     1.0  0.52388  0.96256  0.60275  1.0000
  S   S635      1.0  0.55596  0.99782  0.69362  1.0000
  H   H3826     1.0  0.50262  0.67859  0.53521  1.0000
  S   S636      1.0  0.52000  0.95558  0.55430  1.0000
  H   H3827     1.0  0.56408  0.98253  0.83332  1.0000
  H   H3828     1.0  0.51897  0.98938  0.62892  1.0000
  C   C2241     1.0  0.50369  0.93966  0.87083  1.0000
  N   N157      1.0  0.50770  0.68131  0.48902  1.0000
  H   H3829     1.0  0.52689  0.91954  0.81623  1.0000
  C   C2242     1.0  0.51795  0.91395  0.88983  1.0000
  H   H3830     1.0  0.51812  0.00148  0.64403  1.0000
  H   H3831     1.0  0.51102  0.67374  0.65537  1.0000
  H   H3832     1.0  0.53646  0.92261  0.88635  1.0000
  H   H3833     1.0  0.53114  0.93641  0.85495  1.0000
  H   H3834     1.0  0.52038  0.90715  0.87920  1.0000
  H   H3835     1.0  0.50369  0.92334  0.83969  1.0000
  H   H3836     1.0  0.50328  0.98237  0.54886  1.0000
  S   S637      1.0  0.50493  0.99947  0.71160  1.0000
  C   C2243     1.0  0.50078  0.97793  0.57188  1.0000
  H   H3837     1.0  0.51239  0.88879  0.97875  1.0000
  S   S638      1.0  0.52769  0.94804  0.97537  1.0000
  S   S639      1.0  0.50283  0.93636  0.51461  1.0000
  N   N158      1.0  0.51450  0.92313  0.86982  1.0000
  H   H3838     1.0  0.50713  0.97769  0.69721  1.0000
  H   H3839     1.0  0.51646  0.93640  0.89342  1.0000
  H   H3840     1.0  0.58127  0.99342  0.73609  1.0000
  Fe  Fe319     1.0  0.51905  0.95770  0.94462  1.0000
  C   C2244     1.0  0.50564  0.91695  0.85666  1.0000
  S   S640      1.0  0.53395  0.00295  0.73730  1.0000
  H   H3841     1.0  0.53345  0.00229  0.51958  1.0000
  C   C2245     1.0  0.56104  0.99774  0.80610  1.0000
  H   H3842     1.0  0.52769  0.67703  0.51914  1.0000
  H   H3843     1.0  0.50998  0.94601  0.85165  1.0000
  H   H3844     1.0  0.50257  0.99970  0.62257  1.0000
  C   C2246     1.0  0.50947  0.93090  0.88660  1.0000
  C   C2247     1.0  0.50353  0.90249  0.97023  1.0000
  C   C2248     1.0  0.52278  0.00200  0.56080  1.0000
  Fe  Fe320     1.0  0.51311  0.93191  0.97903  1.0000
  H   H3845     1.0  0.57220  0.98610  0.77118  1.0000
  H   H3846     1.0  0.50743  0.70391  0.50342  1.0000
  H   H3847     1.0  0.51562  0.68950  0.51793  1.0000
  S   S641      1.0  0.51415  0.91309  0.97845  1.0000
  C   C2249     1.0  0.50669  0.67430  0.67689  1.0000
  C   C2250     1.0  0.50041  0.98059  0.68858  1.0000
  C   C2251     1.0  0.51828  0.67220  0.52510  1.0000
  H   H3848     1.0  0.56803  0.99602  0.84403  1.0000
  S   S642      1.0  0.50725  0.96248  0.97984  1.0000
  H   H3849     1.0  0.55398  0.99992  0.82074  1.0000
  H   H3850     1.0  0.57731  0.99320  0.81410  1.0000
  C   C2252     1.0  0.50225  0.00304  0.56694  1.0000
  H   H3851     1.0  0.50135  0.00004  0.54761  1.0000
  H   H3852     1.0  0.50303  0.96932  0.57369  1.0000
  H   H3853     1.0  0.52020  0.67233  0.69797  1.0000
  H   H3854     1.0  0.50060  0.94497  0.88533  1.0000
  C   C2253     1.0  0.50543  0.70264  0.48320  1.0000
  C   C2254     1.0  0.75243  0.29719  0.99016  1.0000
  C   C2255     1.0  0.75422  0.29349  0.41324  1.0000
  C   C2256     1.0  0.78240  0.33065  0.29550  1.0000
  C   C2257     1.0  0.77466  0.30126  0.41338  1.0000
  H   H3855     1.0  0.80313  0.32657  0.30454  1.0000
  C   C2258     1.0  0.79784  0.32127  0.32620  1.0000
  C   C2259     1.0  0.75413  0.31945  0.11959  1.0000
  H   H3856     1.0  0.80411  0.32007  0.33952  1.0000
  C   C2260     1.0  0.76060  0.31219  0.42608  1.0000
  H   H3857     1.0  0.75850  0.31972  0.43270  1.0000
  S   S643      1.0  0.78447  0.32184  0.42507  1.0000
  H   H3858     1.0  0.75449  0.27788  0.02608  1.0000
  N   N159      1.0  0.76638  0.32701  0.10505  1.0000
  H   H3859     1.0  0.76989  0.31665  0.07480  1.0000
  C   C2261     1.0  0.76181  0.30147  0.00538  1.0000
  C   C2262     1.0  0.77345  0.31957  0.09194  1.0000
  H   H3860     1.0  0.75796  0.30303  0.02614  1.0000
  H   H3861     1.0  0.79116  0.32932  0.09268  1.0000
  H   H3862     1.0  0.76567  0.33622  0.13854  1.0000
  H   H3863     1.0  0.75429  0.31128  0.13479  1.0000
  C   C2263     1.0  0.77156  0.33172  0.12704  1.0000
  H   H3864     1.0  0.76122  0.30005  0.34081  1.0000
  C   C2264     1.0  0.77008  0.30614  0.33600  1.0000
  C   C2265     1.0  0.77226  0.31120  0.42161  1.0000
  H   H3865     1.0  0.76742  0.29530  0.00831  1.0000
  H   H3866     1.0  0.76568  0.31575  0.16321  1.0000
  H   H3867     1.0  0.77621  0.33289  0.25694  1.0000
  C   C2266     1.0  0.76583  0.29263  0.40911  1.0000
  S   S644      1.0  0.75665  0.33060  0.21219  1.0000
  H   H3868     1.0  0.77279  0.31128  0.10794  1.0000
  H   H3869     1.0  0.76691  0.31643  0.36543  1.0000
  H   H3870     1.0  0.76037  0.31938  0.33747  1.0000
  C   C2267     1.0  0.78932  0.32781  0.33965  1.0000
  H   H3871     1.0  0.78574  0.32341  0.28904  1.0000
  N   N160      1.0  0.77888  0.32866  0.32752  1.0000
  H   H3872     1.0  0.76775  0.30999  0.99159  1.0000
  C   C2268     1.0  0.78657  0.32559  0.07802  1.0000
  H   H3873     1.0  0.76488  0.32480  0.28828  1.0000
  H   H3874     1.0  0.78054  0.31816  0.14170  1.0000
  H   H3875     1.0  0.77411  0.30678  0.31341  1.0000
  C   C2269     1.0  0.75159  0.30335  0.42203  1.0000
  H   H3876     1.0  0.78351  0.30023  0.41000  1.0000
  H   H3877     1.0  0.79341  0.31243  0.32506  1.0000
  H   H3878     1.0  0.76808  0.28515  0.40245  1.0000
  H   H3879     1.0  0.79101  0.31895  0.07153  1.0000
  H   H3880     1.0  0.77506  0.30199  0.34988  1.0000
  C   C2270     1.0  0.76874  0.31798  0.34187  1.0000
  H   H3881     1.0  0.78641  0.32356  0.36303  1.0000
  C   C2271     1.0  0.77277  0.33232  0.27995  1.0000
  H   H3882     1.0  0.75347  0.27547  0.99227  1.0000
  H   H3883     1.0  0.76565  0.33280  0.37942  1.0000
  C   C2272     1.0  0.77384  0.32246  0.15045  1.0000
  H   H3884     1.0  0.76365  0.33429  0.06366  1.0000
  H   H3885     1.0  0.79490  0.33676  0.33740  1.0000
  H   H3886     1.0  0.77730  0.32694  0.16563  1.0000
  H   H3887     1.0  0.78780  0.33253  0.05826  1.0000
  H   H3888     1.0  0.75059  0.31019  0.08662  1.0000
  H   H3889     1.0  0.75387  0.31337  0.68928  1.0000
  H   H3890     1.0  0.77257  0.32448  0.86188  1.0000
  H   H3891     1.0  0.76782  0.30801  0.73301  1.0000
  H   H3892     1.0  0.76867  0.31911  0.48573  1.0000
  H   H3893     1.0  0.76078  0.32256  0.92432  1.0000
  H   H3894     1.0  0.77469  0.32255  0.51384  1.0000
  H   H3895     1.0  0.77050  0.31225  0.82435  1.0000
  H   H3896     1.0  0.76490  0.32789  0.79283  1.0000
  H   H3897     1.0  0.76505  0.33022  0.60013  1.0000
  H   H3898     1.0  0.76930  0.32061  0.70381  1.0000
  S   S645      1.0  0.78574  0.32247  0.92497  1.0000
  C   C2273     1.0  0.75288  0.32601  0.84981  1.0000
  H   H3899     1.0  0.78387  0.30002  0.91417  1.0000
  H   H3900     1.0  0.78274  0.33581  0.83370  1.0000
  C   C2274     1.0  0.76036  0.32487  0.56377  1.0000
  H   H3901     1.0  0.75421  0.32731  0.73490  1.0000
  C   C2275     1.0  0.77359  0.31246  0.91952  1.0000
  C   C2276     1.0  0.76683  0.31711  0.72736  1.0000
  C   C2277     1.0  0.76632  0.29316  0.91130  1.0000
  H   H3902     1.0  0.77329  0.32268  0.73545  1.0000
  H   H3903     1.0  0.75279  0.32426  0.87277  1.0000
  C   C2278     1.0  0.75441  0.31789  0.74110  1.0000
  C   C2279     1.0  0.75315  0.30562  0.91712  1.0000
  C   C2280     1.0  0.77797  0.31964  0.82268  1.0000
  C   C2281     1.0  0.76541  0.33603  0.80026  1.0000
  N   N161      1.0  0.75134  0.32386  0.54666  1.0000
  H   H3904     1.0  0.76806  0.28501  0.90774  1.0000
  H   H3905     1.0  0.78248  0.32398  0.79984  1.0000
  C   C2282     1.0  0.75511  0.29488  0.91250  1.0000
  C   C2283     1.0  0.75808  0.33071  0.58862  1.0000
  C   C2284     1.0  0.76238  0.31441  0.92048  1.0000
  H   H3906     1.0  0.76909  0.33022  0.54994  1.0000
  H   H3907     1.0  0.75192  0.29610  0.72321  1.0000
  C   C2285     1.0  0.77536  0.30174  0.91495  1.0000
  C   C2286     1.0  0.76754  0.32357  0.50333  1.0000
  H   H3908     1.0  0.75354  0.31598  0.76438  1.0000
  H   H3909     1.0  0.78437  0.31579  0.83221  1.0000
  H   H3910     1.0  0.75713  0.29536  0.97040  1.0000
  C   C2287     1.0  0.75530  0.31767  0.52413  1.0000
  H   H3911     1.0  0.76151  0.31599  0.57277  1.0000
  C   C2288     1.0  0.77451  0.32869  0.83863  1.0000
  H   H3912     1.0  0.75526  0.30844  0.53423  1.0000
  N   N162      1.0  0.76462  0.33380  0.83181  1.0000
  H   H3913     1.0  0.75254  0.30722  0.85674  1.0000
  H   H3914     1.0  0.76864  0.33301  0.49327  1.0000
  H   H3915     1.0  0.75079  0.29737  0.77937  1.0000
  H   H3916     1.0  0.75107  0.31375  0.82171  1.0000
  H   H3917     1.0  0.75060  0.28459  0.76721  1.0000
  C   C2289     1.0  0.75051  0.33587  0.53192  1.0000
  H   H3918     1.0  0.97014  0.48508  0.23974  1.0000
  H   H3919     1.0  0.85358  0.46853  0.46695  1.0000
  H   H3920     1.0  0.85949  0.55012  0.41031  1.0000
  S   S646      1.0  0.80204  0.35899  0.10542  1.0000
  S   S647      1.0  0.93016  0.55070  0.46097  1.0000
  C   C2290     1.0  0.85938  0.40210  0.42856  1.0000
  Fe  Fe321     1.0  0.93984  0.54208  0.43002  1.0000
  S   S648      1.0  0.95483  0.54930  0.38869  1.0000
  H   H3921     1.0  0.91670  0.47623  0.27697  1.0000
  S   S649      1.0  0.94108  0.54055  0.03737  1.0000
  S   S650      1.0  0.92374  0.52813  0.43281  1.0000
  C   C2291     1.0  0.84229  0.38198  0.42610  1.0000
  Fe  Fe322     1.0  0.90023  0.45196  0.41637  1.0000
  H   H3922     1.0  0.77564  0.40494  0.26064  1.0000
  C   C2292     1.0  0.76946  0.40012  0.28156  1.0000
  Fe  Fe323     1.0  0.91434  0.43699  0.38943  1.0000
  S   S651      1.0  0.90629  0.42141  0.42863  1.0000
  S   S652      1.0  0.93029  0.43988  0.35157  1.0000
  Fe  Fe324     1.0  0.88880  0.42561  0.42652  1.0000
  S   S653      1.0  0.86964  0.41489  0.43107  1.0000
  H   H3923     1.0  0.92778  0.46661  0.20237  1.0000
  S   S654      1.0  0.78903  0.34619  0.18583  1.0000
  S   S655      1.0  0.89699  0.44062  0.38652  1.0000
  S   S656      1.0  0.91815  0.44960  0.41642  1.0000
  Fe  Fe325     1.0  0.97171  0.56261  0.21681  1.0000
  S   S657      1.0  0.98215  0.57748  0.17780  1.0000
  S   S658      1.0  0.95854  0.56472  0.25473  1.0000
  Fe  Fe326     1.0  0.98223  0.54480  0.19311  1.0000
  S   S659      1.0  0.99371  0.55828  0.15402  1.0000
  S   S660      1.0  0.98389  0.52623  0.19726  1.0000
  H   H3924     1.0  0.77991  0.33867  0.11681  1.0000
  H   H3925     1.0  0.95226  0.42588  0.02338  1.0000
  Fe  Fe327     1.0  0.97742  0.56442  0.15146  1.0000
  S   S661      1.0  0.97368  0.56714  0.10645  1.0000
  S   S662      1.0  0.98715  0.55565  0.22276  1.0000
  S   S663      1.0  0.96586  0.55051  0.19015  1.0000
  Fe  Fe328     1.0  0.94923  0.45404  0.17536  1.0000
  S   S664      1.0  0.93613  0.44295  0.21786  1.0000
  Fe  Fe329     1.0  0.95374  0.47910  0.14118  1.0000
  S   S665      1.0  0.96541  0.47681  0.10271  1.0000
  S   S666      1.0  0.94921  0.49618  0.14320  1.0000
  Fe  Fe330     1.0  0.95209  0.45957  0.10888  1.0000
  S   S667      1.0  0.94675  0.45766  0.06677  1.0000
  S   S668      1.0  0.93986  0.46288  0.14560  1.0000
  S   S669      1.0  0.96242  0.47065  0.17268  1.0000
  H   H3926     1.0  0.96197  0.43169  0.41118  1.0000
  C   C2293     1.0  0.93502  0.50158  0.25827  1.0000
  S   S670      1.0  0.77245  0.39076  0.18324  1.0000
  Fe  Fe331     1.0  0.83481  0.49659  0.44581  1.0000
  H   H3927     1.0  0.85885  0.46719  0.01245  1.0000
  S   S671      1.0  0.85472  0.50491  0.43050  1.0000
  Fe  Fe332     1.0  0.80916  0.49702  0.44678  1.0000
  H   H3928     1.0  0.94747  0.41359  0.40024  1.0000
  H   H3929     1.0  0.77848  0.49108  0.35760  1.0000
  C   C2294     1.0  0.79618  0.36075  0.07549  1.0000
  C   C2295     1.0  0.78419  0.41308  0.29651  1.0000
  Fe  Fe333     1.0  0.81830  0.47712  0.42995  1.0000
  S   S672      1.0  0.81779  0.46436  0.40174  1.0000
  H   H3930     1.0  0.75254  0.45524  0.36263  1.0000
  S   S673      1.0  0.82446  0.49669  0.41240  1.0000
  Fe  Fe334     1.0  0.77543  0.45236  0.25091  1.0000
  S   S674      1.0  0.78422  0.47163  0.23738  1.0000
  H   H3931     1.0  0.94569  0.44072  0.46466  1.0000
  Fe  Fe335     1.0  0.79752  0.44581  0.22810  1.0000
  S   S675      1.0  0.80858  0.46463  0.21319  1.0000
  S   S676      1.0  0.80417  0.42984  0.22330  1.0000
  Fe  Fe336     1.0  0.79866  0.46646  0.25545  1.0000
  S   S677      1.0  0.80477  0.47835  0.28278  1.0000
  Fe  Fe337     1.0  0.79335  0.46839  0.19653  1.0000
  S   S678      1.0  0.79309  0.47971  0.15402  1.0000
  S   S679      1.0  0.78910  0.44731  0.27170  1.0000
  S   S680      1.0  0.78308  0.44959  0.20851  1.0000
  C   C2296     1.0  0.81369  0.46811  0.36923  1.0000
  C   C2297     1.0  0.81224  0.45983  0.35296  1.0000
  C   C2298     1.0  0.80932  0.46273  0.32663  1.0000
  C   C2299     1.0  0.80797  0.47399  0.31622  1.0000
  C   C2300     1.0  0.80934  0.48222  0.33259  1.0000
  C   C2301     1.0  0.81208  0.47928  0.35904  1.0000
  H   H3932     1.0  0.81346  0.45118  0.36066  1.0000
  H   H3933     1.0  0.80833  0.45633  0.31419  1.0000
  H   H3934     1.0  0.80831  0.49095  0.32473  1.0000
  H   H3935     1.0  0.81310  0.48572  0.37135  1.0000
  H   H3936     1.0  0.91905  0.46866  0.30879  1.0000
  H   H3937     1.0  0.91930  0.46175  0.27981  1.0000
  C   C2302     1.0  0.80921  0.47069  0.12318  1.0000
  C   C2303     1.0  0.80091  0.47726  0.12245  1.0000
  C   C2304     1.0  0.79868  0.48185  0.09619  1.0000
  C   C2305     1.0  0.80453  0.47966  0.07089  1.0000
  H   H3938     1.0  0.92631  0.55686  0.02612  1.0000
  H   H3939     1.0  0.81111  0.46726  0.14324  1.0000
  H   H3940     1.0  0.79236  0.48705  0.09543  1.0000
  H   H3941     1.0  0.80265  0.48309  0.05081  1.0000
  C   C2306     1.0  0.78089  0.40099  0.19672  1.0000
  C   C2307     1.0  0.77706  0.41088  0.20101  1.0000
  C   C2308     1.0  0.78399  0.41955  0.21001  1.0000
  C   C2309     1.0  0.79494  0.41860  0.21407  1.0000
  C   C2310     1.0  0.79860  0.40852  0.21065  1.0000
  C   C2311     1.0  0.79154  0.39967  0.20228  1.0000
  H   H3942     1.0  0.76870  0.41183  0.19743  1.0000
  H   H3943     1.0  0.78072  0.42684  0.21410  1.0000
  H   H3944     1.0  0.80696  0.40757  0.21423  1.0000
  H   H3945     1.0  0.79447  0.39196  0.19969  1.0000
  S   S681      1.0  0.94519  0.53088  0.46534  1.0000
  C   C2312     1.0  0.75397  0.47482  0.28371  1.0000
  C   C2313     1.0  0.79307  0.40557  0.29207  1.0000
  H   H3946     1.0  0.76122  0.43132  0.23621  1.0000
  H   H3947     1.0  0.80565  0.41879  0.12033  1.0000
  C   C2314     1.0  0.76217  0.48810  0.42184  1.0000
  C   C2315     1.0  0.76286  0.49895  0.42859  1.0000
  C   C2316     1.0  0.77333  0.50504  0.43341  1.0000
  C   C2317     1.0  0.78313  0.50029  0.43170  1.0000
  C   C2318     1.0  0.78245  0.48956  0.42437  1.0000
  C   C2319     1.0  0.77205  0.48352  0.41957  1.0000
  H   H3948     1.0  0.81122  0.37991  0.01958  1.0000
  H   H3949     1.0  0.78781  0.40598  0.12834  1.0000
  H   H3950     1.0  0.78997  0.48592  0.42220  1.0000
  H   H3951     1.0  0.77166  0.47517  0.41423  1.0000
  C   C2320     1.0  0.97427  0.51796  0.18204  1.0000
  C   C2321     1.0  0.96378  0.52075  0.17932  1.0000
  C   C2322     1.0  0.95615  0.51408  0.16721  1.0000
  C   C2323     1.0  0.95896  0.50453  0.15789  1.0000
  C   C2324     1.0  0.96950  0.50178  0.16039  1.0000
  C   C2325     1.0  0.97709  0.50841  0.17268  1.0000
  H   H3952     1.0  0.96135  0.52785  0.18712  1.0000
  H   H3953     1.0  0.94804  0.51630  0.16523  1.0000
  H   H3954     1.0  0.97197  0.49470  0.15238  1.0000
  H   H3955     1.0  0.98519  0.50618  0.17467  1.0000
  H   H3956     1.0  0.95857  0.47428  0.26661  1.0000
  H   H3957     1.0  0.77530  0.34308  0.07235  1.0000
  H   H3958     1.0  0.77581  0.48469  0.01858  1.0000
  H   H3959     1.0  0.83620  0.37721  0.30291  1.0000
  S   S682      1.0  0.81941  0.46900  0.04105  1.0000
  H   H3960     1.0  0.81464  0.43947  0.05012  1.0000
  N   N163      1.0  0.75251  0.47777  0.17694  1.0000
  S   S683      1.0  0.80082  0.37459  0.42487  1.0000
  H   H3961     1.0  0.93869  0.49868  0.21607  1.0000
  H   H3962     1.0  0.89872  0.49340  0.41973  1.0000
  H   H3963     1.0  0.80042  0.42986  0.05488  1.0000
  H   H3964     1.0  0.76963  0.44827  0.34022  1.0000
  C   C2326     1.0  0.90403  0.47748  0.43290  1.0000
  H   H3965     1.0  0.84373  0.53191  0.36845  1.0000
  H   H3966     1.0  0.89930  0.55133  0.08986  1.0000
  S   S684      1.0  0.89713  0.47005  0.41126  1.0000
  C   C2327     1.0  0.92353  0.43794  0.01704  1.0000
  C   C2328     1.0  0.92352  0.43248  0.04519  1.0000
  C   C2329     1.0  0.93037  0.43835  0.06078  1.0000
  C   C2330     1.0  0.93765  0.44976  0.04831  1.0000
  C   C2331     1.0  0.93773  0.45518  0.02003  1.0000
  C   C2332     1.0  0.93063  0.44945  0.00475  1.0000
  H   H3967     1.0  0.91816  0.42359  0.05512  1.0000
  H   H3968     1.0  0.93012  0.43395  0.08238  1.0000
  H   H3969     1.0  0.94331  0.46394  0.00978  1.0000
  H   H3970     1.0  0.87437  0.44877  0.40587  1.0000
  C   C2333     1.0  0.93160  0.44128  0.31424  1.0000
  C   C2334     1.0  0.94281  0.44554  0.29496  1.0000
  C   C2335     1.0  0.94435  0.44649  0.26536  1.0000
  C   C2336     1.0  0.93469  0.44291  0.25464  1.0000
  C   C2337     1.0  0.92349  0.43866  0.27392  1.0000
  C   C2338     1.0  0.92192  0.43798  0.30341  1.0000
  H   H3971     1.0  0.95040  0.44803  0.30299  1.0000
  H   H3972     1.0  0.95304  0.44961  0.25100  1.0000
  H   H3973     1.0  0.91595  0.43576  0.26602  1.0000
  H   H3974     1.0  0.91325  0.43459  0.31784  1.0000
  Fe  Fe338     1.0  0.91428  0.53561  0.46591  1.0000
  C   C2339     1.0  0.98699  0.51973  0.08773  1.0000
  S   S685      1.0  0.78216  0.36556  0.99560  1.0000
  C   C2340     1.0  0.86569  0.51246  0.44456  1.0000
  C   C2341     1.0  0.87758  0.51405  0.43104  1.0000
  C   C2342     1.0  0.88663  0.52072  0.43983  1.0000
  H   H3975     1.0  0.99212  0.53746  0.11496  1.0000
  C   C2343     1.0  0.88590  0.55106  0.06659  1.0000
  H   H3976     1.0  0.87984  0.51020  0.41341  1.0000
  H   H3977     1.0  0.89570  0.52193  0.42898  1.0000
  C   C2344     1.0  0.95498  0.55248  0.35177  1.0000
  C   C2345     1.0  0.96456  0.55127  0.33188  1.0000
  C   C2346     1.0  0.96544  0.55434  0.30224  1.0000
  C   C2347     1.0  0.95700  0.55914  0.29198  1.0000
  C   C2348     1.0  0.94736  0.56022  0.31187  1.0000
  C   C2349     1.0  0.94626  0.55675  0.34158  1.0000
  H   H3978     1.0  0.97139  0.54801  0.33947  1.0000
  H   H3979     1.0  0.97284  0.55333  0.28729  1.0000
  H   H3980     1.0  0.94077  0.56393  0.30424  1.0000
  H   H3981     1.0  0.93889  0.55783  0.35651  1.0000
  C   C2350     1.0  0.95032  0.54806  0.05610  1.0000
  C   C2351     1.0  0.94767  0.54435  0.08623  1.0000
  C   C2352     1.0  0.95469  0.54993  0.10197  1.0000
  C   C2353     1.0  0.96448  0.55946  0.08791  1.0000
  C   C2354     1.0  0.96706  0.56320  0.05781  1.0000
  C   C2355     1.0  0.96012  0.55756  0.04207  1.0000
  H   H3982     1.0  0.94017  0.53703  0.09757  1.0000
  H   H3983     1.0  0.95247  0.54689  0.12502  1.0000
  H   H3984     1.0  0.97451  0.57058  0.04651  1.0000
  H   H3985     1.0  0.96233  0.56064  0.01903  1.0000
  H   H3986     1.0  0.94600  0.48068  0.20269  1.0000
  H   H3987     1.0  0.94137  0.46746  0.23052  1.0000
  H   H3988     1.0  0.95435  0.49382  0.25710  1.0000
  H   H3989     1.0  0.77795  0.42099  0.13964  1.0000
  H   H3990     1.0  0.95645  0.48549  0.05306  1.0000
  N   N164      1.0  0.98172  0.52849  0.07163  1.0000
  H   H3991     1.0  0.91993  0.46951  0.23352  1.0000
  H   H3992     1.0  0.93143  0.49677  0.28111  1.0000
  C   C2356     1.0  0.75861  0.34534  0.09101  1.0000
  H   H3993     1.0  0.82704  0.37413  0.36791  1.0000
  N   N165      1.0  0.93981  0.50982  0.36829  1.0000
  C   C2357     1.0  0.92932  0.50076  0.36699  1.0000
  C   C2358     1.0  0.93722  0.52170  0.36141  1.0000
  C   C2359     1.0  0.94089  0.50706  0.39866  1.0000
  C   C2360     1.0  0.95063  0.50910  0.34769  1.0000
  C   C2361     1.0  0.92981  0.48776  0.37501  1.0000
  C   C2362     1.0  0.93401  0.52516  0.33273  1.0000
  C   C2363     1.0  0.95124  0.51495  0.40516  1.0000
  C   C2364     1.0  0.96070  0.52049  0.33500  1.0000
  H   H3994     1.0  0.92113  0.50145  0.38107  1.0000
  H   H3995     1.0  0.92800  0.50234  0.34507  1.0000
  H   H3996     1.0  0.94466  0.52885  0.36144  1.0000
  H   H3997     1.0  0.92978  0.52215  0.37834  1.0000
  H   H3998     1.0  0.93277  0.50746  0.41341  1.0000
  H   H3999     1.0  0.94181  0.49797  0.40568  1.0000
  H   H4000     1.0  0.95441  0.50215  0.35801  1.0000
  H   H4001     1.0  0.94838  0.50629  0.32894  1.0000
  H   H4002     1.0  0.92860  0.48439  0.39829  1.0000
  H   H4003     1.0  0.92239  0.48220  0.36970  1.0000
  H   H4004     1.0  0.93802  0.48633  0.36313  1.0000
  H   H4005     1.0  0.93510  0.53483  0.32655  1.0000
  H   H4006     1.0  0.93957  0.52283  0.31510  1.0000
  H   H4007     1.0  0.92466  0.52093  0.33489  1.0000
  H   H4008     1.0  0.95968  0.51332  0.39546  1.0000
  H   H4009     1.0  0.95019  0.51264  0.42863  1.0000
  H   H4010     1.0  0.95153  0.52441  0.39886  1.0000
  H   H4011     1.0  0.95839  0.52713  0.31950  1.0000
  H   H4012     1.0  0.96848  0.51835  0.32299  1.0000
  H   H4013     1.0  0.96349  0.52464  0.35131  1.0000
  C   C2365     1.0  0.86438  0.48302  0.38111  1.0000
  H   H4014     1.0  0.75696  0.39221  0.26044  1.0000
  S   S686      1.0  0.89495  0.53591  0.47137  1.0000
  C   C2366     1.0  0.85885  0.47353  0.44502  1.0000
  H   H4015     1.0  0.77355  0.39122  0.33198  1.0000
  C   C2367     1.0  0.85422  0.38207  0.42254  1.0000
  H   H4016     1.0  0.81199  0.52842  0.39324  1.0000
  Fe  Fe339     1.0  0.79189  0.36103  0.14718  1.0000
  H   H4017     1.0  0.78723  0.45340  0.10607  1.0000
  H   H4018     1.0  0.77498  0.44123  0.12837  1.0000
  C   C2368     1.0  0.77504  0.45735  0.33707  1.0000
  H   H4019     1.0  0.76856  0.46164  0.30050  1.0000
  H   H4020     1.0  0.75290  0.48474  0.31539  1.0000
  H   H4021     1.0  0.99854  0.58643  0.22324  1.0000
  C   C2369     1.0  0.78427  0.42350  0.11814  1.0000
  S   S687      1.0  0.80398  0.35804  0.24088  1.0000
  H   H4022     1.0  0.85550  0.48091  0.37749  1.0000
  S   S688      1.0  0.79597  0.50767  0.43950  1.0000
  H   H4023     1.0  0.92520  0.49003  0.23893  1.0000
  C   C2370     1.0  0.79428  0.37071  0.32175  1.0000
  H   H4024     1.0  0.84724  0.47379  0.00685  1.0000
  H   H4025     1.0  0.75537  0.50265  0.43012  1.0000
  H   H4026     1.0  0.95100  0.45898  0.43063  1.0000
  C   C2371     1.0  0.90384  0.48917  0.43211  1.0000
  H   H4027     1.0  0.79265  0.39922  0.31222  1.0000
  H   H4028     1.0  0.93802  0.48007  0.29085  1.0000
  H   H4029     1.0  0.89006  0.52869  0.08076  1.0000
  H   H4030     1.0  0.86382  0.40212  0.34553  1.0000
  H   H4031     1.0  0.79206  0.40088  0.27527  1.0000
  C   C2372     1.0  0.81657  0.39844  0.36215  1.0000
  C   C2373     1.0  0.84739  0.46084  0.42211  1.0000
  C   C2374     1.0  0.93964  0.41707  0.40025  1.0000
  H   H4032     1.0  0.85926  0.48207  0.01596  1.0000
  H   H4033     1.0  0.95119  0.51615  0.08937  1.0000
  H   H4034     1.0  0.97613  0.59301  0.22947  1.0000
  C   C2375     1.0  0.80310  0.42527  0.13173  1.0000
  H   H4035     1.0  0.87070  0.48688  0.35980  1.0000
  C   C2376     1.0  0.84137  0.39155  0.99636  1.0000
  H   H4036     1.0  0.84152  0.37004  0.33178  1.0000
  H   H4037     1.0  0.91850  0.56166  0.08559  1.0000
  C   C2377     1.0  0.87065  0.48037  0.44822  1.0000
  H   H4038     1.0  0.78627  0.41746  0.31327  1.0000
  H   H4039     1.0  0.93419  0.44060  0.44811  1.0000
  H   H4040     1.0  0.82352  0.51932  0.42476  1.0000
  H   H4041     1.0  0.87170  0.52374  0.00052  1.0000
  H   H4042     1.0  0.75559  0.48634  0.11951  1.0000
  H   H4043     1.0  0.82052  0.53268  0.42976  1.0000
  C   C2378     1.0  0.84684  0.39142  0.34590  1.0000
  H   H4044     1.0  0.82005  0.43884  0.11434  1.0000
  H   H4045     1.0  0.75900  0.35226  0.07184  1.0000
  Fe  Fe340     1.0  0.79379  0.36574  0.39360  1.0000
  H   H4046     1.0  0.82800  0.39142  0.38514  1.0000
  H   H4047     1.0  0.77909  0.47343  0.30292  1.0000
  H   H4048     1.0  0.76273  0.50097  0.18067  1.0000
  S   S689      1.0  0.83205  0.36904  0.42423  1.0000
  S   S690      1.0  0.79778  0.37485  0.16948  1.0000
  H   H4049     1.0  0.79119  0.41273  0.09041  1.0000
  H   H4050     1.0  0.99095  0.55194  0.10094  1.0000
  C   C2379     1.0  0.98718  0.59342  0.28602  1.0000
  C   C2380     1.0  0.76637  0.49881  0.16055  1.0000
  H   H4051     1.0  0.93584  0.40989  0.45538  1.0000
  C   C2381     1.0  0.90836  0.53857  0.05953  1.0000
  C   C2382     1.0  0.97450  0.58560  0.29779  1.0000
  H   H4052     1.0  0.83819  0.45423  0.46809  1.0000
  C   C2383     1.0  0.86296  0.51756  0.46729  1.0000
  H   H4053     1.0  0.95958  0.52185  0.05327  1.0000
  C   C2384     1.0  0.80043  0.36339  0.27129  1.0000
  H   H4054     1.0  0.98651  0.60230  0.27613  1.0000
  H   H4055     1.0  0.77456  0.45924  0.35816  1.0000
  H   H4056     1.0  0.76930  0.46367  0.17731  1.0000
  H   H4057     1.0  0.86262  0.54277  0.37101  1.0000
  H   H4058     1.0  0.95167  0.48119  0.02355  1.0000
  C   C2385     1.0  0.94528  0.49601  0.03560  1.0000
  C   C2386     1.0  0.81455  0.43280  0.13492  1.0000
  H   H4059     1.0  0.78424  0.48096  0.34076  1.0000
  C   C2387     1.0  0.75989  0.45899  0.18571  1.0000
  H   H4060     1.0  0.93698  0.42473  0.99630  1.0000
  C   C2388     1.0  0.83884  0.45138  0.44803  1.0000
  Fe  Fe341     1.0  0.81974  0.47966  0.99719  1.0000
  H   H4061     1.0  0.87335  0.45912  0.44019  1.0000
  C   C2389     1.0  0.96388  0.43124  0.45342  1.0000
  N   N166      1.0  0.94438  0.42853  0.43743  1.0000
  H   H4062     1.0  0.77590  0.50330  0.15356  1.0000
  H   H4063     1.0  0.96202  0.50920  0.07586  1.0000
  Fe  Fe342     1.0  0.78731  0.35992  0.45880  1.0000
  H   H4064     1.0  0.96273  0.49444  0.01748  1.0000
  H   H4065     1.0  0.85191  0.40559  0.36672  1.0000
  H   H4066     1.0  0.76574  0.47039  0.99608  1.0000
  H   H4067     1.0  0.81179  0.35508  0.29204  1.0000
  H   H4068     1.0  0.93292  0.48088  0.01919  1.0000
  C   C2390     1.0  0.92443  0.55922  0.06883  1.0000
  C   C2391     1.0  0.79629  0.35758  0.02834  1.0000
  H   H4069     1.0  0.90154  0.56320  0.98291  1.0000
  N   N167      1.0  0.77137  0.40661  0.30411  1.0000
  H   H4070     1.0  0.97940  0.51972  0.03806  1.0000
  C   C2392     1.0  0.98115  0.53809  0.02040  1.0000
  H   H4071     1.0  0.83517  0.40693  0.00610  1.0000
  C   C2393     1.0  0.96009  0.51784  0.07510  1.0000
  Fe  Fe343     1.0  0.79296  0.36004  0.20924  1.0000
  H   H4072     1.0  0.85939  0.45108  0.46060  1.0000
  C   C2394     1.0  0.85691  0.47563  0.00359  1.0000
  H   H4073     1.0  0.98430  0.54751  0.06182  1.0000
  C   C2395     1.0  0.96880  0.52626  0.08537  1.0000
  H   H4074     1.0  0.97398  0.57750  0.31406  1.0000
  C   C2396     1.0  0.76235  0.46888  0.01955  1.0000
  H   H4075     1.0  0.94485  0.50014  0.01364  1.0000
  H   H4076     1.0  0.95399  0.43948  0.99877  1.0000
  H   H4077     1.0  0.88360  0.55846  0.05328  1.0000
  H   H4078     1.0  0.97262  0.53970  0.02965  1.0000
  H   H4079     1.0  0.85390  0.51634  0.47820  1.0000
  C   C2397     1.0  0.82963  0.37199  0.99938  1.0000
  H   H4080     1.0  0.76721  0.48685  0.29399  1.0000
  H   H4081     1.0  0.88021  0.54943  0.08846  1.0000
  C   C2398     1.0  0.98573  0.59667  0.22568  1.0000
  Fe  Fe344     1.0  0.97355  0.46736  0.13436  1.0000
  H   H4082     1.0  0.93299  0.56594  0.06252  1.0000
  C   C2399     1.0  0.84745  0.40206  0.43193  1.0000
  C   C2400     1.0  0.79231  0.37018  0.27387  1.0000
  H   H4083     1.0  0.80208  0.41152  0.28476  1.0000
  S   S691      1.0  0.75651  0.44573  0.27541  1.0000
  C   C2401     1.0  0.82816  0.37921  0.34557  1.0000
  C   C2402     1.0  0.95089  0.45127  0.42139  1.0000
  H   H4084     1.0  0.77150  0.39141  0.28653  1.0000
  C   C2403     1.0  0.91969  0.55904  0.04213  1.0000
  H   H4085     1.0  0.94404  0.50712  0.25462  1.0000
  H   H4086     1.0  0.78419  0.37051  0.09062  1.0000
  H   H4087     1.0  0.98510  0.51958  0.11077  1.0000
  N   N168      1.0  0.93317  0.48940  0.05413  1.0000
  Fe  Fe345     1.0  0.90900  0.43472  0.45543  1.0000
  C   C2404     1.0  0.92547  0.49785  0.05239  1.0000
  C   C2405     1.0  0.92872  0.47909  0.04243  1.0000
  C   C2406     1.0  0.93413  0.48511  0.08422  1.0000
  S   S692      1.0  0.77420  0.36035  0.22308  1.0000
  C   C2407     1.0  0.92918  0.50893  0.06300  1.0000
  C   C2408     1.0  0.91545  0.47533  0.04478  1.0000
  C   C2409     1.0  0.92248  0.47951  0.10719  1.0000
  H   H4088     1.0  0.90123  0.56446  0.06301  1.0000
  H   H4089     1.0  0.94917  0.50336  0.04393  1.0000
  H   H4090     1.0  0.91627  0.49350  0.06467  1.0000
  C   C2410     1.0  0.93573  0.41847  0.46047  1.0000
  H   H4091     1.0  0.80712  0.35130  0.05456  1.0000
  H   H4092     1.0  0.93117  0.47114  0.05261  1.0000
  H   H4093     1.0  0.93921  0.47833  0.08542  1.0000
  H   H4094     1.0  0.93917  0.49238  0.09114  1.0000
  H   H4095     1.0  0.87632  0.48631  0.42769  1.0000
  H   H4096     1.0  0.84595  0.38495  0.36641  1.0000
  C   C2411     1.0  0.83897  0.36518  0.00373  1.0000
  H   H4097     1.0  0.93743  0.51501  0.04866  1.0000
  H   H4098     1.0  0.92237  0.51390  0.06267  1.0000
  H   H4099     1.0  0.92997  0.50678  0.08528  1.0000
  H   H4100     1.0  0.98065  0.53564  0.00013  1.0000
  C   C2412     1.0  0.77266  0.47517  0.02966  1.0000
  H   H4101     1.0  0.91349  0.46700  0.03806  1.0000
  H   H4102     1.0  0.91682  0.48566  0.10886  1.0000
  H   H4103     1.0  0.92437  0.47714  0.12835  1.0000
  H   H4104     1.0  0.91769  0.47126  0.10354  1.0000
  H   H4105     1.0  0.77914  0.49236  0.32066  1.0000
  H   H4106     1.0  0.91284  0.48200  0.02996  1.0000
  H   H4107     1.0  0.96937  0.42511  0.45845  1.0000
  H   H4108     1.0  0.87176  0.39178  0.42101  1.0000
  H   H4109     1.0  0.78641  0.42028  0.27654  1.0000
  H   H4110     1.0  0.96057  0.47436  0.22932  1.0000
  H   H4111     1.0  0.93899  0.46780  0.27780  1.0000
  C   C2413     1.0  0.77502  0.33931  0.33359  1.0000
  C   C2414     1.0  0.91767  0.49029  0.46161  1.0000
  C   C2415     1.0  0.89748  0.52846  0.06367  1.0000
  H   H4112     1.0  0.81978  0.42683  0.14283  1.0000
  C   C2416     1.0  0.92184  0.47031  0.28516  1.0000
  C   C2417     1.0  0.98792  0.54059  0.07292  1.0000
  H   H4113     1.0  0.98728  0.60505  0.23189  1.0000
  H   H4114     1.0  0.83402  0.40589  0.36217  1.0000
  H   H4115     1.0  0.92644  0.48122  0.20098  1.0000
  H   H4116     1.0  0.82154  0.46349  0.09867  1.0000
  C   C2418     1.0  0.95308  0.48864  0.24125  1.0000
  H   H4117     1.0  0.92957  0.50776  0.25324  1.0000
  H   H4118     1.0  0.99740  0.54284  0.06162  1.0000
  C   C2419     1.0  0.90567  0.56406  0.00079  1.0000
  C   C2420     1.0  0.95665  0.42690  0.43330  1.0000
  H   H4119     1.0  0.91122  0.54798  0.00489  1.0000
  N   N169      1.0  0.83895  0.53417  0.41139  1.0000
  H   H4120     1.0  0.77380  0.51338  0.43881  1.0000
  C   C2421     1.0  0.84145  0.52989  0.43983  1.0000
  C   C2422     1.0  0.84577  0.52937  0.38941  1.0000
  C   C2423     1.0  0.84154  0.54744  0.40175  1.0000
  H   H4121     1.0  0.85415  0.48019  0.43802  1.0000
  C   C2424     1.0  0.91745  0.47848  0.46327  1.0000
  C   C2425     1.0  0.85924  0.53333  0.38266  1.0000
  C   C2426     1.0  0.77292  0.34013  0.36491  1.0000
  H   H4122     1.0  0.95645  0.41744  0.43521  1.0000
  H   H4123     1.0  0.78178  0.45245  0.14283  1.0000
  H   H4124     1.0  0.85078  0.53311  0.43935  1.0000
  H   H4125     1.0  0.83986  0.52012  0.44538  1.0000
  H   H4126     1.0  0.84319  0.51955  0.39598  1.0000
  H   H4127     1.0  0.84308  0.46814  0.41759  1.0000
  H   H4128     1.0  0.84238  0.55032  0.37838  1.0000
  H   H4129     1.0  0.83402  0.55045  0.41227  1.0000
  N   N170      1.0  0.99537  0.58893  0.26606  1.0000
  H   H4130     1.0  0.75362  0.45688  0.07647  1.0000
  H   H4131     1.0  0.75584  0.47431  0.21906  1.0000
  H   H4132     1.0  0.75992  0.49126  0.01741  1.0000
  C   C2427     1.0  0.78519  0.41167  0.11138  1.0000
  H   H4133     1.0  0.89483  0.52815  0.04360  1.0000
  H   H4134     1.0  0.96009  0.45096  0.41374  1.0000
  H   H4135     1.0  0.91490  0.56922  0.99088  1.0000
  H   H4136     1.0  0.86510  0.48994  0.39292  1.0000
  H   H4137     1.0  0.99806  0.57781  0.30352  1.0000
  C   C2428     1.0  0.94345  0.44003  0.44439  1.0000
  H   H4138     1.0  0.89966  0.51996  0.07091  1.0000
  H   H4139     1.0  0.87676  0.47462  0.39732  1.0000
  S   S693      1.0  0.96098  0.44964  0.13867  1.0000
  C   C2429     1.0  0.83655  0.39931  0.31126  1.0000
  Fe  Fe346     1.0  0.77058  0.34782  0.19610  1.0000
  C   C2430     1.0  0.81268  0.47289  0.07174  1.0000
  C   C2431     1.0  0.81510  0.46856  0.09790  1.0000
  C   C2432     1.0  0.91053  0.49553  0.44681  1.0000
  C   C2433     1.0  0.86556  0.44629  0.42108  1.0000
  C   C2434     1.0  0.76853  0.39802  0.33295  1.0000
  C   C2435     1.0  0.93522  0.47554  0.27493  1.0000
  C   C2436     1.0  0.96086  0.47995  0.24451  1.0000
  C   C2437     1.0  0.79228  0.44011  0.13596  1.0000
  S   S694      1.0  0.91535  0.42958  0.99768  1.0000
  C   C2438     1.0  0.75236  0.43216  0.23832  1.0000
  C   C2439     1.0  0.83900  0.39214  0.43065  1.0000
  C   C2440     1.0  0.92761  0.47327  0.21498  1.0000
  C   C2441     1.0  0.93456  0.49322  0.23841  1.0000
  H   H4140     1.0  0.97787  0.54033  0.11603  1.0000
  H   H4141     1.0  0.75308  0.47852  0.06430  1.0000
  H   H4142     1.0  0.84471  0.40977  0.43566  1.0000
  H   H4143     1.0  0.76035  0.47138  0.27051  1.0000
  N   N171      1.0  0.94022  0.48322  0.24482  1.0000
  C   C2442     1.0  0.93935  0.47603  0.22324  1.0000
  H   H4144     1.0  0.95699  0.49501  0.21990  1.0000
  H   H4145     1.0  0.96890  0.59047  0.30874  1.0000
  C   C2443     1.0  0.76447  0.41580  0.30412  1.0000
  H   H4146     1.0  0.76075  0.45922  0.02845  1.0000
  C   C2444     1.0  0.99122  0.58720  0.24002  1.0000
  C   C2445     1.0  0.82604  0.52899  0.41484  1.0000
  S   S695      1.0  0.79023  0.37540  0.35308  1.0000
  H   H4147     1.0  0.98809  0.54647  0.01477  1.0000
  H   H4148     1.0  0.82992  0.39236  0.43344  1.0000
  H   H4149     1.0  0.77040  0.34844  0.36625  1.0000
  S   S696      1.0  0.79890  0.34750  0.46194  1.0000
  H   H4150     1.0  0.98744  0.57057  0.28852  1.0000
  H   H4151     1.0  0.97017  0.43993  0.44239  1.0000
  H   H4152     1.0  0.84765  0.45717  0.40316  1.0000
  H   H4153     1.0  0.76622  0.48317  0.47958  1.0000
  C   C2446     1.0  0.78773  0.36374  0.02605  1.0000
  N   N172      1.0  0.79551  0.43193  0.11792  1.0000
  H   H4154     1.0  0.82766  0.39193  0.28164  1.0000
  H   H4155     1.0  0.78158  0.34755  0.32035  1.0000
  H   H4156     1.0  0.98444  0.57866  0.24550  1.0000
  H   H4157     1.0  0.81737  0.39299  0.31243  1.0000
  H   H4158     1.0  0.85545  0.41050  0.32793  1.0000
  H   H4159     1.0  0.75393  0.38812  0.36933  1.0000
  C   C2447     1.0  0.78354  0.44708  0.12741  1.0000
  C   C2448     1.0  0.89890  0.55466  0.06743  1.0000
  C   C2449     1.0  0.98707  0.54247  0.10313  1.0000
  H   H4160     1.0  0.83822  0.36138  0.02662  1.0000
  H   H4161     1.0  0.86759  0.46605  0.38161  1.0000
  H   H4162     1.0  0.79804  0.41985  0.15344  1.0000
  C   C2450     1.0  0.99604  0.57715  0.28280  1.0000
  H   H4163     1.0  0.93079  0.45391  0.98329  1.0000
  H   H4164     1.0  0.84698  0.40379  0.02139  1.0000
  H   H4165     1.0  0.86265  0.53145  0.40178  1.0000
  H   H4166     1.0  0.76670  0.33977  0.32754  1.0000
  C   C2451     1.0  0.91044  0.47202  0.44956  1.0000
  C   C2452     1.0  0.78335  0.36835  0.04869  1.0000
  H   H4167     1.0  0.75198  0.48200  0.26893  1.0000
  C   C2453     1.0  0.98418  0.52821  0.04069  1.0000
  H   H4168     1.0  0.77053  0.47395  0.05311  1.0000
  H   H4169     1.0  0.82935  0.39514  0.05569  1.0000
  H   H4170     1.0  0.78296  0.37900  0.30097  1.0000
  H   H4171     1.0  0.76899  0.48407  0.14365  1.0000
  H   H4172     1.0  0.91585  0.53654  0.04588  1.0000
  H   H4173     1.0  0.91033  0.50452  0.44617  1.0000
  H   H4174     1.0  0.80017  0.44682  0.13573  1.0000
  H   H4175     1.0  0.78848  0.43515  0.15873  1.0000
  H   H4176     1.0  0.78992  0.33856  0.28595  1.0000
  C   C2454     1.0  0.76488  0.48545  0.16459  1.0000
  C   C2455     1.0  0.83375  0.37235  0.32574  1.0000
  C   C2456     1.0  0.90507  0.55164  0.01832  1.0000
  S   S697      1.0  0.77887  0.35264  0.42736  1.0000
  Fe  Fe347     1.0  0.99759  0.56993  0.18321  1.0000
  Fe  Fe348     1.0  0.77869  0.37441  0.18208  1.0000
  H   H4177     1.0  0.86438  0.43763  0.43613  1.0000
  H   H4178     1.0  0.81291  0.40156  0.38085  1.0000
  C   C2457     1.0  0.80182  0.43933  0.08809  1.0000
  H   H4179     1.0  0.86298  0.52829  0.36827  1.0000
  H   H4180     1.0  0.79589  0.44383  0.07819  1.0000
  C   C2458     1.0  0.75905  0.47992  0.30612  1.0000
  H   H4181     1.0  0.75566  0.40631  0.26456  1.0000
  H   H4182     1.0  0.81048  0.42577  0.07533  1.0000
  H   H4183     1.0  0.80896  0.44678  0.08830  1.0000
  H   H4184     1.0  0.77162  0.40227  0.34901  1.0000
  H   H4185     1.0  0.91020  0.46287  0.45154  1.0000
  H   H4186     1.0  0.84133  0.44290  0.45079  1.0000
  H   H4187     1.0  0.82348  0.36927  0.05260  1.0000
  N   N173      1.0  0.76152  0.47122  0.32934  1.0000
  C   C2459     1.0  0.80697  0.43306  0.06622  1.0000
  C   C2460     1.0  0.76497  0.47761  0.35085  1.0000
  H   H4188     1.0  0.81281  0.43779  0.15120  1.0000
  H   H4189     1.0  0.78841  0.37266  0.25647  1.0000
  H   H4190     1.0  0.81863  0.39430  0.01782  1.0000
  H   H4191     1.0  0.97062  0.58321  0.28067  1.0000
  H   H4192     1.0  0.77638  0.40673  0.11101  1.0000
  H   H4193     1.0  0.91982  0.56835  0.03293  1.0000
  H   H4194     1.0  0.82735  0.36387  0.32821  1.0000
  H   H4195     1.0  0.89629  0.54610  0.01998  1.0000
  H   H4196     1.0  0.82093  0.36550  0.00809  1.0000
  N   N174      1.0  0.82998  0.38249  0.01191  1.0000
  H   H4197     1.0  0.81910  0.37851  0.34356  1.0000
  C   C2461     1.0  0.82933  0.37835  0.04333  1.0000
  H   H4198     1.0  0.85660  0.56268  0.39000  1.0000
  H   H4199     1.0  0.83893  0.40883  0.31084  1.0000
  S   S698      1.0  0.82003  0.49898  0.47868  1.0000
  C   C2462     1.0  0.75726  0.39794  0.27546  1.0000
  N   N175      1.0  0.90767  0.55092  0.04707  1.0000
  H   H4200     1.0  0.80622  0.36135  0.33638  1.0000
  H   H4201     1.0  0.85886  0.44487  0.40902  1.0000
  H   H4202     1.0  0.97365  0.50288  0.09955  1.0000
  C   C2463     1.0  0.82465  0.38571  0.06303  1.0000
  H   H4203     1.0  0.87857  0.46913  0.99614  1.0000
  C   C2464     1.0  0.76631  0.33728  0.08179  1.0000
  H   H4204     1.0  0.82575  0.38229  0.08472  1.0000
  C   C2465     1.0  0.82884  0.39693  0.36340  1.0000
  H   H4205     1.0  0.87874  0.48812  0.00075  1.0000
  H   H4206     1.0  0.98938  0.59894  0.20214  1.0000
  H   H4207     1.0  0.81697  0.40527  0.34286  1.0000
  C   C2466     1.0  0.77743  0.48595  0.34157  1.0000
  Fe  Fe349     1.0  0.81229  0.36208  0.42652  1.0000
  H   H4208     1.0  0.93218  0.43085  0.41131  1.0000
  H   H4209     1.0  0.91011  0.53769  0.08096  1.0000
  C   C2467     1.0  0.80238  0.36391  0.31909  1.0000
  H   H4210     1.0  0.81510  0.38469  0.06565  1.0000
  H   H4211     1.0  0.85199  0.38829  0.32901  1.0000
  H   H4212     1.0  0.78439  0.45774  0.32824  1.0000
  H   H4213     1.0  0.93159  0.41024  0.41340  1.0000
  S   S699      1.0  0.89102  0.43763  0.45608  1.0000
  H   H4214     1.0  0.95872  0.43172  0.47413  1.0000
  H   H4215     1.0  0.88328  0.54301  0.05946  1.0000
  H   H4216     1.0  0.77037  0.34071  0.28078  1.0000
  S   S700      1.0  0.99378  0.47283  0.12217  1.0000
  H   H4217     1.0  0.96367  0.43006  0.99106  1.0000
  N   N176      1.0  0.83491  0.39180  0.34102  1.0000
  C   C2468     1.0  0.86751  0.47195  0.39628  1.0000
  C   C2469     1.0  0.94571  0.42371  0.98651  1.0000
  C   C2470     1.0  0.86268  0.39200  0.42367  1.0000
  H   H4218     1.0  0.83420  0.54244  0.46072  1.0000
  H   H4219     1.0  0.77063  0.48294  0.17852  1.0000
  C   C2471     1.0  0.85251  0.55466  0.40796  1.0000
  H   H4220     1.0  0.76176  0.41666  0.34915  1.0000
  C   C2472     1.0  0.77122  0.46633  0.31615  1.0000
  S   S701      1.0  0.80250  0.47742  0.46254  1.0000
  H   H4221     1.0  0.84894  0.38826  0.00101  1.0000
  C   C2473     1.0  0.88391  0.52620  0.46182  1.0000
  H   H4222     1.0  0.84411  0.39796  0.29623  1.0000
  H   H4223     1.0  0.90998  0.47366  0.06675  1.0000
  H   H4224     1.0  0.81032  0.39008  0.36355  1.0000
  C   C2474     1.0  0.82610  0.39716  0.29748  1.0000
  H   H4225     1.0  0.99066  0.59454  0.30478  1.0000
  H   H4226     1.0  0.76736  0.42241  0.28293  1.0000
  H   H4227     1.0  0.82442  0.52495  0.37408  1.0000
  C   C2475     1.0  0.94075  0.42860  0.40991  1.0000
  H   H4228     1.0  0.94708  0.43555  0.39171  1.0000
  H   H4229     1.0  0.75884  0.48306  0.35632  1.0000
  C   C2476     1.0  0.80051  0.35611  0.05294  1.0000
  H   H4230     1.0  0.92662  0.41938  0.46180  1.0000
  C   C2477     1.0  0.78930  0.37386  0.29900  1.0000
  C   C2478     1.0  0.85482  0.40318  0.34641  1.0000
  Fe  Fe350     1.0  0.92839  0.51771  0.46979  1.0000
  C   C2479     1.0  0.95455  0.43027  0.00017  1.0000
  H   H4231     1.0  0.82503  0.52746  0.47225  1.0000
  S   S702      1.0  0.80590  0.35387  0.39319  1.0000
  C   C2480     1.0  0.98287  0.50680  0.08712  1.0000
  C   C2481     1.0  0.82174  0.53086  0.38731  1.0000
  C   C2482     1.0  0.80553  0.36036  0.29388  1.0000
  H   H4232     1.0  0.77670  0.37311  0.04710  1.0000
  S   S703      1.0  0.77313  0.36188  0.15610  1.0000
  H   H4233     1.0  0.77982  0.42778  0.10292  1.0000
  H   H4234     1.0  0.76416  0.47134  0.37156  1.0000
  C   C2483     1.0  0.83420  0.53301  0.46537  1.0000
  S   S704      1.0  0.82942  0.47683  0.46131  1.0000
  H   H4235     1.0  0.90094  0.56897  0.01372  1.0000
  H   H4236     1.0  0.82553  0.40576  0.28501  1.0000
  H   H4237     1.0  0.85699  0.37435  0.41893  1.0000
  C   C2484     1.0  0.86439  0.45561  0.43812  1.0000
  H   H4238     1.0  0.96609  0.53462  0.08211  1.0000
  H   H4239     1.0  0.96693  0.52296  0.10892  1.0000
  H   H4240     1.0  0.84998  0.55795  0.42713  1.0000
  H   H4241     1.0  0.92504  0.50090  0.02992  1.0000
  H   H4242     1.0  0.94698  0.45291  0.40296  1.0000
  H   H4243     1.0  0.79966  0.35391  0.01121  1.0000
  C   C2485     1.0  0.81940  0.38690  0.00802  1.0000
  C   C2486     1.0  0.78754  0.36684  0.07340  1.0000
  S   S705      1.0  0.92144  0.52367  0.99978  1.0000
  H   H4244     1.0  0.75366  0.38313  0.33734  1.0000
  S   S706      1.0  0.82370  0.49943  0.98511  1.0000
  H   H4245     1.0  0.92622  0.55074  0.07787  1.0000
  N   N177      1.0  0.85955  0.46547  0.42536  1.0000
  H   H4246     1.0  0.83808  0.37771  0.04650  1.0000
  H   H4247     1.0  0.75500  0.41202  0.30688  1.0000
  H   H4248     1.0  0.75736  0.45726  0.20925  1.0000
  C   C2487     1.0  0.95441  0.48873  0.03251  1.0000
  H   H4249     1.0  0.82472  0.54014  0.37449  1.0000
  H   H4250     1.0  0.75277  0.46741  0.47312  1.0000
  H   H4251     1.0  0.82993  0.44969  0.44430  1.0000
  H   H4252     1.0  0.93870  0.41884  0.37798  1.0000
  C   C2488     1.0  0.84317  0.40373  0.00277  1.0000
  Fe  Fe351     1.0  0.79104  0.34091  0.42824  1.0000
  H   H4253     1.0  0.75877  0.45030  0.18065  1.0000
  H   H4254     1.0  0.76240  0.50252  0.14361  1.0000
  H   H4255     1.0  0.78019  0.47133  0.02408  1.0000
  Fe  Fe352     1.0  0.93735  0.53855  0.99376  1.0000
  H   H4256     1.0  0.77408  0.42805  0.32457  1.0000
  H   H4257     1.0  0.99222  0.48557  0.16750  1.0000
  H   H4258     1.0  0.75760  0.48652  0.98710  1.0000
  H   H4259     1.0  0.99364  0.52876  0.03220  1.0000
  H   H4260     1.0  0.76189  0.34998  0.10616  1.0000
  H   H4261     1.0  0.75500  0.46651  0.14836  1.0000
  S   S707      1.0  0.92757  0.49843  0.47645  1.0000
  H   H4262     1.0  0.83759  0.35769  0.99371  1.0000
  C   C2489     1.0  0.75215  0.46579  0.17165  1.0000
  H   H4263     1.0  0.78091  0.34052  0.37287  1.0000
  H   H4264     1.0  0.98811  0.50161  0.09801  1.0000
  C   C2490     1.0  0.75085  0.46112  0.34422  1.0000
  H   H4265     1.0  0.86884  0.48611  0.46271  1.0000
  H   H4266     1.0  0.87552  0.47447  0.45799  1.0000
  H   H4267     1.0  0.84799  0.37068  0.99292  1.0000
  C   C2491     1.0  0.76513  0.42260  0.32730  1.0000
  H   H4268     1.0  0.92288  0.47431  0.47470  1.0000
  H   H4269     1.0  0.98420  0.50552  0.06527  1.0000
  H   H4270     1.0  0.94493  0.41420  0.99459  1.0000
  H   H4271     1.0  0.99673  0.52236  0.07964  1.0000
  C   C2492     1.0  0.87200  0.52454  0.47548  1.0000
  H   H4272     1.0  0.75944  0.42879  0.32547  1.0000
  C   C2493     1.0  0.75562  0.39103  0.34572  1.0000
  H   H4273     1.0  0.82220  0.37551  0.47968  1.0000
  C   C2494     1.0  0.75347  0.48538  0.00997  1.0000
  N   N178      1.0  0.75117  0.47273  0.02627  1.0000
  H   H4274     1.0  0.84939  0.41038  0.98382  1.0000
  S   S708      1.0  0.90376  0.47008  0.90193  1.0000
  C   C2495     1.0  0.95335  0.51799  0.59229  1.0000
  H   H4275     1.0  0.97200  0.52421  0.62505  1.0000
  H   H4276     1.0  0.96822  0.53629  0.60597  1.0000
  C   C2496     1.0  0.75946  0.46078  0.87064  1.0000
  H   H4277     1.0  0.94665  0.50946  0.60012  1.0000
  Fe  Fe353     1.0  0.94169  0.54283  0.92753  1.0000
  S   S709      1.0  0.95623  0.55214  0.88635  1.0000
  H   H4278     1.0  0.96622  0.51110  0.56863  1.0000
  S   S710      1.0  0.93965  0.54065  0.53906  1.0000
  S   S711      1.0  0.92603  0.52836  0.92983  1.0000
  H   H4279     1.0  0.80839  0.41077  0.77107  1.0000
  Fe  Fe354     1.0  0.90429  0.45111  0.91200  1.0000
  H   H4280     1.0  0.86978  0.52871  0.49253  1.0000
  H   H4281     1.0  0.96707  0.53778  0.55796  1.0000
  Fe  Fe355     1.0  0.91648  0.43392  0.88964  1.0000
  S   S712      1.0  0.90657  0.41922  0.92929  1.0000
  S   S713      1.0  0.92971  0.42998  0.85470  1.0000
  Fe  Fe356     1.0  0.89041  0.42528  0.92366  1.0000
  S   S714      1.0  0.87198  0.41535  0.92157  1.0000
  C   C2497     1.0  0.83473  0.49894  0.70300  1.0000
  S   S715      1.0  0.91523  0.43245  0.49766  1.0000
  S   S716      1.0  0.90035  0.43944  0.88329  1.0000
  S   S717      1.0  0.92127  0.44678  0.91542  1.0000
  Fe  Fe357     1.0  0.97183  0.56443  0.71489  1.0000
  S   S718      1.0  0.98228  0.57894  0.67506  1.0000
  S   S719      1.0  0.95827  0.56570  0.75312  1.0000
  Fe  Fe358     1.0  0.98172  0.54611  0.69280  1.0000
  S   S720      1.0  0.99306  0.55898  0.65272  1.0000
  S   S721      1.0  0.98258  0.52732  0.69956  1.0000
  H   H4282     1.0  0.76555  0.48136  0.65775  1.0000
  N   N179      1.0  0.80728  0.41208  0.81471  1.0000
  Fe  Fe359     1.0  0.97700  0.56551  0.65001  1.0000
  S   S722      1.0  0.97315  0.56806  0.60515  1.0000
  S   S723      1.0  0.98723  0.55741  0.72096  1.0000
  S   S724      1.0  0.96551  0.55198  0.68949  1.0000
  Fe  Fe360     1.0  0.95195  0.45492  0.67638  1.0000
  S   S725      1.0  0.94797  0.44044  0.71809  1.0000
  Fe  Fe361     1.0  0.95122  0.47946  0.64902  1.0000
  S   S726      1.0  0.96288  0.48036  0.60686  1.0000
  S   S727      1.0  0.94511  0.49529  0.65618  1.0000
  Fe  Fe362     1.0  0.95182  0.46195  0.61177  1.0000
  S   S728      1.0  0.94617  0.45940  0.57020  1.0000
  S   S729      1.0  0.93938  0.46176  0.65314  1.0000
  S   S730      1.0  0.96269  0.47265  0.67508  1.0000
  C   C2498     1.0  0.78987  0.35106  0.56175  1.0000
  H   H4283     1.0  0.86959  0.39211  0.84956  1.0000
  S   S731      1.0  0.77658  0.39964  0.67246  1.0000
  Fe  Fe363     1.0  0.83657  0.49843  0.94615  1.0000
  S   S732      1.0  0.83316  0.47868  0.95933  1.0000
  S   S733      1.0  0.85581  0.50888  0.92595  1.0000
  Fe  Fe364     1.0  0.80989  0.49661  0.96045  1.0000
  H   H4284     1.0  0.96131  0.42841  0.91630  1.0000
  S   S734      1.0  0.79498  0.50565  0.96119  1.0000
  C   C2499     1.0  0.98847  0.44373  0.68885  1.0000
  H   H4285     1.0  0.81488  0.43269  0.84116  1.0000
  Fe  Fe365     1.0  0.81889  0.47807  0.93616  1.0000
  S   S735      1.0  0.81343  0.46531  0.91014  1.0000
  C   C2500     1.0  0.78681  0.35303  0.53559  1.0000
  S   S736      1.0  0.82311  0.49769  0.92001  1.0000
  Fe  Fe366     1.0  0.78713  0.46231  0.73951  1.0000
  S   S737      1.0  0.80044  0.47974  0.72608  1.0000
  S   S738      1.0  0.76820  0.46193  0.75390  1.0000
  Fe  Fe367     1.0  0.80507  0.44892  0.72742  1.0000
  S   S739      1.0  0.82009  0.46517  0.71272  1.0000
  S   S740      1.0  0.80857  0.43110  0.72929  1.0000
  Fe  Fe368     1.0  0.81095  0.47034  0.75084  1.0000
  S   S741      1.0  0.82174  0.48045  0.77493  1.0000
  Fe  Fe369     1.0  0.80841  0.47328  0.68920  1.0000
  S   S742      1.0  0.81437  0.48615  0.64553  1.0000
  S   S743      1.0  0.79686  0.45334  0.76758  1.0000
  S   S744      1.0  0.79420  0.45665  0.70061  1.0000
  C   C2501     1.0  0.81585  0.46965  0.87255  1.0000
  C   C2502     1.0  0.80885  0.46287  0.85920  1.0000
  C   C2503     1.0  0.81048  0.46611  0.82935  1.0000
  C   C2504     1.0  0.81927  0.47608  0.81255  1.0000
  C   C2505     1.0  0.82634  0.48279  0.82587  1.0000
  C   C2506     1.0  0.82465  0.47959  0.85573  1.0000
  H   H4286     1.0  0.80207  0.45513  0.87206  1.0000
  H   H4287     1.0  0.80497  0.46089  0.81937  1.0000
  H   H4288     1.0  0.83320  0.49047  0.81303  1.0000
  H   H4289     1.0  0.83020  0.48477  0.86574  1.0000
  H   H4290     1.0  0.77236  0.45877  0.68055  1.0000
  H   H4291     1.0  0.88966  0.48661  0.92342  1.0000
  C   C2507     1.0  0.81561  0.48883  0.58853  1.0000
  C   C2508     1.0  0.81294  0.48081  0.61539  1.0000
  C   C2509     1.0  0.80912  0.46875  0.61778  1.0000
  C   C2510     1.0  0.80786  0.46477  0.59348  1.0000
  H   H4292     1.0  0.80050  0.37599  0.53777  1.0000
  H   H4293     1.0  0.81860  0.49817  0.58652  1.0000
  H   H4294     1.0  0.80720  0.46247  0.63826  1.0000
  H   H4295     1.0  0.80488  0.45543  0.59547  1.0000
  C   C2511     1.0  0.78502  0.40772  0.69033  1.0000
  C   C2512     1.0  0.78233  0.41796  0.69587  1.0000
  C   C2513     1.0  0.78929  0.42491  0.70879  1.0000
  C   C2514     1.0  0.79914  0.42184  0.71560  1.0000
  C   C2515     1.0  0.80155  0.41132  0.71116  1.0000
  C   C2516     1.0  0.79445  0.40421  0.69868  1.0000
  H   H4296     1.0  0.77485  0.42049  0.69019  1.0000
  H   H4297     1.0  0.78701  0.43264  0.71342  1.0000
  H   H4298     1.0  0.80908  0.40880  0.71669  1.0000
  H   H4299     1.0  0.79650  0.39624  0.69470  1.0000
  C   C2517     1.0  0.75618  0.34177  0.78988  1.0000
  H   H4300     1.0  0.94218  0.50688  0.74651  1.0000
  C   C2518     1.0  0.97507  0.53134  0.60495  1.0000
  H   H4301     1.0  0.77086  0.44111  0.73449  1.0000
  C   C2519     1.0  0.81945  0.37266  0.55118  1.0000
  C   C2520     1.0  0.76366  0.49268  0.92587  1.0000
  C   C2521     1.0  0.76462  0.50275  0.93626  1.0000
  C   C2522     1.0  0.77396  0.50632  0.94828  1.0000
  C   C2523     1.0  0.78241  0.49987  0.95007  1.0000
  C   C2524     1.0  0.78110  0.48949  0.94096  1.0000
  C   C2525     1.0  0.77188  0.48603  0.92851  1.0000
  H   H4302     1.0  0.75802  0.40259  0.72181  1.0000
  H   H4303     1.0  0.81914  0.54099  0.86587  1.0000
  H   H4304     1.0  0.78756  0.48445  0.94208  1.0000
  H   H4305     1.0  0.77138  0.47839  0.91994  1.0000
  C   C2526     1.0  0.97217  0.51878  0.68684  1.0000
  C   C2527     1.0  0.96115  0.52097  0.68760  1.0000
  C   C2528     1.0  0.95283  0.51377  0.67814  1.0000
  C   C2529     1.0  0.95559  0.50448  0.66744  1.0000
  C   C2530     1.0  0.96679  0.50265  0.66553  1.0000
  C   C2531     1.0  0.97494  0.50958  0.67586  1.0000
  H   H4306     1.0  0.95883  0.52794  0.69632  1.0000
  H   H4307     1.0  0.94425  0.51535  0.67930  1.0000
  H   H4308     1.0  0.96935  0.49615  0.65536  1.0000
  C   C2532     1.0  0.75438  0.43413  0.72573  1.0000
  H   H4309     1.0  0.95555  0.44584  0.95278  1.0000
  C   C2533     1.0  0.97525  0.53484  0.55351  1.0000
  H   H4310     1.0  0.93793  0.50391  0.81396  1.0000
  H   H4311     1.0  0.76694  0.46765  0.59632  1.0000
  H   H4312     1.0  0.83724  0.50086  0.64664  1.0000
  C   C2534     1.0  0.92421  0.49088  0.95177  1.0000
  H   H4313     1.0  0.93979  0.51035  0.86046  1.0000
  C   C2535     1.0  0.82952  0.38966  0.50864  1.0000
  H   H4314     1.0  0.92139  0.40688  0.79090  1.0000
  C   C2536     1.0  0.77492  0.36549  0.55185  1.0000
  C   C2537     1.0  0.86204  0.40192  0.92162  1.0000
  C   C2538     1.0  0.85122  0.40234  0.91522  1.0000
  H   H4315     1.0  0.95428  0.50048  0.74362  1.0000
  H   H4316     1.0  0.95196  0.52262  0.60941  1.0000
  H   H4317     1.0  0.90655  0.43845  0.78452  1.0000
  C   C2539     1.0  0.91189  0.47798  0.92078  1.0000
  C   C2540     1.0  0.92373  0.44039  0.51737  1.0000
  C   C2541     1.0  0.92281  0.43505  0.54625  1.0000
  C   C2542     1.0  0.92948  0.44068  0.56258  1.0000
  C   C2543     1.0  0.93749  0.45175  0.55029  1.0000
  C   C2544     1.0  0.93853  0.45704  0.52126  1.0000
  C   C2545     1.0  0.93165  0.45153  0.50510  1.0000
  H   H4318     1.0  0.91681  0.42646  0.55624  1.0000
  H   H4319     1.0  0.92846  0.43638  0.58473  1.0000
  H   H4320     1.0  0.94465  0.46556  0.51115  1.0000
  H   H4321     1.0  0.76268  0.47647  0.61882  1.0000
  C   C2546     1.0  0.93432  0.43386  0.81642  1.0000
  C   C2547     1.0  0.93237  0.44358  0.79833  1.0000
  C   C2548     1.0  0.93658  0.44601  0.76804  1.0000
  C   C2549     1.0  0.94259  0.43861  0.75573  1.0000
  C   C2550     1.0  0.94432  0.42892  0.77403  1.0000
  C   C2551     1.0  0.94039  0.42667  0.80383  1.0000
  H   H4322     1.0  0.92777  0.44930  0.80761  1.0000
  H   H4323     1.0  0.93512  0.45353  0.75429  1.0000
  H   H4324     1.0  0.94884  0.42308  0.76505  1.0000
  H   H4325     1.0  0.94200  0.41916  0.81729  1.0000
  H   H4326     1.0  0.95986  0.44702  0.90189  1.0000
  H   H4327     1.0  0.82569  0.38793  0.56786  1.0000
  S   S745      1.0  0.93163  0.55046  0.96026  1.0000
  C   C2552     1.0  0.86697  0.51546  0.94093  1.0000
  C   C2553     1.0  0.87867  0.51933  0.92425  1.0000
  C   C2554     1.0  0.88787  0.52443  0.93516  1.0000
  S   S746      1.0  0.89659  0.53349  0.97659  1.0000
  H   H4328     1.0  0.78322  0.46959  0.65376  1.0000
  H   H4329     1.0  0.88065  0.51835  0.90266  1.0000
  H   H4330     1.0  0.89678  0.52736  0.92194  1.0000
  C   C2555     1.0  0.95613  0.55452  0.84963  1.0000
  C   C2556     1.0  0.96665  0.55595  0.82911  1.0000
  C   C2557     1.0  0.96730  0.55885  0.79961  1.0000
  C   C2558     1.0  0.95753  0.56077  0.79013  1.0000
  C   C2559     1.0  0.94696  0.55922  0.81060  1.0000
  C   C2560     1.0  0.94620  0.55594  0.84017  1.0000
  H   H4331     1.0  0.97439  0.55489  0.83615  1.0000
  H   H4332     1.0  0.97543  0.55986  0.78421  1.0000
  H   H4333     1.0  0.93933  0.56071  0.80358  1.0000
  H   H4334     1.0  0.93808  0.55501  0.85560  1.0000
  C   C2561     1.0  0.94879  0.54880  0.55699  1.0000
  C   C2562     1.0  0.94662  0.54510  0.58702  1.0000
  C   C2563     1.0  0.95385  0.55082  0.60209  1.0000
  C   C2564     1.0  0.96345  0.56047  0.58745  1.0000
  C   C2565     1.0  0.96553  0.56427  0.55747  1.0000
  C   C2566     1.0  0.95834  0.55850  0.54238  1.0000
  H   H4335     1.0  0.93925  0.53769  0.59880  1.0000
  H   H4336     1.0  0.95196  0.54777  0.62509  1.0000
  H   H4337     1.0  0.97281  0.57175  0.54572  1.0000
  H   H4338     1.0  0.96020  0.56156  0.51940  1.0000
  H   H4339     1.0  0.91869  0.51111  0.56843  1.0000
  S   S747      1.0  0.94816  0.53184  0.96097  1.0000
  H   H4340     1.0  0.93010  0.50672  0.58086  1.0000
  H   H4341     1.0  0.77747  0.44331  0.66984  1.0000
  C   C2567     1.0  0.91487  0.47209  0.94464  1.0000
  C   C2568     1.0  0.92103  0.47853  0.96008  1.0000
  H   H4342     1.0  0.77082  0.46466  0.50146  1.0000
  H   H4343     1.0  0.93198  0.51206  0.54275  1.0000
  H   H4344     1.0  0.91228  0.46256  0.95150  1.0000
  H   H4345     1.0  0.89909  0.48956  0.97342  1.0000
  N   N180      1.0  0.80520  0.51814  0.86564  1.0000
  C   C2569     1.0  0.89457  0.49655  0.96806  1.0000
  H   H4346     1.0  0.77381  0.35215  0.82344  1.0000
  C   C2570     1.0  0.81858  0.37969  0.57402  1.0000
  C   C2571     1.0  0.80650  0.52076  0.83387  1.0000
  C   C2572     1.0  0.99218  0.60709  0.79447  1.0000
  C   C2573     1.0  0.82400  0.53456  0.86017  1.0000
  H   H4347     1.0  0.75938  0.34207  0.52374  1.0000
  H   H4348     1.0  0.88957  0.47337  0.96433  1.0000
  C   C2574     1.0  0.76294  0.47968  0.50313  1.0000
  C   C2575     1.0  0.93273  0.40781  0.96064  1.0000
  H   H4349     1.0  0.83804  0.53111  0.48388  1.0000
  H   H4350     1.0  0.98243  0.50416  0.60226  1.0000
  H   H4351     1.0  0.76047  0.47085  0.69215  1.0000
  N   N181      1.0  0.99106  0.45324  0.70427  1.0000
  H   H4352     1.0  0.81407  0.51781  0.82336  1.0000
  H   H4353     1.0  0.79869  0.51543  0.82934  1.0000
  H   H4354     1.0  0.75963  0.38947  0.74313  1.0000
  H   H4355     1.0  0.98434  0.54796  0.61043  1.0000
  H   H4356     1.0  0.75431  0.44919  0.67395  1.0000
  H   H4357     1.0  0.94151  0.42101  0.92126  1.0000
  C   C2576     1.0  0.75848  0.45122  0.74471  1.0000
  Fe  Fe370     1.0  0.91635  0.53488  0.96464  1.0000
  H   H4358     1.0  0.75748  0.35099  0.79163  1.0000
  H   H4359     1.0  0.81729  0.38367  0.96672  1.0000
  H   H4360     1.0  0.75191  0.45695  0.50512  1.0000
  H   H4361     1.0  0.98178  0.58176  0.78344  1.0000
  H   H4362     1.0  0.99815  0.61212  0.80471  1.0000
  H   H4363     1.0  0.80861  0.39036  0.53580  1.0000
  H   H4364     1.0  0.95149  0.52279  0.57274  1.0000
  H   H4365     1.0  0.76886  0.35493  0.87131  1.0000
  N   N182      1.0  0.92705  0.48502  0.56655  1.0000
  C   C2577     1.0  0.91935  0.47327  0.56712  1.0000
  C   C2578     1.0  0.93005  0.48367  0.59499  1.0000
  C   C2579     1.0  0.93807  0.48773  0.54273  1.0000
  C   C2580     1.0  0.92032  0.49418  0.56109  1.0000
  C   C2581     1.0  0.91640  0.47213  0.53873  1.0000
  C   C2582     1.0  0.91964  0.48094  0.62139  1.0000
  C   C2583     1.0  0.94909  0.49633  0.54475  1.0000
  C   C2584     1.0  0.92577  0.50665  0.56330  1.0000
  H   H4366     1.0  0.92347  0.46601  0.57385  1.0000
  H   H4367     1.0  0.91077  0.47116  0.58308  1.0000
  H   H4368     1.0  0.93635  0.49161  0.59587  1.0000
  H   H4369     1.0  0.93468  0.47655  0.59832  1.0000
  H   H4370     1.0  0.94077  0.47954  0.54092  1.0000
  H   H4371     1.0  0.93648  0.49130  0.52178  1.0000
  H   H4372     1.0  0.91903  0.49545  0.53913  1.0000
  H   H4373     1.0  0.91118  0.49118  0.57489  1.0000
  H   H4374     1.0  0.91115  0.46300  0.54161  1.0000
  H   H4375     1.0  0.91107  0.47815  0.53191  1.0000
  H   H4376     1.0  0.92437  0.47361  0.52138  1.0000
  H   H4377     1.0  0.91456  0.48766  0.61968  1.0000
  H   H4378     1.0  0.91380  0.47201  0.62553  1.0000
  H   H4379     1.0  0.92311  0.48108  0.64052  1.0000
  H   H4380     1.0  0.95278  0.49216  0.56181  1.0000
  H   H4381     1.0  0.94751  0.50473  0.54813  1.0000
  H   H4382     1.0  0.95595  0.49846  0.52435  1.0000
  C   C2585     1.0  0.96560  0.51559  0.58628  1.0000
  H   H4383     1.0  0.96551  0.50888  0.60555  1.0000
  N   N183      1.0  0.97593  0.52616  0.57952  1.0000
  C   C2586     1.0  0.81432  0.48485  0.56423  1.0000
  C   C2587     1.0  0.81035  0.47279  0.56668  1.0000
  C   C2588     1.0  0.92140  0.49673  0.92761  1.0000
  C   C2589     1.0  0.91518  0.49030  0.91226  1.0000
  H   H4384     1.0  0.97254  0.59984  0.78010  1.0000
  H   H4385     1.0  0.92403  0.50620  0.92063  1.0000
  H   H4386     1.0  0.91294  0.49489  0.89375  1.0000
  S   S748      1.0  0.83530  0.36743  0.92332  1.0000
  H   H4387     1.0  0.92967  0.51514  0.84148  1.0000
  H   H4388     1.0  0.94926  0.45495  0.91074  1.0000
  H   H4389     1.0  0.95155  0.50713  0.82149  1.0000
  H   H4390     1.0  0.99279  0.60499  0.71189  1.0000
  C   C2590     1.0  0.79828  0.36131  0.82054  1.0000
  C   C2591     1.0  0.86452  0.39091  0.92793  1.0000
  C   C2592     1.0  0.94482  0.51144  0.81497  1.0000
  C   C2593     1.0  0.94845  0.50401  0.75824  1.0000
  C   C2594     1.0  0.93911  0.51587  0.84017  1.0000
  H   H4391     1.0  0.93222  0.51584  0.77921  1.0000
  H   H4392     1.0  0.94162  0.54227  0.77318  1.0000
  C   C2595     1.0  0.98977  0.44706  0.73497  1.0000
  H   H4393     1.0  0.94352  0.52494  0.83988  1.0000
  H   H4394     1.0  0.94371  0.49662  0.77723  1.0000
  C   C2596     1.0  0.93989  0.52360  0.77415  1.0000
  C   C2597     1.0  0.93521  0.53361  0.78361  1.0000
  H   H4395     1.0  0.93294  0.53240  0.80697  1.0000
  H   H4396     1.0  0.84663  0.48962  0.61807  1.0000
  S   S749      1.0  0.76977  0.36879  0.72202  1.0000
  C   C2598     1.0  0.86691  0.51170  0.65880  1.0000
  H   H4397     1.0  0.81624  0.49110  0.54371  1.0000
  C   C2599     1.0  0.95608  0.51431  0.76595  1.0000
  H   H4398     1.0  0.96275  0.51068  0.77481  1.0000
  N   N184      1.0  0.94965  0.52018  0.78608  1.0000
  C   C2600     1.0  0.98052  0.46819  0.72317  1.0000
  H   H4399     1.0  0.97908  0.43868  0.69670  1.0000
  H   H4400     1.0  0.81137  0.39707  0.83991  1.0000
  H   H4401     1.0  0.96107  0.52088  0.74548  1.0000
  H   H4402     1.0  0.97495  0.52559  0.78251  1.0000
  H   H4403     1.0  0.94280  0.52665  0.75033  1.0000
  C   C2601     1.0  0.85378  0.51079  0.67129  1.0000
  H   H4404     1.0  0.75056  0.46203  0.65895  1.0000
  H   H4405     1.0  0.79673  0.39069  0.50157  1.0000
  H   H4406     1.0  0.92713  0.53408  0.77641  1.0000
  Fe  Fe371     1.0  0.79156  0.36113  0.95616  1.0000
  H   H4407     1.0  0.86881  0.50412  0.65109  1.0000
  C   C2602     1.0  0.80948  0.43265  0.82546  1.0000
  C   C2603     1.0  0.81092  0.40669  0.79035  1.0000
  S   S750      1.0  0.80510  0.37532  0.92122  1.0000
  H   H4408     1.0  0.94014  0.44184  0.95701  1.0000
  C   C2604     1.0  0.94854  0.44038  0.94598  1.0000
  C   C2605     1.0  0.95837  0.53104  0.78672  1.0000
  H   H4409     1.0  0.95426  0.53616  0.80016  1.0000
  H   H4410     1.0  0.79051  0.41221  0.84146  1.0000
  H   H4411     1.0  0.77932  0.52698  0.88612  1.0000
  H   H4412     1.0  0.82753  0.53656  0.83672  1.0000
  C   C2606     1.0  0.96908  0.52889  0.79753  1.0000
  H   H4413     1.0  0.97438  0.53739  0.79887  1.0000
  C   C2607     1.0  0.77804  0.36358  0.57801  1.0000
  H   H4414     1.0  0.85841  0.37216  0.93290  1.0000
  H   H4415     1.0  0.85083  0.51642  0.65478  1.0000
  Fe  Fe372     1.0  0.76132  0.35683  0.69863  1.0000
  H   H4416     1.0  0.80249  0.34925  0.79563  1.0000
  H   H4417     1.0  0.96175  0.53724  0.76495  1.0000
  H   H4418     1.0  0.96645  0.52286  0.81927  1.0000
  H   H4419     1.0  0.87272  0.39032  0.93300  1.0000
  H   H4420     1.0  0.81549  0.51976  0.89638  1.0000
  H   H4421     1.0  0.75711  0.48213  0.85188  1.0000
  S   S751      1.0  0.96388  0.45397  0.63527  1.0000
  C   C2608     1.0  0.82513  0.36069  0.50785  1.0000
  H   H4422     1.0  0.75724  0.34222  0.76680  1.0000
  H   H4423     1.0  0.85348  0.51516  0.68916  1.0000
  C   C2609     1.0  0.99078  0.44792  0.65611  1.0000
  H   H4424     1.0  0.81206  0.36456  0.55964  1.0000
  C   C2610     1.0  0.86457  0.51694  0.96869  1.0000
  H   H4425     1.0  0.98352  0.50799  0.67468  1.0000
  C   C2611     1.0  0.97204  0.59344  0.76698  1.0000
  C   C2612     1.0  0.88545  0.52614  0.96268  1.0000
  C   C2613     1.0  0.84299  0.39199  0.91543  1.0000
  H   H4426     1.0  0.98947  0.61387  0.78044  1.0000
  H   H4427     1.0  0.77417  0.34183  0.78793  1.0000
  H   H4428     1.0  0.81675  0.53700  0.80144  1.0000
  C   C2614     1.0  0.82730  0.50697  0.69165  1.0000
  C   C2615     1.0  0.80473  0.40603  0.86984  1.0000
  H   H4429     1.0  0.82927  0.41692  0.77017  1.0000
  H   H4430     1.0  0.82091  0.41080  0.83712  1.0000
  S   S752      1.0  0.76821  0.36975  0.65559  1.0000
  S   S753      1.0  0.80768  0.46745  0.53733  1.0000
  S   S754      1.0  0.91823  0.52434  0.50314  1.0000
  C   C2616     1.0  0.97745  0.43901  0.75114  1.0000
  C   C2617     1.0  0.78474  0.52250  0.87324  1.0000
  H   H4431     1.0  0.77855  0.43605  0.64189  1.0000
  C   C2618     1.0  0.98879  0.51288  0.59712  1.0000
  C   C2619     1.0  0.99879  0.59970  0.77838  1.0000
  H   H4432     1.0  0.98150  0.58283  0.74724  1.0000
  C   C2620     1.0  0.87991  0.47166  0.97254  1.0000
  H   H4433     1.0  0.81097  0.44187  0.81283  1.0000
  H   H4434     1.0  0.82058  0.50754  0.71004  1.0000
  H   H4435     1.0  0.94459  0.44098  0.90375  1.0000
  H   H4436     1.0  0.75549  0.48345  0.55541  1.0000
  S   S755      1.0  0.80232  0.34795  0.95784  1.0000
  Fe  Fe373     1.0  0.78346  0.36166  0.65117  1.0000
  H   H4437     1.0  0.89124  0.41798  0.86520  1.0000
  H   H4438     1.0  0.80368  0.41474  0.87222  1.0000
  H   H4439     1.0  0.78545  0.38324  0.80031  1.0000
  S   S756      1.0  0.79409  0.37427  0.67012  1.0000
  C   C2621     1.0  0.88066  0.48765  0.93084  1.0000
  H   H4440     1.0  0.93108  0.42510  0.94551  1.0000
  H   H4441     1.0  0.90565  0.41526  0.78117  1.0000
  H   H4442     1.0  0.97038  0.44348  0.74897  1.0000
  H   H4443     1.0  0.89711  0.50319  0.97988  1.0000
  C   C2622     1.0  0.76918  0.47131  0.61402  1.0000
  H   H4444     1.0  0.97562  0.43079  0.74398  1.0000
  H   H4445     1.0  0.93914  0.40251  0.96255  1.0000
  H   H4446     1.0  0.90824  0.39638  0.81208  1.0000
  Fe  Fe374     1.0  0.97393  0.47249  0.63310  1.0000
  H   H4447     1.0  0.78620  0.37495  0.75814  1.0000
  H   H4448     1.0  0.88351  0.42469  0.82892  1.0000
  H   H4449     1.0  0.77491  0.51437  0.95521  1.0000
  H   H4450     1.0  0.80042  0.53345  0.87729  1.0000
  H   H4451     1.0  0.75845  0.34924  0.83711  1.0000
  H   H4452     1.0  0.90003  0.39631  0.86324  1.0000
  C   C2623     1.0  0.98266  0.46087  0.70107  1.0000
  H   H4453     1.0  0.88567  0.40286  0.80466  1.0000
  H   H4454     1.0  0.75730  0.42725  0.71749  1.0000
  H   H4455     1.0  0.99614  0.44155  0.73619  1.0000
  S   S757      1.0  0.77583  0.34789  0.69291  1.0000
  H   H4456     1.0  0.93770  0.42474  0.49891  1.0000
  C   C2624     1.0  0.88110  0.49171  0.97716  1.0000
  H   H4457     1.0  0.90735  0.40591  0.88060  1.0000
  H   H4458     1.0  0.80987  0.38158  0.57938  1.0000
  H   H4459     1.0  0.77961  0.51322  0.87850  1.0000
  C   C2625     1.0  0.75165  0.45694  0.90158  1.0000
  H   H4460     1.0  0.99203  0.45328  0.74785  1.0000
  H   H4461     1.0  0.85989  0.48588  0.73000  1.0000
  N   N185      1.0  0.89612  0.41416  0.82417  1.0000
  C   C2626     1.0  0.90731  0.41503  0.80261  1.0000
  H   H4462     1.0  0.79112  0.50192  0.87909  1.0000
  H   H4463     1.0  0.76920  0.37117  0.54799  1.0000
  H   H4464     1.0  0.86536  0.45949  0.96321  1.0000
  H   H4465     1.0  0.98800  0.61181  0.73873  1.0000
  H   H4466     1.0  0.98851  0.51605  0.61667  1.0000
  Fe  Fe375     1.0  0.79692  0.36671  0.89105  1.0000
  H   H4467     1.0  0.89005  0.39501  0.83271  1.0000
  C   C2627     1.0  0.79406  0.40931  0.82240  1.0000
  H   H4468     1.0  0.77234  0.48466  0.81526  1.0000
  S   S758      1.0  0.79421  0.35470  0.74569  1.0000
  H   H4469     1.0  0.91394  0.42337  0.79994  1.0000
  Fe  Fe376     1.0  0.81583  0.36210  0.92178  1.0000
  H   H4470     1.0  0.90651  0.42201  0.84946  1.0000
  H   H4471     1.0  0.77893  0.41273  0.80789  1.0000
  C   C2628     1.0  0.82415  0.40766  0.78023  1.0000
  C   C2629     1.0  0.76210  0.44204  0.73507  1.0000
  H   H4472     1.0  0.77210  0.45046  0.61102  1.0000
  H   H4473     1.0  0.87055  0.51954  0.64017  1.0000
  H   H4474     1.0  0.77492  0.48090  0.68089  1.0000
  H   H4475     1.0  0.90427  0.43833  0.82193  1.0000
  C   C2630     1.0  0.99490  0.60752  0.73109  1.0000
  H   H4476     1.0  0.77939  0.47323  0.82757  1.0000
  H   H4477     1.0  0.84848  0.39607  0.49592  1.0000
  H   H4478     1.0  0.91735  0.40591  0.82798  1.0000
  C   C2631     1.0  0.91371  0.40535  0.80929  1.0000
  H   H4479     1.0  0.80164  0.35743  0.83773  1.0000
  Fe  Fe377     1.0  0.99761  0.57115  0.68028  1.0000
  H   H4480     1.0  0.81613  0.49911  0.86064  1.0000
  C   C2632     1.0  0.89836  0.41504  0.85267  1.0000
  H   H4481     1.0  0.76000  0.34019  0.88626  1.0000
  H   H4482     1.0  0.92996  0.40981  0.50574  1.0000
  H   H4483     1.0  0.99378  0.54212  0.58815  1.0000
  H   H4484     1.0  0.78394  0.48520  0.61634  1.0000
  H   H4485     1.0  0.79191  0.42435  0.79122  1.0000
  H   H4486     1.0  0.98554  0.46712  0.67950  1.0000
  C   C2633     1.0  0.75543  0.45554  0.65329  1.0000
  C   C2634     1.0  0.78855  0.41464  0.79892  1.0000
  C   C2635     1.0  0.89936  0.40376  0.87276  1.0000
  S   S759      1.0  0.78203  0.35414  0.92599  1.0000
  H   H4487     1.0  0.98354  0.55155  0.52233  1.0000
  C   C2636     1.0  0.80816  0.53373  0.81766  1.0000
  C   C2637     1.0  0.79669  0.52389  0.88081  1.0000
  C   C2638     1.0  0.85634  0.38058  0.92789  1.0000
  H   H4488     1.0  0.84342  0.38331  0.52530  1.0000
  H   H4489     1.0  0.80132  0.53431  0.80577  1.0000
  H   H4490     1.0  0.99391  0.54491  0.53562  1.0000
  N   N186      1.0  0.84553  0.49859  0.68174  1.0000
  C   C2639     1.0  0.77383  0.47600  0.81353  1.0000
  H   H4491     1.0  0.89484  0.44355  0.80175  1.0000
  H   H4492     1.0  0.80959  0.40286  0.88538  1.0000
  Fe  Fe378     1.0  0.78509  0.36112  0.71237  1.0000
  H   H4493     1.0  0.83487  0.48596  0.66588  1.0000
  H   H4494     1.0  0.75842  0.46918  0.80108  1.0000
  H   H4495     1.0  0.87008  0.40733  0.83800  1.0000
  H   H4496     1.0  0.85708  0.50184  0.62084  1.0000
  H   H4497     1.0  0.76678  0.46820  0.87031  1.0000
  H   H4498     1.0  0.98679  0.51773  0.55430  1.0000
  H   H4499     1.0  0.89183  0.40069  0.89204  1.0000
  C   C2640     1.0  0.89986  0.43681  0.80498  1.0000
  H   H4500     1.0  0.82263  0.42688  0.80063  1.0000
  Fe  Fe379     1.0  0.81421  0.47918  0.49219  1.0000
  H   H4501     1.0  0.88833  0.42339  0.79352  1.0000
  C   C2641     1.0  0.88710  0.40305  0.82614  1.0000
  S   S760      1.0  0.99419  0.47943  0.61960  1.0000
  H   H4502     1.0  0.84913  0.41076  0.91026  1.0000
  C   C2642     1.0  0.85073  0.48950  0.69685  1.0000
  H   H4503     1.0  0.97487  0.53058  0.53559  1.0000
  H   H4504     1.0  0.85837  0.47456  0.96051  1.0000
  H   H4505     1.0  0.97697  0.43630  0.77429  1.0000
  C   C2643     1.0  0.76774  0.34575  0.86909  1.0000
  H   H4506     1.0  0.79572  0.34550  0.56544  1.0000
  H   H4507     1.0  0.83259  0.51607  0.68049  1.0000
  H   H4508     1.0  0.78115  0.48655  0.58192  1.0000
  H   H4509     1.0  0.77479  0.36785  0.59406  1.0000
  H   H4510     1.0  0.98479  0.55198  0.55713  1.0000
  H   H4511     1.0  0.87483  0.45266  0.97902  1.0000
  C   C2644     1.0  0.77357  0.44157  0.65220  1.0000
  H   H4512     1.0  0.75234  0.44147  0.63082  1.0000
  H   H4513     1.0  0.80008  0.42997  0.83678  1.0000
  Fe  Fe380     1.0  0.77799  0.38103  0.67846  1.0000
  C   C2645     1.0  0.84180  0.38746  0.50482  1.0000
  C   C2646     1.0  0.85104  0.49320  0.63329  1.0000
  H   H4514     1.0  0.82874  0.48995  0.71237  1.0000
  H   H4515     1.0  0.75189  0.46428  0.97532  1.0000
  H   H4516     1.0  0.92668  0.40379  0.94903  1.0000
  H   H4517     1.0  0.79025  0.39960  0.82859  1.0000
  C   C2647     1.0  0.87467  0.46066  0.96331  1.0000
  C   C2648     1.0  0.89136  0.42440  0.81293  1.0000
  N   N187      1.0  0.81924  0.37899  0.52165  1.0000
  H   H4518     1.0  0.85592  0.48685  0.64086  1.0000
  C   C2649     1.0  0.87334  0.48272  0.91173  1.0000
  Fe  Fe381     1.0  0.93480  0.53863  0.49648  1.0000
  H   H4519     1.0  0.84672  0.48992  0.74207  1.0000
  H   H4520     1.0  0.82281  0.51636  0.86544  1.0000
  H   H4521     1.0  0.82917  0.39424  0.48707  1.0000
  C   C2650     1.0  0.98630  0.53962  0.60710  1.0000
  H   H4522     1.0  0.80630  0.39715  0.79613  1.0000
  H   H4523     1.0  0.85971  0.50104  0.71991  1.0000
  C   C2651     1.0  0.81682  0.52165  0.87271  1.0000
  H   H4524     1.0  0.75630  0.50007  0.48788  1.0000
  H   H4525     1.0  0.87568  0.40211  0.86808  1.0000
  C   C2652     1.0  0.87498  0.40119  0.84667  1.0000
  H   H4526     1.0  0.81168  0.42914  0.78381  1.0000
  H   H4527     1.0  0.87988  0.46070  0.94199  1.0000
  H   H4528     1.0  0.78822  0.47564  0.59450  1.0000
  H   H4529     1.0  0.82237  0.50322  0.67756  1.0000
  H   H4530     1.0  0.85847  0.48826  0.68261  1.0000
  H   H4531     1.0  0.97160  0.41447  0.94286  1.0000
  C   C2653     1.0  0.85445  0.49189  0.72362  1.0000
  C   C2654     1.0  0.93849  0.42081  0.94423  1.0000
  H   H4532     1.0  0.77577  0.34318  0.87262  1.0000
  S   S761      1.0  0.89313  0.43776  0.95198  1.0000
  H   H4533     1.0  0.99512  0.57210  0.76300  1.0000
  N   N188      1.0  0.87601  0.48264  0.96281  1.0000
  H   H4534     1.0  0.82774  0.40361  0.79760  1.0000
  H   H4535     1.0  0.78977  0.41061  0.78061  1.0000
  S   S762      1.0  0.80846  0.35426  0.88906  1.0000
  H   H4536     1.0  0.97154  0.46453  0.73759  1.0000
  H   H4537     1.0  0.84435  0.48066  0.70372  1.0000
  H   H4538     1.0  0.82017  0.35376  0.52768  1.0000
  Fe  Fe382     1.0  0.93189  0.51801  0.96483  1.0000
  C   C2655     1.0  0.79876  0.35667  0.79660  1.0000
  C   C2656     1.0  0.84157  0.49459  0.65750  1.0000
  C   C2657     1.0  0.81155  0.40642  0.83952  1.0000
  H   H4539     1.0  0.92322  0.47392  0.97866  1.0000
  H   H4540     1.0  0.82548  0.40279  0.76348  1.0000
  C   C2658     1.0  0.84547  0.38097  0.92180  1.0000
  C   C2659     1.0  0.81293  0.42515  0.80490  1.0000
  H   H4541     1.0  0.87203  0.51338  0.67449  1.0000
  H   H4542     1.0  0.83706  0.50197  0.72139  1.0000
  H   H4543     1.0  0.82749  0.36950  0.55084  1.0000
  C   C2660     1.0  0.80819  0.38323  0.52447  1.0000
  C   C2661     1.0  0.78136  0.48009  0.60129  1.0000
  S   S763      1.0  0.79117  0.35517  0.61344  1.0000
  H   H4544     1.0  0.80100  0.50264  0.90100  1.0000
  C   C2662     1.0  0.81881  0.37060  0.50259  1.0000
  C   C2663     1.0  0.78917  0.37582  0.79937  1.0000
  H   H4545     1.0  0.96401  0.58623  0.77816  1.0000
  C   C2664     1.0  0.76225  0.46650  0.81914  1.0000
  H   H4546     1.0  0.83472  0.39253  0.91065  1.0000
  N   N189      1.0  0.94825  0.42747  0.95435  1.0000
  H   H4547     1.0  0.98645  0.45495  0.64976  1.0000
  H   H4548     1.0  0.80475  0.49721  0.84192  1.0000
  S   S764      1.0  0.79259  0.37676  0.85218  1.0000
  H   H4549     1.0  0.82916  0.39627  0.52139  1.0000
  H   H4550     1.0  0.76465  0.45819  0.81678  1.0000
  C   C2665     1.0  0.80051  0.50498  0.87839  1.0000
  C   C2666     1.0  0.77351  0.46609  0.66154  1.0000
  H   H4551     1.0  0.75851  0.50811  0.93371  1.0000
  C   C2667     1.0  0.78955  0.37110  0.77549  1.0000
  Fe  Fe383     1.0  0.91009  0.43288  0.95464  1.0000
  H   H4552     1.0  0.89788  0.50117  0.94504  1.0000
  H   H4553     1.0  0.75361  0.38403  0.70361  1.0000
  C   C2668     1.0  0.76820  0.47526  0.67367  1.0000
  H   H4554     1.0  0.94548  0.41367  0.49222  1.0000
  H   H4555     1.0  0.88152  0.49730  0.92496  1.0000
  H   H4556     1.0  0.76811  0.46789  0.53625  1.0000
  C   C2669     1.0  0.95996  0.42604  0.93990  1.0000
  C   C2670     1.0  0.79430  0.36146  0.77413  1.0000
  C   C2671     1.0  0.98275  0.58820  0.76286  1.0000
  H   H4557     1.0  0.97071  0.59754  0.74602  1.0000
  H   H4558     1.0  0.82547  0.35639  0.48992  1.0000
  C   C2672     1.0  0.79348  0.37089  0.82208  1.0000
  H   H4559     1.0  0.79600  0.39960  0.87609  1.0000
  C   C2673     1.0  0.98685  0.52188  0.57250  1.0000
  C   C2674     1.0  0.77954  0.36046  0.53029  1.0000
  H   H4560     1.0  0.98689  0.46912  0.73622  1.0000
  C   C2675     1.0  0.93753  0.41679  0.49083  1.0000
  C   C2676     1.0  0.80656  0.49700  0.86310  1.0000
  H   H4561     1.0  0.75152  0.35034  0.65640  1.0000
  H   H4562     1.0  0.99798  0.59151  0.79483  1.0000
  C   C2677     1.0  0.75309  0.39372  0.73547  1.0000
  C   C2678     1.0  0.96201  0.41363  0.94718  1.0000
  Fe  Fe384     1.0  0.79357  0.34176  0.92507  1.0000
  C   C2679     1.0  0.98508  0.54636  0.54192  1.0000
  H   H4563     1.0  0.81943  0.37420  0.59414  1.0000
  S   S765      1.0  0.75405  0.48972  0.90410  1.0000
  N   N190      1.0  0.99479  0.59672  0.75318  1.0000
  C   C2680     1.0  0.95068  0.44596  0.91369  1.0000
  H   H4564     1.0  0.87849  0.48621  0.88907  1.0000
  H   H4565     1.0  0.87118  0.47301  0.91632  1.0000
  H   H4566     1.0  0.95832  0.40818  0.93390  1.0000
  H   H4567     1.0  0.97385  0.45533  0.70217  1.0000
  H   H4568     1.0  0.98440  0.60132  0.81140  1.0000
  C   C2681     1.0  0.77474  0.45302  0.62963  1.0000
  H   H4569     1.0  0.99492  0.52917  0.56478  1.0000
  H   H4570     1.0  0.96737  0.43243  0.94314  1.0000
  H   H4571     1.0  0.80293  0.48773  0.87620  1.0000
  H   H4572     1.0  0.79488  0.52043  0.90439  1.0000
  C   C2682     1.0  0.78572  0.35655  0.58279  1.0000
  H   H4573     1.0  0.75673  0.45352  0.91624  1.0000
  H   H4574     1.0  0.78428  0.45732  0.62166  1.0000
  H   H4575     1.0  0.76505  0.48750  0.51155  1.0000
  H   H4576     1.0  0.99349  0.49236  0.66466  1.0000
  H   H4577     1.0  0.98712  0.44043  0.64783  1.0000
  H   H4578     1.0  0.80959  0.36580  0.50483  1.0000
  H   H4579     1.0  0.86517  0.48576  0.91341  1.0000
  N   N191      1.0  0.76821  0.46150  0.63963  1.0000
  H   H4580     1.0  0.76345  0.45342  0.86715  1.0000
  H   H4581     1.0  0.77899  0.47727  0.79126  1.0000
  H   H4582     1.0  0.78566  0.52669  0.85051  1.0000
  H   H4583     1.0  0.76438  0.43620  0.66107  1.0000
  H   H4584     1.0  0.83175  0.53591  0.86919  1.0000
  C   C2683     1.0  0.76611  0.34558  0.83898  1.0000
  H   H4585     1.0  0.80774  0.53994  0.83126  1.0000
  H   H4586     1.0  0.79021  0.34890  0.51946  1.0000
  H   H4587     1.0  0.77990  0.47715  0.50726  1.0000
  H   H4588     1.0  0.86043  0.48901  0.96428  1.0000
  H   H4589     1.0  0.98907  0.53567  0.62618  1.0000
  C   C2684     1.0  0.77070  0.47171  0.51282  1.0000
  S   S766      1.0  0.77633  0.36387  0.49682  1.0000
  C   C2685     1.0  0.80511  0.38813  0.49628  1.0000
  H   H4590     1.0  0.98080  0.47728  0.71175  1.0000
  C   C2686     1.0  0.87373  0.52239  0.97929  1.0000
  S   S767      1.0  0.93141  0.49873  0.97233  1.0000
  N   N192      1.0  0.75348  0.46428  0.84740  1.0000
  H   H4591     1.0  0.75343  0.39916  0.66710  1.0000
  H   H4592     1.0  0.95855  0.40890  0.96999  1.0000
  H   H4593     1.0  0.87736  0.49944  0.97334  1.0000
  C   C2687     1.0  0.86286  0.48061  0.97138  1.0000
  H   H4594     1.0  0.99365  0.43717  0.69315  1.0000
  H   H4595     1.0  0.83074  0.37464  0.97598  1.0000
  H   H4596     1.0  0.82662  0.39808  0.96373  1.0000
  C   C2688     1.0  0.81874  0.39108  0.97690  1.0000
  H   H4597     1.0  0.81105  0.39483  0.97687  1.0000
  H   H4598     1.0  0.75880  0.34023  0.58065  1.0000
  H   H4599     1.0  0.84341  0.38222  0.48912  1.0000
  H   H4600     1.0  0.83424  0.36383  0.50907  1.0000
  H   H4601     1.0  0.80360  0.38147  0.48395  1.0000
  H   H4602     1.0  0.84298  0.39292  0.97290  1.0000
  H   H4603     1.0  0.99761  0.51134  0.59047  1.0000
  S   S768      1.0  0.80511  0.47697  0.97560  1.0000
  H   H4604     1.0  0.92727  0.40715  0.98222  1.0000
  H   H4605     1.0  0.93256  0.45589  0.48305  1.0000
  H   H4606     1.0  0.85564  0.51410  0.98180  1.0000
  H   H4607     1.0  0.00030  0.45099  0.64536  1.0000
  H   H4608     1.0  0.81181  0.39613  0.48256  1.0000
