data_image0
_chemical_formula_structural       FeS2FeS2FeCFeS3FeS2FeS2FeSFeS3HNCHCHC2H2C2H4CH2C6H4C2H2C2H6CHC2NH2CH2CHCH4C3H2NCH2SHC2H2C2H2CHCH2CH5CH4C2H2CH5CH3CH4CHCH6CHSHNCH2CH2CHCH7C2H3CH3CHCH2NC4H3CH5CSHC2NHC7H6CH5C3H8C2H3CHCH5SHCHC2H4CSC2SFeHFeSHC2FeS2HNHS2H4C3HC2H2CFeHCHC2H3CHFeH3NC2H2CH3C2H2CH2CHCSH2C3H5CSH3FeH4CH3CH2SFeSHFeSFeS3FeSHFeSFeS2C2H2C3H2FeH3C4H2CHCSHC3H2FeCH2CH2C2NCNC8H23SCH5C3H2CSCH4CHCH2SHSH2CHCHCH2CH2CH2CNC4HC3H5CH2C4H10CFeH3NH3CSH4CSH3C2HSCHC2H2CHCH5CH4SH2CHNFeH3SC4H2CH3CHFeSHFeS2FeSFeS3FeS2FeSCFeSFeS3HC2HC2SH2C6H4CH4C3H5CH5C4H9NC5H3CH9CHSH3CH2NCH2C2HC2HC3H4CHCH4CHCH2CHNH2CH2C3HFeS2FeS2FeCFeS3FeS2FeS2FeSFeS3CH4C2H5CH3C2HC6H6C5HCNHCHCHCH3CH3NC8H11C3H9CH2CH2CH9NCH3CHCHCHCHCH2CSH2CHC2FeSCH4CH3CHCH3NC4SH16CHCHCH3C2NH2CSCH2CH2C2H2CH3NC2H2CH2CH4CFeHCH4CHCH4C2H2CSFeS2FeSCFeCS2FeSFeS2FeSHS2H4C6H2C4HC2SH2CHCH3CFeNC3H5C2H2CH3NH5C2H3C2H2CH6CH7C2H3CHCHSH3C2HCH2CHCHNHCH2CSHFeSCHSFeCHFeSFeHS2H2C2HC2HCSH3C2HCHCHFeNC2HCHCFeCHCH2SHCHCH4C2H2CH3C2SHSHCH6NCHCH7SH2C2H3CHC2HCH6CSH2FeC2H2CHC2H2CH2CH3CH4CH3CHCHCH3C2H7CH2C2SH2C2H4NSHNHSHC6HC2FeS2FeS2FeSFeS3FeS2FeS2FeSFeS3C2NH3CH2C6H4C2H4C3H3CH2C3HNC8H20C2H3C4H4CH2CH2CH5CH2CH6CH3CH2CH3C2NCH5CH3C2
_chemical_formula_sum              "Fe64 S128 C448 H768 N32"
_cell_length_a       37.4647
_cell_length_b       39.3011
_cell_length_c       38.0945
_cell_angle_alpha    90.3057
_cell_angle_beta     90.7018
_cell_angle_gamma    90.044

_space_group_name_H-M_alt    "P 1"
_space_group_IT_number       1

loop_
  _space_group_symop_operation_xyz
  'x, y, z'

loop_
  _atom_site_type_symbol
  _atom_site_label
  _atom_site_symmetry_multiplicity
  _atom_site_fract_x
  _atom_site_fract_y
  _atom_site_fract_z
  _atom_site_occupancy
  Fe  Fe1       1.0  0.24558  0.20511  0.44924  1.0000
  S   S1        1.0  0.26854  0.15607  0.42866  1.0000
  S   S2        1.0  0.28173  0.25060  0.46028  1.0000
  Fe  Fe2       1.0  0.16863  0.17771  0.44629  1.0000
  S   S3        1.0  0.18581  0.12670  0.42551  1.0000
  S   S4        1.0  0.11395  0.19238  0.46695  1.0000
  Fe  Fe3       1.0  0.23039  0.13030  0.46529  1.0000
  C   C1        1.0  0.25526  0.08147  0.03791  1.0000
  Fe  Fe4       1.0  0.22243  0.15678  0.39033  1.0000
  S   S5        1.0  0.22561  0.14206  0.33240  1.0000
  S   S6        1.0  0.21107  0.17940  0.48850  1.0000
  S   S7        1.0  0.20170  0.20771  0.40833  1.0000
  Fe  Fe5       1.0  0.33061  0.18207  0.10159  1.0000
  S   S8        1.0  0.31447  0.14547  0.14367  1.0000
  S   S9        1.0  0.28311  0.20660  0.07427  1.0000
  Fe  Fe6       1.0  0.41004  0.16812  0.11390  1.0000
  S   S10       1.0  0.39991  0.13090  0.15709  1.0000
  S   S11       1.0  0.46429  0.18254  0.09263  1.0000
  Fe  Fe7       1.0  0.35631  0.11082  0.12160  1.0000
  S   S12       1.0  0.34418  0.05432  0.11927  1.0000
  Fe  Fe8       1.0  0.35871  0.16837  0.17567  1.0000
  S   S13       1.0  0.35375  0.18352  0.23298  1.0000
  S   S14       1.0  0.36897  0.14548  0.07677  1.0000
  S   S15       1.0  0.37236  0.20769  0.13523  1.0000
  H   H1        1.0  0.41567  0.32493  0.51093  1.0000
  N   N1        1.0  0.10600  0.09518  0.52156  1.0000
  C   C2        1.0  0.03539  0.14644  0.40856  1.0000
  H   H2        1.0  0.27835  0.23009  0.21659  1.0000
  C   C3        1.0  0.26244  0.08716  0.07751  1.0000
  H   H3        1.0  0.30141  0.29110  0.24982  1.0000
  C   C4        1.0  0.50461  0.16839  0.11238  1.0000
  C   C5        1.0  0.50463  0.14646  0.14116  1.0000
  H   H4        1.0  0.33425  0.10891  0.22645  1.0000
  H   H5        1.0  0.47963  0.13785  0.15180  1.0000
  C   C6        1.0  0.31490  0.07914  0.30114  1.0000
  C   C7        1.0  0.21974  0.33306  0.47755  1.0000
  H   H6        1.0  0.10789  0.04395  0.46797  1.0000
  H   H7        1.0  0.29312  0.33020  0.14122  1.0000
  H   H8        1.0  0.20468  0.30871  0.47883  1.0000
  H   H9        1.0  0.33801  0.02504  0.19256  1.0000
  C   C8        1.0  0.28095  0.06269  0.19089  1.0000
  H   H10       1.0  0.36254  0.07785  0.04971  1.0000
  H   H11       1.0  0.37895  0.10579  0.27362  1.0000
  C   C9        1.0  0.26035  0.15607  0.30487  1.0000
  C   C10       1.0  0.25801  0.14927  0.26863  1.0000
  C   C11       1.0  0.28607  0.15814  0.24615  1.0000
  C   C12       1.0  0.31685  0.17373  0.25979  1.0000
  C   C13       1.0  0.31883  0.18126  0.29585  1.0000
  C   C14       1.0  0.29073  0.17248  0.31833  1.0000
  H   H12       1.0  0.23449  0.13676  0.25803  1.0000
  H   H13       1.0  0.28407  0.15240  0.21844  1.0000
  H   H14       1.0  0.34245  0.19351  0.30663  1.0000
  H   H15       1.0  0.29281  0.17793  0.34617  1.0000
  C   C15       1.0  0.28889  0.26601  0.50342  1.0000
  C   C16       1.0  0.31266  0.29322  0.50896  1.0000
  H   H16       1.0  0.32698  0.30359  0.48696  1.0000
  H   H17       1.0  0.28158  0.03724  0.17814  1.0000
  C   C17       1.0  0.07215  0.17857  0.45005  1.0000
  C   C18       1.0  0.06930  0.15701  0.42082  1.0000
  H   H18       1.0  0.24758  0.28276  0.21774  1.0000
  H   H19       1.0  0.09314  0.14886  0.40743  1.0000
  H   H20       1.0  0.05432  0.08333  0.49816  1.0000
  H   H21       1.0  0.24060  0.10143  0.09030  1.0000
  H   H22       1.0  0.24759  0.18957  0.17721  1.0000
  H   H23       1.0  0.23307  0.31619  0.14577  1.0000
  C   C19       1.0  0.20256  0.03814  0.48741  1.0000
  H   H24       1.0  0.23763  0.14692  0.05572  1.0000
  C   C20       1.0  0.32250  0.28038  0.19664  1.0000
  C   C21       1.0  0.28701  0.24498  0.05066  1.0000
  N   N2        1.0  0.32924  0.05532  0.23958  1.0000
  H   H25       1.0  0.20042  0.04958  0.46169  1.0000
  H   H26       1.0  0.26396  0.06199  0.09062  1.0000
  C   C22       1.0  0.04096  0.18890  0.46722  1.0000
  H   H27       1.0  0.28837  0.09993  0.08259  1.0000
  H   H28       1.0  0.08307  0.07881  0.44782  1.0000
  C   C23       1.0  0.29030  0.06069  0.23039  1.0000
  H   H29       1.0  0.22897  0.06832  0.03533  1.0000
  C   C24       1.0  0.38499  0.09473  0.24753  1.0000
  H   H30       1.0  0.04295  0.20551  0.48991  1.0000
  H   H31       1.0  0.12777  0.07023  0.43561  1.0000
  H   H32       1.0  0.31180  0.25440  0.13032  1.0000
  H   H33       1.0  0.39850  0.02941  0.21380  1.0000
  C   C25       1.0  0.22812  0.34552  0.51525  1.0000
  C   C26       1.0  0.30567  0.30868  0.12712  1.0000
  C   C27       1.0  0.32018  0.26013  0.04491  1.0000
  H   H34       1.0  0.26743  0.26795  0.12513  1.0000
  H   H35       1.0  0.20312  0.35142  0.46263  1.0000
  N   N3        1.0  0.28761  0.27051  0.17901  1.0000
  C   C28       1.0  0.22350  0.05370  0.51354  1.0000
  H   H36       1.0  0.52043  0.09627  0.07903  1.0000
  H   H37       1.0  0.15293  0.08936  0.48927  1.0000
  S   S16       1.0  0.24824  0.09082  0.50509  1.0000
  H   H38       1.0  0.27351  0.04019  0.24181  1.0000
  C   C29       1.0  0.29243  0.27368  0.13989  1.0000
  C   C30       1.0  0.06711  0.10315  0.51500  1.0000
  H   H39       1.0  0.32133  0.10482  0.29125  1.0000
  H   H40       1.0  0.33515  0.31063  0.13001  1.0000
  C   C31       1.0  0.12413  0.09541  0.48635  1.0000
  C   C32       1.0  0.10940  0.07043  0.45829  1.0000
  H   H41       1.0  0.29887  0.08022  0.17687  1.0000
  H   H42       1.0  0.29929  0.31150  0.09872  1.0000
  C   C33       1.0  0.35071  0.05292  0.04725  1.0000
  H   H43       1.0  0.25332  0.07252  0.18761  1.0000
  C   C34       1.0  0.24693  0.21731  0.17183  1.0000
  H   H44       1.0  0.06447  0.12748  0.50033  1.0000
  H   H45       1.0  0.22262  0.22717  0.18470  1.0000
  C   C35       1.0  0.25823  0.29312  0.19277  1.0000
  H   H46       1.0  0.35825  0.08151  0.19884  1.0000
  H   H47       1.0  0.21356  0.27610  0.15765  1.0000
  H   H48       1.0  0.30388  0.21769  0.17973  1.0000
  H   H49       1.0  0.32446  0.25077  0.24592  1.0000
  H   H50       1.0  0.32944  0.30731  0.19094  1.0000
  C   C36       1.0  0.32380  0.27758  0.23710  1.0000
  H   H51       1.0  0.34491  0.26476  0.18621  1.0000
  H   H52       1.0  0.24499  0.21994  0.14296  1.0000
  H   H53       1.0  0.40359  0.07318  0.25087  1.0000
  H   H54       1.0  0.23018  0.24928  0.04212  1.0000
  C   C37       1.0  0.28079  0.23367  0.18778  1.0000
  C   C38       1.0  0.22590  0.29964  0.16811  1.0000
  H   H55       1.0  0.34897  0.28934  0.24704  1.0000
  H   H56       1.0  0.39951  0.11488  0.23318  1.0000
  C   C39       1.0  0.35061  0.08537  0.22674  1.0000
  H   H57       1.0  0.28043  0.08488  0.24198  1.0000
  H   H58       1.0  0.12309  0.12127  0.47462  1.0000
  H   H59       1.0  0.26877  0.31883  0.19985  1.0000
  H   H60       1.0  0.24456  0.32722  0.46304  1.0000
  H   H61       1.0  0.03333  0.13017  0.38564  1.0000
  C   C40       1.0  0.34092  0.03513  0.07728  1.0000
  H   H62       1.0  0.28539  0.07640  0.30202  1.0000
  H   H63       1.0  0.20499  0.31339  0.18299  1.0000
  H   H64       1.0  0.34429  0.24821  0.05482  1.0000
  C   C41       1.0  0.25596  0.26076  0.03765  1.0000
  H   H65       1.0  0.29798  0.14039  0.04256  1.0000
  H   H66       1.0  0.51894  0.06501  0.04507  1.0000
  H   H67       1.0  0.25220  0.23175  0.52808  1.0000
  H   H68       1.0  0.09205  0.04182  0.52509  1.0000
  C   C42       1.0  0.34094  0.02296  0.22158  1.0000
  H   H69       1.0  0.17929  0.12346  0.52760  1.0000
  C   C43       1.0  0.33188  0.05061  0.27883  1.0000
  H   H70       1.0  0.32490  0.07758  0.32866  1.0000
  H   H71       1.0  0.35998  0.04804  0.28789  1.0000
  H   H72       1.0  0.24667  0.32666  0.52713  1.0000
  H   H73       1.0  0.27541  0.06246  0.02947  1.0000
  H   H74       1.0  0.31880  0.02634  0.28658  1.0000
  H   H75       1.0  0.20305  0.12483  0.03256  1.0000
  C   C44       1.0  0.22933  0.13765  0.02920  1.0000
  H   H76       1.0  0.25668  0.30301  0.82693  1.0000
  S   S17       1.0  0.30195  0.31324  0.61324  1.0000
  H   H77       1.0  0.30438  0.33855  0.82433  1.0000
  N   N4        1.0  0.42683  0.27714  0.58815  1.0000
  C   C45       1.0  0.29349  0.12750  0.01685  1.0000
  H   H78       1.0  0.26212  0.07208  0.93297  1.0000
  H   H79       1.0  0.48500  0.27475  0.64267  1.0000
  C   C46       1.0  0.42276  0.21301  0.57383  1.0000
  H   H80       1.0  0.13259  0.05279  0.59082  1.0000
  H   H81       1.0  0.20284  0.34279  0.53004  1.0000
  C   C47       1.0  0.42047  0.32304  0.53969  1.0000
  H   H82       1.0  0.37048  0.26438  0.58094  1.0000
  C   C48       1.0  0.44309  0.24230  0.59240  1.0000
  H   H83       1.0  0.23388  0.30375  0.00951  1.0000
  H   H84       1.0  0.28346  0.15986  0.96883  1.0000
  H   H85       1.0  0.21795  0.09049  0.97870  1.0000
  H   H86       1.0  0.37635  0.27406  0.93480  1.0000
  H   H87       1.0  0.05179  0.12626  0.56589  1.0000
  H   H88       1.0  0.10968  0.12687  0.56879  1.0000
  H   H89       1.0  0.35238  0.25552  0.63705  1.0000
  C   C49       1.0  0.29828  0.29482  0.57099  1.0000
  C   C50       1.0  0.27533  0.26699  0.56566  1.0000
  H   H90       1.0  0.35182  0.05287  0.99067  1.0000
  H   H91       1.0  0.38401  0.31980  0.82656  1.0000
  H   H92       1.0  0.26065  0.25680  0.58754  1.0000
  C   C51       1.0  0.30439  0.15311  0.98811  1.0000
  H   H93       1.0  0.40745  0.27017  0.53445  1.0000
  H   H94       1.0  0.47582  0.31718  0.65646  1.0000
  H   H95       1.0  0.29612  0.33546  0.91793  1.0000
  C   C52       1.0  0.25395  0.29826  0.85545  1.0000
  H   H96       1.0  0.22159  0.35115  0.58752  1.0000
  C   C53       1.0  0.37999  0.26592  0.63694  1.0000
  H   H97       1.0  0.38121  0.28732  0.65605  1.0000
  H   H98       1.0  0.32761  0.14310  0.97341  1.0000
  N   N5        1.0  0.31979  0.31207  0.87200  1.0000
  C   C54       1.0  0.03608  0.27216  0.91792  1.0000
  C   C55       1.0  0.10629  0.05751  0.57790  1.0000
  C   C56       1.0  0.31722  0.30770  0.54258  1.0000
  C   C57       1.0  0.34488  0.03860  0.01381  1.0000
  H   H99       1.0  0.39499  0.21065  0.58329  1.0000
  H   H100      1.0  0.23382  0.27771  0.85816  1.0000
  H   H101      1.0  0.36014  0.34650  0.79689  1.0000
  C   C58       1.0  0.30918  0.34296  0.89307  1.0000
  H   H102      1.0  0.20158  0.18537  0.02130  1.0000
  H   H103      1.0  0.37814  0.30483  0.59832  1.0000
  H   H104      1.0  0.29840  0.08304  0.96170  1.0000
  H   H105      1.0  0.34576  0.30774  0.94314  1.0000
  H   H106      1.0  0.47100  0.24227  0.58252  1.0000
  C   C59       1.0  0.38843  0.27834  0.59959  1.0000
  S   S18       1.0  0.29496  0.34584  0.99089  1.0000
  H   H107      1.0  0.43643  0.18860  0.57980  1.0000
  C   C60       1.0  0.11072  0.06041  0.53764  1.0000
  C   C61       1.0  0.26999  0.07519  0.96101  1.0000
  N   N6        1.0  0.25630  0.11279  0.01500  1.0000
  H   H108      1.0  0.39696  0.24487  0.64632  1.0000
  C   C62       1.0  0.24535  0.10160  0.97847  1.0000
  C   C63       1.0  0.28929  0.28687  0.87305  1.0000
  C   C64       1.0  0.35222  0.29432  0.88699  1.0000
  C   C65       1.0  0.29112  0.30691  0.01358  1.0000
  C   C66       1.0  0.25797  0.29163  0.01917  1.0000
  C   C67       1.0  0.32569  0.32114  0.83399  1.0000
  C   C68       1.0  0.35036  0.28508  0.92631  1.0000
  H   H109      1.0  0.44587  0.23491  0.62031  1.0000
  H   H110      1.0  0.29699  0.26234  0.86039  1.0000
  H   H111      1.0  0.45394  0.27890  0.53798  1.0000
  H   H112      1.0  0.26722  0.04972  0.97309  1.0000
  H   H113      1.0  0.35759  0.27045  0.87203  1.0000
  H   H114      1.0  0.32369  0.29798  0.81702  1.0000
  C   C69       1.0  0.16307  0.11929  0.55128  1.0000
  H   H115      1.0  0.28236  0.28057  0.90059  1.0000
  H   H116      1.0  0.24312  0.05012  0.56681  1.0000
  H   H117      1.0  0.21152  0.16473  0.98101  1.0000
  H   H118      1.0  0.44393  0.33931  0.54598  1.0000
  H   H119      1.0  0.04020  0.08130  0.56076  1.0000
  C   C70       1.0  0.46350  0.29410  0.64435  1.0000
  C   C71       1.0  0.36148  0.33805  0.82471  1.0000
  C   C72       1.0  0.22671  0.03828  0.54659  1.0000
  H   H120      1.0  0.33467  0.32928  0.54631  1.0000
  H   H121      1.0  0.44256  0.28543  0.66236  1.0000
  H   H122      1.0  0.09344  0.07938  0.59087  1.0000
  H   H123      1.0  0.31337  0.17729  0.00074  1.0000
  H   H124      1.0  0.32975  0.26560  0.93162  1.0000
  H   H125      1.0  0.43338  0.32736  0.61088  1.0000
  H   H126      1.0  0.24318  0.12309  0.96001  1.0000
  H   H127      1.0  0.24608  0.18668  0.00664  1.0000
  C   C73       1.0  0.22223  0.17010  0.00769  1.0000
  C   C74       1.0  0.44894  0.30349  0.60764  1.0000
  H   H128      1.0  0.37688  0.30951  0.88398  1.0000
  H   H129      1.0  0.06330  0.28285  0.92213  1.0000
  H   H130      1.0  0.39683  0.33363  0.55282  1.0000
  C   C75       1.0  0.12282  0.12333  0.54324  1.0000
  H   H131      1.0  0.24274  0.32105  0.86844  1.0000
  C   C76       1.0  0.32219  0.29096  0.02638  1.0000
  H   H132      1.0  0.47295  0.31057  0.59223  1.0000
  H   H133      1.0  0.31367  0.10678  0.01633  1.0000
  H   H134      1.0  0.17154  0.13905  0.57061  1.0000
  H   H135      1.0  0.03719  0.24490  0.92513  1.0000
  H   H136      1.0  0.42263  0.21574  0.54487  1.0000
  S   S19       1.0  0.20578  0.34850  0.93341  1.0000
  H   H137      1.0  0.08979  0.03476  0.58375  1.0000
  C   C77       1.0  0.04303  0.10607  0.54732  1.0000
  H   H138      1.0  0.02976  0.27482  0.88955  1.0000
  C   C78       1.0  0.27051  0.25272  0.53198  1.0000
  C   C79       1.0  0.42756  0.28552  0.54942  1.0000
  H   H139      1.0  0.16983  0.09419  0.56258  1.0000
  H   H140      1.0  0.11922  0.14831  0.52984  1.0000
  H   H141      1.0  0.34793  0.30267  0.02219  1.0000
  H   H142      1.0  0.13795  0.05056  0.53202  1.0000
  C   C80       1.0  0.21745  0.44281  0.52291  1.0000
  S   S20       1.0  0.36524  0.63094  0.41616  1.0000
  C   C81       1.0  0.51291  0.67597  0.39357  1.0000
  C   C82       1.0  0.19620  0.67650  0.41634  1.0000
  S   S21       1.0  0.29827  0.66462  0.45896  1.0000
  Fe  Fe9       1.0  0.35294  0.64393  0.47212  1.0000
  H   H143      1.0  0.17571  0.63002  0.39231  1.0000
  Fe  Fe10      1.0  0.31320  0.65631  0.40227  1.0000
  S   S22       1.0  0.27224  0.63427  0.36373  1.0000
  H   H144      1.0  0.26687  0.38067  0.46720  1.0000
  C   C83       1.0  0.47104  0.62261  0.46946  1.0000
  C   C84       1.0  0.45166  0.58654  0.40156  1.0000
  Fe  Fe11      1.0  0.17562  0.62413  0.11995  1.0000
  S   S23       1.0  0.13706  0.65878  0.09188  1.0000
  S   S24       1.0  0.17972  0.56726  0.10975  1.0000
  H   H145      1.0  0.19779  0.65615  0.36176  1.0000
  N   N7        1.0  0.47930  0.58551  0.46420  1.0000
  H   H146      1.0  0.50582  0.59590  0.41527  1.0000
  S   S25       1.0  0.22192  0.66073  0.11835  1.0000
  S   S26       1.0  0.15849  0.64017  0.17428  1.0000
  H   H147      1.0  0.42582  0.51429  0.48177  1.0000
  H   H148      1.0  0.20668  0.46091  0.50315  1.0000
  H   H149      1.0  0.29394  0.36260  0.50088  1.0000
  H   H150      1.0  0.05168  0.65235  0.10474  1.0000
  C   C85       1.0  0.26449  0.65191  0.32146  1.0000
  C   C86       1.0  0.51312  0.57557  0.48345  1.0000
  C   C87       1.0  0.20763  0.50036  0.03355  1.0000
  H   H151      1.0  0.09593  0.51665  0.05821  1.0000
  C   C88       1.0  0.23108  0.65103  0.26571  1.0000
  C   C89       1.0  0.23883  0.63694  0.29894  1.0000
  H   H152      1.0  0.13319  0.46694  0.06844  1.0000
  H   H153      1.0  0.46108  0.66215  0.50808  1.0000
  C   C90       1.0  0.48432  0.57925  0.42550  1.0000
  Fe  Fe12      1.0  0.12316  0.67754  0.14583  1.0000
  H   H154      1.0  0.11669  0.42435  0.06656  1.0000
  C   C91       1.0  0.29667  0.41689  0.49683  1.0000
  H   H155      1.0  0.45032  0.62079  0.52361  1.0000
  C   C92       1.0  0.19286  0.55035  0.06888  1.0000
  C   C93       1.0  0.44850  0.52679  0.46835  1.0000
  H   H156      1.0  0.45331  0.57076  0.37737  1.0000
  H   H157      1.0  0.49088  0.63842  0.45578  1.0000
  H   H158      1.0  0.44483  0.62926  0.45712  1.0000
  C   C94       1.0  0.21436  0.40615  0.50803  1.0000
  H   H159      1.0  0.49425  0.55308  0.42003  1.0000
  Fe  Fe13      1.0  0.20189  0.67937  0.17078  1.0000
  H   H160      1.0  0.44856  0.56598  0.50763  1.0000
  H   H161      1.0  0.06722  0.46217  0.05217  1.0000
  H   H162      1.0  0.22492  0.61427  0.30718  1.0000
  N   N8        1.0  0.24303  0.38118  0.51889  1.0000
  C   C95       1.0  0.19969  0.51531  0.06616  1.0000
  C   C96       1.0  0.46981  0.63513  0.50787  1.0000
  H   H163      1.0  0.22096  0.66277  0.42467  1.0000
  H   H164      1.0  0.45077  0.61382  0.39408  1.0000
  C   C97       1.0  0.31999  0.56192  0.51996  1.0000
  H   H165      1.0  0.47320  0.51360  0.47691  1.0000
  H   H166      1.0  0.42592  0.57973  0.41349  1.0000
  H   H167      1.0  0.21139  0.63919  0.24859  1.0000
  C   C98       1.0  0.02893  0.68647  0.14270  1.0000
  C   C99       1.0  0.28229  0.68119  0.31042  1.0000
  H   H168      1.0  0.21272  0.47337  0.03185  1.0000
  H   H169      1.0  0.21263  0.40793  0.47888  1.0000
  C   C100      1.0  0.27495  0.38367  0.49524  1.0000
  H   H170      1.0  0.18949  0.59756  0.04066  1.0000
  H   H171      1.0  0.19843  0.49961  0.08936  1.0000
  C   C101      1.0  0.24889  0.68035  0.25475  1.0000
  H   H172      1.0  0.44408  0.52300  0.43975  1.0000
  C   C102      1.0  0.19472  0.57053  0.03881  1.0000
  S   S27       1.0  0.37432  0.60970  0.51542  1.0000
  H   H173      1.0  0.32039  0.41406  0.47984  1.0000
  H   H174      1.0  0.42256  0.57559  0.47036  1.0000
  C   C103      1.0  0.44883  0.56482  0.47844  1.0000
  C   C104      1.0  0.12245  0.44709  0.05038  1.0000
  C   C105      1.0  0.02749  0.66430  0.11390  1.0000
  H   H175      1.0  0.52010  0.54865  0.47762  1.0000
  H   H176      1.0  0.28131  0.43867  0.48616  1.0000
  H   H177      1.0  0.30493  0.57755  0.50179  1.0000
  H   H178      1.0  0.27771  0.52517  0.52637  1.0000
  H   H179      1.0  0.04829  0.62344  0.20478  1.0000
  C   C106      1.0  0.17994  0.65695  0.38463  1.0000
  S   S28       1.0  0.44129  0.68810  0.38511  1.0000
  H   H180      1.0  0.15358  0.66723  0.37650  1.0000
  H   H181      1.0  0.30716  0.42264  0.52348  1.0000
  H   H182      1.0  0.51128  0.66447  0.36772  1.0000
  Fe  Fe14      1.0  0.38913  0.68327  0.41415  1.0000
  H   H183      1.0  0.18775  0.39680  0.51652  1.0000
  H   H184      1.0  0.11422  0.57252  0.03565  1.0000
  H   H185      1.0  0.17685  0.67275  0.43783  1.0000
  H   H186      1.0  0.50933  0.57666  0.51238  1.0000
  C   C107      1.0  0.08767  0.45827  0.03151  1.0000
  H   H187      1.0  0.49642  0.63430  0.52085  1.0000
  H   H188      1.0  0.13520  0.51554  0.03290  1.0000
  H   H189      1.0  0.14326  0.43929  0.03157  1.0000
  C   C108      1.0  0.10581  0.51801  0.03074  1.0000
  H   H190      1.0  0.02599  0.58353  0.20040  1.0000
  H   H191      1.0  0.02805  0.60546  0.24248  1.0000
  S   S29       1.0  0.30419  0.40647  0.64789  1.0000
  Fe  Fe15      1.0  0.40395  0.39971  0.62210  1.0000
  S   S30       1.0  0.38123  0.44722  0.64642  1.0000
  H   H192      1.0  0.04237  0.37005  0.00909  1.0000
  Fe  Fe16      1.0  0.35255  0.41116  0.68283  1.0000
  S   S31       1.0  0.35093  0.42068  0.74197  1.0000
  Fe  Fe17      1.0  0.33455  0.43865  0.60968  1.0000
  S   S32       1.0  0.30305  0.47579  0.57609  1.0000
  S   S33       1.0  0.35906  0.39375  0.58265  1.0000
  S   S34       1.0  0.25909  0.41549  0.92903  1.0000
  Fe  Fe18      1.0  0.16680  0.38358  0.96002  1.0000
  S   S35       1.0  0.17241  0.42476  0.92016  1.0000
  H   H193      1.0  0.14247  0.47650  0.98840  1.0000
  Fe  Fe19      1.0  0.21533  0.39219  0.89652  1.0000
  S   S36       1.0  0.21797  0.38412  0.83746  1.0000
  Fe  Fe20      1.0  0.21567  0.44484  0.95584  1.0000
  S   S37       1.0  0.21697  0.50215  0.96172  1.0000
  S   S38       1.0  0.20770  0.40560  0.99752  1.0000
  C   C109      1.0  0.20890  0.52040  0.00337  1.0000
  C   C110      1.0  0.35853  0.52139  0.56764  1.0000
  H   H194      1.0  0.37344  0.50607  0.58619  1.0000
  H   H195      1.0  0.47350  0.40568  0.67280  1.0000
  C   C111      1.0  0.20272  0.55556  0.00615  1.0000
  C   C112      1.0  0.11476  0.48071  0.97854  1.0000
  C   C113      1.0  0.32376  0.51203  0.55799  1.0000
  H   H196      1.0  0.09659  0.38881  0.91241  1.0000
  H   H197      1.0  0.05247  0.52187  0.98062  1.0000
  Fe  Fe21      1.0  0.33251  0.36218  0.62335  1.0000
  H   H198      1.0  0.13967  0.52600  0.95576  1.0000
  H   H199      1.0  0.03822  0.39992  0.88294  1.0000
  H   H200      1.0  0.06979  0.56170  0.02275  1.0000
  C   C114      1.0  0.31390  0.40974  0.76808  1.0000
  C   C115      1.0  0.25541  0.39384  0.81143  1.0000
  C   C116      1.0  0.28629  0.40846  0.82595  1.0000
  C   C117      1.0  0.31540  0.41634  0.80438  1.0000
  H   H201      1.0  0.28752  0.41415  0.85368  1.0000
  H   H202      1.0  0.33915  0.42781  0.81576  1.0000
  C   C118      1.0  0.49807  0.38962  0.62472  1.0000
  H   H203      1.0  0.33836  0.39068  0.88372  1.0000
  C   C119      1.0  0.49806  0.39793  0.66041  1.0000
  S   S39       1.0  0.45898  0.39268  0.59862  1.0000
  H   H204      1.0  0.28161  0.38963  0.72573  1.0000
  C   C120      1.0  0.03911  0.39370  0.91058  1.0000
  C   C121      1.0  0.25401  0.38702  0.77522  1.0000
  C   C122      1.0  0.07343  0.37854  0.96270  1.0000
  H   H205      1.0  0.36586  0.35881  0.90421  1.0000
  H   H206      1.0  0.10581  0.55959  0.99145  1.0000
  Fe  Fe22      1.0  0.24716  0.37382  0.96778  1.0000
  C   C123      1.0  0.28310  0.39490  0.75361  1.0000
  H   H207      1.0  0.26567  0.41139  0.56208  1.0000
  H   H208      1.0  0.20377  0.57127  0.98297  1.0000
  C   C124      1.0  0.05312  0.49832  0.99644  1.0000
  H   H209      1.0  0.20059  0.39173  0.57789  1.0000
  H   H210      1.0  0.40028  0.55873  0.56227  1.0000
  C   C125      1.0  0.03352  0.47087  0.97450  1.0000
  C   C126      1.0  0.37369  0.55123  0.55401  1.0000
  N   N9        1.0  0.09043  0.48940  0.00856  1.0000
  C   C127      1.0  0.25498  0.38565  0.55663  1.0000
  N   N10       1.0  0.24930  0.50571  0.83682  1.0000
  C   C128      1.0  0.25159  0.49388  0.79903  1.0000
  C   C129      1.0  0.22336  0.48242  0.85492  1.0000
  C   C130      1.0  0.28594  0.50188  0.85325  1.0000
  C   C131      1.0  0.23757  0.54250  0.83722  1.0000
  C   C132      1.0  0.28112  0.51030  0.77684  1.0000
  C   C133      1.0  0.18593  0.48004  0.83770  1.0000
  C   C134      1.0  0.28949  0.50891  0.89291  1.0000
  C   C135      1.0  0.21940  0.55569  0.87099  1.0000
  H   H211      1.0  0.25565  0.46587  0.79755  1.0000
  H   H212      1.0  0.22606  0.49861  0.78462  1.0000
  H   H213      1.0  0.21933  0.48949  0.88274  1.0000
  H   H214      1.0  0.23425  0.45611  0.85613  1.0000
  H   H215      1.0  0.29623  0.47572  0.84867  1.0000
  H   H216      1.0  0.30541  0.51932  0.84080  1.0000
  H   H217      1.0  0.26055  0.55961  0.83176  1.0000
  H   H218      1.0  0.21786  0.54707  0.81561  1.0000
  H   H219      1.0  0.28079  0.53846  0.77853  1.0000
  H   H220      1.0  0.30792  0.50042  0.78427  1.0000
  H   H221      1.0  0.27684  0.50313  0.74882  1.0000
  H   H222      1.0  0.16733  0.46751  0.85605  1.0000
  H   H223      1.0  0.17476  0.50538  0.83131  1.0000
  H   H224      1.0  0.18647  0.46390  0.81369  1.0000
  H   H225      1.0  0.31721  0.50289  0.90149  1.0000
  H   H226      1.0  0.27188  0.49257  0.90873  1.0000
  H   H227      1.0  0.28536  0.53617  0.89921  1.0000
  H   H228      1.0  0.22668  0.58285  0.87510  1.0000
  H   H229      1.0  0.22686  0.54247  0.89548  1.0000
  H   H230      1.0  0.18989  0.55541  0.86779  1.0000
  H   H231      1.0  0.28777  0.35728  0.87916  1.0000
  H   H232      1.0  0.10777  0.45571  0.96630  1.0000
  H   H233      1.0  0.52209  0.49384  0.69693  1.0000
  S   S40       1.0  0.37914  0.36429  0.66103  1.0000
  C   C136      1.0  0.22613  0.37889  0.58429  1.0000
  H   H234      1.0  0.27779  0.36842  0.56270  1.0000
  H   H235      1.0  0.03614  0.50420  0.01955  1.0000
  H   H236      1.0  0.33348  0.37978  0.92909  1.0000
  H   H237      1.0  0.20039  0.44598  0.54635  1.0000
  H   H238      1.0  0.09344  0.52056  0.94239  1.0000
  C   C137      1.0  0.33859  0.36921  0.90250  1.0000
  C   C138      1.0  0.09820  0.55480  0.01888  1.0000
  C   C139      1.0  0.07218  0.38743  0.92722  1.0000
  H   H239      1.0  0.12609  0.49387  0.92451  1.0000
  H   H240      1.0  0.23022  0.37572  0.76371  1.0000
  C   C140      1.0  0.11846  0.50718  0.94910  1.0000
  S   S41       1.0  0.11408  0.36913  0.98431  1.0000
  C   C141      1.0  0.04155  0.37665  0.98155  1.0000
  H   H241      1.0  0.23551  0.38869  0.61019  1.0000
  H   H242      1.0  0.51596  0.48101  0.65243  1.0000
  H   H243      1.0  0.04923  0.46217  0.95169  1.0000
  H   H244      1.0  0.07865  0.43574  0.01596  1.0000
  C   C142      1.0  0.30464  0.53225  0.53393  1.0000
  H   H245      1.0  0.36734  0.36098  0.84058  1.0000
  C   C143      1.0  0.35444  0.57171  0.53034  1.0000
  H   H246      1.0  0.02601  0.44889  0.99092  1.0000
  H   H247      1.0  0.24475  0.45156  0.52933  1.0000
  S   S42       1.0  0.30080  0.76651  0.46503  1.0000
  H   H248      1.0  0.16326  0.73236  0.46897  1.0000
  S   S43       1.0  0.16529  0.71811  0.14620  1.0000
  H   H249      1.0  0.15393  0.78148  0.38007  1.0000
  H   H250      1.0  0.31945  0.98808  0.09682  1.0000
  C   C144      1.0  0.24675  0.75168  0.37460  1.0000
  H   H251      1.0  0.31060  0.78701  0.17404  1.0000
  C   C145      1.0  0.19099  0.72565  0.47641  1.0000
  H   H252      1.0  0.20866  0.82107  0.09949  1.0000
  C   C146      1.0  0.16764  0.77008  0.40321  1.0000
  H   H253      1.0  0.43984  0.85116  0.05323  1.0000
  H   H254      1.0  0.24176  0.74958  0.10988  1.0000
  C   C147      1.0  0.48455  0.70520  0.44182  1.0000
  H   H255      1.0  0.30973  0.96249  0.03753  1.0000
  H   H256      1.0  0.14668  0.71999  0.41061  1.0000
  C   C148      1.0  0.27044  0.90043  0.52168  1.0000
  H   H257      1.0  0.51909  0.71761  0.48580  1.0000
  H   H258      1.0  0.28483  0.70552  0.12309  1.0000
  C   C149      1.0  0.26263  0.74333  0.04401  1.0000
  N   N11       1.0  0.25971  0.78889  0.14628  1.0000
  C   C150      1.0  0.25608  0.75207  0.13532  1.0000
  C   C151      1.0  0.22252  0.80214  0.15267  1.0000
  C   C152      1.0  0.28167  0.78981  0.17984  1.0000
  C   C153      1.0  0.27815  0.80752  0.11712  1.0000
  H   H259      1.0  0.17168  0.81504  0.12793  1.0000
  C   C154      1.0  0.19779  0.80424  0.12004  1.0000
  C   C155      1.0  0.27782  0.82132  0.20378  1.0000
  C   C156      1.0  0.28118  0.84651  0.12042  1.0000
  H   H260      1.0  0.19960  0.74353  0.49758  1.0000
  H   H261      1.0  0.41081  0.81413  0.05075  1.0000
  H   H262      1.0  0.22274  0.82804  0.16422  1.0000
  H   H263      1.0  0.20889  0.78606  0.17253  1.0000
  H   H264      1.0  0.24221  0.71522  0.45378  1.0000
  C   C157      1.0  0.32141  0.88152  0.46636  1.0000
  H   H265      1.0  0.30597  0.79826  0.11412  1.0000
  H   H266      1.0  0.26561  0.80164  0.09116  1.0000
  C   C158      1.0  0.25208  0.93474  0.47074  1.0000
  C   C159      1.0  0.23341  0.71598  0.38435  1.0000
  C   C160      1.0  0.23909  0.90479  0.44772  1.0000
  C   C161      1.0  0.29124  0.73175  0.13209  1.0000
  H   H267      1.0  0.19195  0.77891  0.10860  1.0000
  H   H268      1.0  0.19159  0.69982  0.48808  1.0000
  H   H269      1.0  0.25152  0.82136  0.21695  1.0000
  H   H270      1.0  0.28172  0.84555  0.18983  1.0000
  H   H271      1.0  0.29841  0.82007  0.22498  1.0000
  H   H272      1.0  0.30601  0.85386  0.13476  1.0000
  H   H273      1.0  0.25791  0.85864  0.13284  1.0000
  H   H274      1.0  0.28207  0.85757  0.09363  1.0000
  H   H275      1.0  0.29680  0.86646  0.46258  1.0000
  H   H276      1.0  0.25712  0.70137  0.39371  1.0000
  C   C162      1.0  0.27452  0.77420  0.50248  1.0000
  Fe  Fe23      1.0  0.32597  0.71506  0.45313  1.0000
  H   H277      1.0  0.22482  0.75524  0.44353  1.0000
  H   H278      1.0  0.25685  0.76636  0.39754  1.0000
  H   H279      1.0  0.16659  0.72587  0.36891  1.0000
  N   N12       1.0  0.28200  0.92772  0.49658  1.0000
  H   H280      1.0  0.23925  0.73809  0.15413  1.0000
  H   H281      1.0  0.30942  0.74261  0.11239  1.0000
  H   H282      1.0  0.16989  0.99475  0.47365  1.0000
  C   C163      1.0  0.25507  0.80464  0.50442  1.0000
  S   S44       1.0  0.37971  0.69539  0.47078  1.0000
  H   H283      1.0  0.26973  0.74878  0.35664  1.0000
  H   H284      1.0  0.27483  0.76772  0.19687  1.0000
  H   H285      1.0  0.22945  0.88295  0.46325  1.0000
  H   H286      1.0  0.22520  0.70414  0.35900  1.0000
  C   C164      1.0  0.31618  0.91908  0.47788  1.0000
  S   S45       1.0  0.18922  0.73373  0.04864  1.0000
  H   H287      1.0  0.38388  0.98653  0.21566  1.0000
  H   H288      1.0  0.25571  0.82209  0.48266  1.0000
  H   H289      1.0  0.30524  0.72905  0.15775  1.0000
  C   C165      1.0  0.32689  0.00212  0.07370  1.0000
  C   C166      1.0  0.51745  0.70594  0.46005  1.0000
  H   H290      1.0  0.33939  0.86799  0.48503  1.0000
  S   S46       1.0  0.33799  0.70763  0.39581  1.0000
  C   C167      1.0  0.17041  0.73110  0.39751  1.0000
  H   H291      1.0  0.31917  0.93527  0.45419  1.0000
  C   C168      1.0  0.29297  0.76252  0.03509  1.0000
  C   C169      1.0  0.41812  0.83842  0.03809  1.0000
  H   H292      1.0  0.25971  0.89677  0.42879  1.0000
  H   H293      1.0  0.38743  0.00993  0.25571  1.0000
  C   C170      1.0  0.27443  0.69536  0.27733  1.0000
  H   H294      1.0  0.39444  0.85538  0.03956  1.0000
  C   C171      1.0  0.18894  0.99151  0.52718  1.0000
  H   H295      1.0  0.25974  0.95494  0.45194  1.0000
  H   H296      1.0  0.33544  0.88093  0.44083  1.0000
  H   H297      1.0  0.33958  0.92522  0.49514  1.0000
  H   H298      1.0  0.19327  0.78368  0.40638  1.0000
  H   H299      1.0  0.26492  0.87613  0.50819  1.0000
  C   C172      1.0  0.21711  0.72817  0.44548  1.0000
  H   H300      1.0  0.21583  0.91349  0.43177  1.0000
  H   H301      1.0  0.22611  0.76607  0.35984  1.0000
  H   H302      1.0  0.28846  0.71794  0.26907  1.0000
  H   H303      1.0  0.15039  0.77594  0.42597  1.0000
  S   S47       1.0  0.23998  0.69957  0.21350  1.0000
  H   H304      1.0  0.46105  0.71631  0.45346  1.0000
  H   H305      1.0  0.22831  0.94458  0.48480  1.0000
  C   C173      1.0  0.18544  0.00707  0.49420  1.0000
  H   H306      1.0  0.44884  0.76898  0.03242  1.0000
  N   N13       1.0  0.20388  0.71387  0.41085  1.0000
  Fe  Fe24      1.0  0.18225  0.69689  0.09418  1.0000
  H   H307      1.0  0.26563  0.71911  0.05708  1.0000
  H   H308      1.0  0.32359  0.00129  0.22940  1.0000
  H   H309      1.0  0.30222  0.69289  0.32729  1.0000
  S   S48       1.0  0.06889  0.69305  0.16689  1.0000
  C   C174      1.0  0.48217  0.69010  0.40853  1.0000
  C   C175      1.0  0.32153  0.98752  0.04017  1.0000
  C   C176      1.0  0.37999  0.01211  0.22760  1.0000
  C   C177      1.0  0.22841  0.75560  0.03613  1.0000
  H   H310      1.0  0.27187  0.00171  0.48284  1.0000
  H   H311      1.0  0.48488  0.81480  0.04135  1.0000
  C   C178      1.0  0.29580  0.99246  0.49730  1.0000
  H   H312      1.0  0.31928  0.75315  0.04184  1.0000
  H   H313      1.0  0.31836  0.98920  0.47906  1.0000
  H   H314      1.0  0.30321  0.01312  0.51608  1.0000
  C   C179      1.0  0.28784  0.95974  0.51808  1.0000
  H   H315      1.0  0.28702  0.72718  0.52860  1.0000
  Fe  Fe25      1.0  0.17322  0.92268  0.58501  1.0000
  S   S49       1.0  0.13868  0.87578  0.58702  1.0000
  H   H316      1.0  0.21205  0.99560  0.57903  1.0000
  Fe  Fe26      1.0  0.20281  0.91170  0.65975  1.0000
  S   S50       1.0  0.17076  0.86423  0.66671  1.0000
  S   S51       1.0  0.23830  0.93520  0.70245  1.0000
  Fe  Fe27      1.0  0.18716  0.85129  0.61144  1.0000
  S   S52       1.0  0.20684  0.79796  0.59937  1.0000
  Fe  Fe28      1.0  0.12533  0.89314  0.64158  1.0000
  S   S53       1.0  0.07166  0.89882  0.66841  1.0000
  S   S54       1.0  0.22258  0.89699  0.60616  1.0000
  S   S55       1.0  0.15656  0.94183  0.63785  1.0000
  Fe  Fe29      1.0  0.37698  0.89107  0.91482  1.0000
  S   S56       1.0  0.33593  0.92805  0.89514  1.0000
  S   S57       1.0  0.42936  0.88562  0.88610  1.0000
  Fe  Fe30      1.0  0.32587  0.86061  0.96850  1.0000
  S   S58       1.0  0.28072  0.89553  0.95297  1.0000
  C   C180      1.0  0.02972  0.86501  0.61891  1.0000
  Fe  Fe31      1.0  0.29708  0.88484  0.89706  1.0000
  S   S59       1.0  0.25924  0.86788  0.85294  1.0000
  Fe  Fe32      1.0  0.32340  0.93612  0.95225  1.0000
  S   S60       1.0  0.31766  0.99159  0.96771  1.0000
  S   S61       1.0  0.33906  0.84695  0.91299  1.0000
  S   S62       1.0  0.36749  0.90215  0.97178  1.0000
  H   H317      1.0  0.41340  0.82093  0.92950  1.0000
  C   C181      1.0  0.32988  0.00606  0.01010  1.0000
  C   C182      1.0  0.16048  0.91889  0.80397  1.0000
  H   H318      1.0  0.39978  0.83295  0.77259  1.0000
  C   C183      1.0  0.46977  0.89101  0.90988  1.0000
  C   C184      1.0  0.46992  0.90232  0.94473  1.0000
  S   S63       1.0  0.16936  0.95129  0.53349  1.0000
  H   H319      1.0  0.44532  0.91048  0.95663  1.0000
  H   H320      1.0  0.25210  0.82924  0.99484  1.0000
  C   C185      1.0  0.24608  0.91543  0.74351  1.0000
  C   C186      1.0  0.23690  0.88143  0.74931  1.0000
  C   C187      1.0  0.24173  0.86706  0.78283  1.0000
  C   C188      1.0  0.25596  0.88643  0.81079  1.0000
  C   C189      1.0  0.26596  0.92019  0.80480  1.0000
  C   C190      1.0  0.26111  0.93456  0.77126  1.0000
  H   H321      1.0  0.22576  0.86627  0.72807  1.0000
  H   H322      1.0  0.23409  0.84088  0.78721  1.0000
  H   H323      1.0  0.27659  0.93544  0.82622  1.0000
  H   H324      1.0  0.26833  0.96087  0.76699  1.0000
  C   C191      1.0  0.23276  0.78933  0.56186  1.0000
  H   H325      1.0  0.31869  0.84265  0.75393  1.0000
  H   H326      1.0  0.12264  0.91439  0.72136  1.0000
  H   H327      1.0  0.43714  0.85863  0.98946  1.0000
  H   H328      1.0  0.15571  0.96715  0.71245  1.0000
  C   C192      1.0  0.10985  0.85234  0.74685  1.0000
  C   C193      1.0  0.22494  0.78638  0.01782  1.0000
  C   C194      1.0  0.48919  0.81692  0.01259  1.0000
  H   H329      1.0  0.32462  0.88857  0.54235  1.0000
  H   H330      1.0  0.16295  0.86118  0.76776  1.0000
  H   H331      1.0  0.05436  0.85703  0.60686  1.0000
  H   H332      1.0  0.08148  0.85907  0.75103  1.0000
  H   H333      1.0  0.16519  0.97192  0.75778  1.0000
  C   C195      1.0  0.35235  0.83161  0.82064  1.0000
  H   H334      1.0  0.37716  0.82190  0.83334  1.0000
  H   H335      1.0  0.39100  0.77609  0.97593  1.0000
  H   H336      1.0  0.28875  0.86825  0.56459  1.0000
  H   H337      1.0  0.11203  0.82426  0.74924  1.0000
  H   H338      1.0  0.36525  0.88077  0.84034  1.0000
  C   C196      1.0  0.14259  0.92190  0.74170  1.0000
  C   C197      1.0  0.09535  0.91724  0.78682  1.0000
  C   C198      1.0  0.15798  0.90213  0.84038  1.0000
  C   C199      1.0  0.09018  0.95200  0.80533  1.0000
  H   H339      1.0  0.16012  0.94669  0.80850  1.0000
  H   H340      1.0  0.07752  0.91670  0.76314  1.0000
  H   H341      1.0  0.08439  0.89797  0.80518  1.0000
  H   H342      1.0  0.17465  0.91673  0.85955  1.0000
  H   H343      1.0  0.13027  0.90156  0.85020  1.0000
  H   H344      1.0  0.16915  0.87594  0.83990  1.0000
  H   H345      1.0  0.06343  0.96211  0.79798  1.0000
  H   H346      1.0  0.10965  0.97189  0.79846  1.0000
  H   H347      1.0  0.08965  0.94877  0.83427  1.0000
  N   N14       1.0  0.37737  0.88271  0.78463  1.0000
  C   C200      1.0  0.39216  0.91732  0.79433  1.0000
  C   C201      1.0  0.40866  0.85911  0.77939  1.0000
  C   C202      1.0  0.35483  0.88659  0.75179  1.0000
  C   C203      1.0  0.36425  0.94520  0.80212  1.0000
  C   C204      1.0  0.43540  0.86917  0.75074  1.0000
  H   H348      1.0  0.34694  0.81685  0.79642  1.0000
  H   H349      1.0  0.41022  0.91544  0.81775  1.0000
  H   H350      1.0  0.40870  0.92782  0.77293  1.0000
  C   C205      1.0  0.46542  0.80687  0.95368  1.0000
  H   H351      1.0  0.32734  0.88023  0.81255  1.0000
  H   H352      1.0  0.33164  0.90357  0.75672  1.0000
  H   H353      1.0  0.37030  0.89928  0.73083  1.0000
  H   H354      1.0  0.37800  0.96753  0.81415  1.0000
  H   H355      1.0  0.35094  0.95419  0.77769  1.0000
  H   H356      1.0  0.34373  0.93682  0.82079  1.0000
  H   H357      1.0  0.45507  0.84824  0.74765  1.0000
  H   H358      1.0  0.42233  0.87274  0.72477  1.0000
  H   H359      1.0  0.45111  0.89207  0.75824  1.0000
  C   C206      1.0  0.50216  0.88172  0.89433  1.0000
  H   H360      1.0  0.50156  0.91012  0.99181  1.0000
  S   S64       1.0  0.32783  0.81837  0.00912  1.0000
  H   H361      1.0  0.32398  0.86029  0.71151  1.0000
  H   H362      1.0  0.35925  0.83485  0.72918  1.0000
  H   H363      1.0  0.48507  0.78652  0.94767  1.0000
  C   C207      1.0  0.20915  0.00745  0.55357  1.0000
  H   H364      1.0  0.11914  0.97315  0.74094  1.0000
  H   H365      1.0  0.12882  0.85697  0.79944  1.0000
  N   N15       1.0  0.13298  0.90760  0.77704  1.0000
  C   C208      1.0  0.44462  0.77168  0.00356  1.0000
  H   H366      1.0  0.16846  0.91116  0.73282  1.0000
  H   H367      1.0  0.18772  0.91388  0.79416  1.0000
  C   C209      1.0  0.43479  0.80173  0.92690  1.0000
  C   C210      1.0  0.35497  0.87044  0.81487  1.0000
  H   H368      1.0  0.42413  0.85667  0.80450  1.0000
  C   C211      1.0  0.13522  0.86928  0.77405  1.0000
  C   C212      1.0  0.28936  0.79371  0.01749  1.0000
  H   H369      1.0  0.42391  0.77555  0.92778  1.0000
  C   C213      1.0  0.14563  0.96083  0.73892  1.0000
  C   C214      1.0  0.40520  0.76147  0.99643  1.0000
  C   C215      1.0  0.29704  0.89230  0.55173  1.0000
  H   H370      1.0  0.33001  0.82627  0.83872  1.0000
  H   H371      1.0  0.44563  0.80511  0.90010  1.0000
  H   H372      1.0  0.40407  0.73437  0.98806  1.0000
  H   H373      1.0  0.40280  0.82871  0.98478  1.0000
  C   C216      1.0  0.50184  0.90230  0.96455  1.0000
  H   H374      1.0  0.31064  0.95667  0.53679  1.0000
  C   C217      1.0  0.33865  0.85385  0.73613  1.0000
  H   H375      1.0  0.51884  0.76849  0.00664  1.0000
  H   H376      1.0  0.11717  0.85846  0.71957  1.0000
  H   H377      1.0  0.21951  0.83585  0.53536  1.0000
  H   H378      1.0  0.24446  0.90744  0.53371  1.0000
  C   C218      1.0  0.25141  0.75839  0.55945  1.0000
  H   H379      1.0  0.29681  0.91242  0.57229  1.0000
  C   C219      1.0  0.42809  0.83352  0.99922  1.0000
  H   H380      1.0  0.24995  0.74031  0.58072  1.0000
  H   H381      1.0  0.19860  0.79579  0.01113  1.0000
  C   C220      1.0  0.03079  0.88560  0.64896  1.0000
  H   H382      1.0  0.50236  0.87320  0.86729  1.0000
  N   N16       1.0  0.45597  0.80675  0.99209  1.0000
  H   H383      1.0  0.47883  0.83118  0.94695  1.0000
  H   H384      1.0  0.26419  0.96508  0.53467  1.0000
  C   C221      1.0  0.25524  0.80535  0.00849  1.0000
  H   H385      1.0  0.49592  0.84417  0.00791  1.0000
  H   H386      1.0  0.46180  0.75189  0.99135  1.0000
  C   C222      1.0  0.23448  0.81237  0.53408  1.0000
  C   C223      1.0  0.52329  0.79630  0.00490  1.0000
  C   C224      1.0  0.27236  0.75086  0.52993  1.0000
  H   H387      1.0  0.38956  0.76291  0.02100  1.0000
  Fe  Fe33      1.0  0.91026  0.15433  0.43764  1.0000
  S   S65       1.0  0.87358  0.10919  0.44038  1.0000
  S   S66       1.0  0.96207  0.14381  0.40885  1.0000
  Fe  Fe34      1.0  0.85574  0.20063  0.47420  1.0000
  S   S67       1.0  0.81517  0.15883  0.47883  1.0000
  S   S68       1.0  0.85047  0.25328  0.49863  1.0000
  Fe  Fe35      1.0  0.86184  0.12638  0.49519  1.0000
  C   C225      1.0  0.56959  0.06720  0.07568  1.0000
  Fe  Fe36      1.0  0.83045  0.14560  0.42316  1.0000
  S   S69       1.0  0.79129  0.12604  0.38146  1.0000
  S   S70       1.0  0.90179  0.16897  0.49382  1.0000
  S   S71       1.0  0.86771  0.18996  0.41726  1.0000
  Fe  Fe37      1.0  0.73859  0.16928  0.18166  1.0000
  S   S72       1.0  0.69302  0.20022  0.15976  1.0000
  S   S73       1.0  0.76731  0.19089  0.23012  1.0000
  Fe  Fe38      1.0  0.73273  0.11790  0.12109  1.0000
  S   S74       1.0  0.68786  0.14579  0.09439  1.0000
  S   S75       1.0  0.74993  0.06501  0.10449  1.0000
  Fe  Fe39      1.0  0.71947  0.19309  0.10751  1.0000
  S   S76       1.0  0.71924  0.23949  0.07214  1.0000
  Fe  Fe40      1.0  0.66531  0.15053  0.14833  1.0000
  S   S77       1.0  0.60977  0.13270  0.16328  1.0000
  S   S78       1.0  0.76670  0.16479  0.12980  1.0000
  S   S79       1.0  0.70873  0.12025  0.17478  1.0000
  C   C226      1.0  0.73193  0.04947  0.06458  1.0000
  H   H388      1.0  0.71728  0.21119  0.30092  1.0000
  H   H389      1.0  0.72179  0.25235  0.52316  1.0000
  H   H390      1.0  0.86892  0.16251  0.34517  1.0000
  H   H391      1.0  0.93448  0.17093  0.26783  1.0000
  C   C227      1.0  0.56985  0.14688  0.14300  1.0000
  C   C228      1.0  0.56996  0.16862  0.11407  1.0000
  H   H392      1.0  0.68143  0.23742  0.31749  1.0000
  H   H393      1.0  0.59504  0.17735  0.10355  1.0000
  H   H394      1.0  0.64567  0.12064  0.23964  1.0000
  H   H395      1.0  0.73487  0.30450  0.04234  1.0000
  H   H396      1.0  0.86329  0.10906  0.36099  1.0000
  C   C229      1.0  0.53742  0.17924  0.09878  1.0000
  H   H397      1.0  0.91085  0.21166  0.29918  1.0000
  H   H398      1.0  0.65039  0.03239  0.05362  1.0000
  H   H399      1.0  0.91418  0.16652  0.35544  1.0000
  C   C230      1.0  0.75844  0.25554  0.05283  1.0000
  C   C231      1.0  0.64177  0.05818  0.10255  1.0000
  H   H400      1.0  0.76619  0.33612  0.49913  1.0000
  C   C232      1.0  0.78571  0.14407  0.33925  1.0000
  C   C233      1.0  0.79583  0.17758  0.33230  1.0000
  C   C234      1.0  0.79036  0.19126  0.29857  1.0000
  C   C235      1.0  0.77478  0.17166  0.27148  1.0000
  C   C236      1.0  0.76499  0.13801  0.27828  1.0000
  C   C237      1.0  0.77016  0.12441  0.31213  1.0000
  H   H401      1.0  0.80734  0.19311  0.35306  1.0000
  H   H402      1.0  0.79778  0.21739  0.29356  1.0000
  H   H403      1.0  0.75321  0.12257  0.25759  1.0000
  H   H404      1.0  0.76221  0.09846  0.31733  1.0000
  H   H405      1.0  0.78921  0.20975  0.05915  1.0000
  H   H406      1.0  0.82086  0.05581  0.49697  1.0000
  C   C238      1.0  0.62748  0.03681  0.07136  1.0000
  C   C239      1.0  0.72128  0.07169  0.03793  1.0000
  C   C240      1.0  0.00417  0.15701  0.42562  1.0000
  C   C241      1.0  0.00712  0.17806  0.45520  1.0000
  C   C242      1.0  0.89258  0.20545  0.32077  1.0000
  H   H407      1.0  0.98331  0.18645  0.46849  1.0000
  C   C243      1.0  0.75841  0.28884  0.03953  1.0000
  N   N17       1.0  0.90299  0.14203  0.30503  1.0000
  H   H408      1.0  0.87152  0.16780  0.26514  1.0000
  C   C244      1.0  0.87293  0.14263  0.27841  1.0000
  H   H409      1.0  0.99387  0.16180  0.29498  1.0000
  C   C245      1.0  0.87473  0.11552  0.24912  1.0000
  H   H410      1.0  0.91640  0.08824  0.30332  1.0000
  C   C246      1.0  0.78898  0.23547  0.04916  1.0000
  H   H411      1.0  0.87353  0.08930  0.25961  1.0000
  H   H412      1.0  0.84668  0.13995  0.29136  1.0000
  H   H413      1.0  0.89880  0.11862  0.23280  1.0000
  C   C247      1.0  0.81151  0.26613  0.52066  1.0000
  H   H414      1.0  0.68128  0.10581  0.26680  1.0000
  H   H415      1.0  0.70665  0.35409  0.52620  1.0000
  H   H416      1.0  0.77586  0.23358  0.49122  1.0000
  N   N18       1.0  0.65195  0.19093  0.26487  1.0000
  C   C248      1.0  0.67712  0.16093  0.26694  1.0000
  C   C249      1.0  0.67470  0.22248  0.26180  1.0000
  C   C250      1.0  0.62885  0.18628  0.23240  1.0000
  C   C251      1.0  0.62965  0.19102  0.29750  1.0000
  C   C252      1.0  0.65981  0.12525  0.26501  1.0000
  C   C253      1.0  0.89504  0.16806  0.33297  1.0000
  C   C254      1.0  0.61138  0.21817  0.21618  1.0000
  C   C255      1.0  0.60461  0.22167  0.30295  1.0000
  H   H417      1.0  0.69679  0.16194  0.24525  1.0000
  H   H418      1.0  0.69309  0.16143  0.29173  1.0000
  H   H419      1.0  0.65862  0.24549  0.25623  1.0000
  H   H420      1.0  0.69280  0.22016  0.23887  1.0000
  H   H421      1.0  0.64489  0.17509  0.21090  1.0000
  H   H422      1.0  0.60701  0.16766  0.23715  1.0000
  H   H423      1.0  0.61204  0.16823  0.29790  1.0000
  H   H424      1.0  0.64649  0.18807  0.32162  1.0000
  H   H425      1.0  0.87813  0.06766  0.34961  1.0000
  H   H426      1.0  0.85113  0.11865  0.23143  1.0000
  H   H427      1.0  0.64158  0.12056  0.28713  1.0000
  C   C256      1.0  0.87223  0.09322  0.33868  1.0000
  C   C257      1.0  0.77814  0.25226  0.51209  1.0000
  C   C258      1.0  0.96971  0.15818  0.31116  1.0000
  H   H428      1.0  0.59555  0.23306  0.23504  1.0000
  H   H429      1.0  0.59282  0.20990  0.19476  1.0000
  H   H430      1.0  0.63155  0.23474  0.20368  1.0000
  H   H431      1.0  0.57803  0.21680  0.29065  1.0000
  H   H432      1.0  0.61537  0.24595  0.29313  1.0000
  H   H433      1.0  0.60095  0.22590  0.33155  1.0000
  H   H434      1.0  0.85005  0.08993  0.31945  1.0000
  H   H435      1.0  0.64692  0.08482  0.09541  1.0000
  H   H436      1.0  0.62324  0.05749  0.12508  1.0000
  C   C259      1.0  0.90642  0.10764  0.32217  1.0000
  H   H437      1.0  0.94596  0.12766  0.27039  1.0000
  H   H438      1.0  0.72409  0.09886  0.04167  1.0000
  C   C260      1.0  0.69791  0.23144  0.29428  1.0000
  H   H439      1.0  0.96570  0.18220  0.32603  1.0000
  H   H440      1.0  0.86494  0.21180  0.31227  1.0000
  C   C261      1.0  0.93761  0.14971  0.28683  1.0000
  H   H441      1.0  0.92674  0.10848  0.34374  1.0000
  H   H442      1.0  0.90051  0.22251  0.34289  1.0000
  H   H443      1.0  0.71392  0.25450  0.28842  1.0000
  H   H444      1.0  0.78402  0.33720  0.45631  1.0000
  H   H445      1.0  0.97569  0.13736  0.32983  1.0000
  H   H446      1.0  0.58212  0.08747  0.09203  1.0000
  H   H447      1.0  0.91270  0.04033  0.51584  1.0000
  H   H448      1.0  0.61166  0.11988  0.05790  1.0000
  H   H449      1.0  0.66753  0.04732  0.11192  1.0000
  N   N19       1.0  0.59579  0.05068  0.05102  1.0000
  C   C262      1.0  0.82372  0.04201  0.52135  1.0000
  H   H450      1.0  0.53683  0.11877  0.17860  1.0000
  H   H451      1.0  0.53763  0.19618  0.07648  1.0000
  H   H452      1.0  0.65305  0.10649  0.03826  1.0000
  C   C263      1.0  0.81900  0.24844  0.03181  1.0000
  H   H453      1.0  0.55989  0.04827  0.09507  1.0000
  C   C264      1.0  0.53711  0.13569  0.15630  1.0000
  H   H454      1.0  0.95644  0.02332  0.51839  1.0000
  C   C265      1.0  0.62381  0.10884  0.03416  1.0000
  H   H455      1.0  0.54414  0.10420  0.03973  1.0000
  C   C266      1.0  0.53660  0.08386  0.05829  1.0000
  H   H456      1.0  0.71198  0.35061  0.47877  1.0000
  C   C267      1.0  0.78548  0.34961  0.48256  1.0000
  H   H457      1.0  0.81296  0.34450  0.49251  1.0000
  H   H458      1.0  0.84232  0.23257  0.02866  1.0000
  C   C268      1.0  0.78356  0.30101  0.56600  1.0000
  S   S80       1.0  0.71081  0.30029  0.57868  1.0000
  H   H459      1.0  0.74652  0.21164  0.58760  1.0000
  H   H460      1.0  0.96926  0.28353  0.01158  1.0000
  C   C269      1.0  0.78866  0.30203  0.02274  1.0000
  H   H461      1.0  0.78211  0.31659  0.94321  1.0000
  C   C270      1.0  0.85453  0.19367  0.58418  1.0000
  C   C271      1.0  0.74634  0.30995  0.86024  1.0000
  Fe  Fe41      1.0  0.86084  0.35095  0.97700  1.0000
  S   S81       1.0  0.86491  0.09580  0.54545  1.0000
  C   C272      1.0  0.81406  0.29071  0.54751  1.0000
  H   H462      1.0  0.93382  0.20485  0.97251  1.0000
  H   H463      1.0  0.71218  0.18003  0.54442  1.0000
  H   H464      1.0  0.83984  0.30146  0.55437  1.0000
  H   H465      1.0  0.79885  0.13338  0.56237  1.0000
  C   C273      1.0  0.79872  0.13918  0.59103  1.0000
  H   H466      1.0  0.97095  0.25856  0.88689  1.0000
  H   H467      1.0  0.55432  0.02964  0.01676  1.0000
  H   H468      1.0  0.74917  0.27764  0.96481  1.0000
  C   C274      1.0  0.80640  0.28353  0.90590  1.0000
  H   H469      1.0  0.81229  0.28178  0.87751  1.0000
  C   C275      1.0  0.71079  0.31301  0.83952  1.0000
  H   H470      1.0  0.80715  0.22511  0.57842  1.0000
  H   H471      1.0  0.78594  0.31948  0.58703  1.0000
  H   H472      1.0  0.79405  0.33722  0.90432  1.0000
  N   N20       1.0  0.74378  0.31052  0.89983  1.0000
  C   C276      1.0  0.93219  0.23193  0.96445  1.0000
  C   C277      1.0  0.78136  0.31354  0.91427  1.0000
  C   C278      1.0  0.81894  0.28170  0.01850  1.0000
  C   C279      1.0  0.79349  0.18347  0.63635  1.0000
  S   S82       1.0  0.68979  0.33359  0.67396  1.0000
  H   H473      1.0  0.86843  0.21783  0.57781  1.0000
  H   H474      1.0  0.76935  0.23500  0.63653  1.0000
  H   H475      1.0  0.69211  0.29198  0.84534  1.0000
  H   H476      1.0  0.81770  0.23476  0.63772  1.0000
  H   H477      1.0  0.75919  0.28614  0.85083  1.0000
  H   H478      1.0  0.93033  0.02978  0.55783  1.0000
  H   H479      1.0  0.86077  0.18865  0.61209  1.0000
  H   H480      1.0  0.92859  0.27111  0.90215  1.0000
  H   H481      1.0  0.98651  0.32260  0.88013  1.0000
  H   H482      1.0  0.82644  0.13366  0.60020  1.0000
  H   H483      1.0  0.77155  0.17129  0.65125  1.0000
  H   H484      1.0  0.95032  0.30689  0.85394  1.0000
  H   H485      1.0  0.70038  0.07608  0.98515  1.0000
  H   H486      1.0  0.70112  0.28234  0.96310  1.0000
  H   H487      1.0  0.81827  0.17199  0.64746  1.0000
  H   H488      1.0  0.61887  0.12797  0.01329  1.0000
  C   C280      1.0  0.72457  0.27034  0.95049  1.0000
  H   H489      1.0  0.77729  0.11432  0.63809  1.0000
  C   C281      1.0  0.95871  0.30728  0.00013  1.0000
  H   H490      1.0  0.94066  0.33127  0.89199  1.0000
  C   C282      1.0  0.81421  0.19774  0.57643  1.0000
  H   H491      1.0  0.86594  0.17281  0.56802  1.0000
  H   H492      1.0  0.97853  0.32773  0.00533  1.0000
  H   H493      1.0  0.83234  0.28773  0.91969  1.0000
  C   C283      1.0  0.70806  0.05874  0.00588  1.0000
  C   C284      1.0  0.95724  0.27860  0.90245  1.0000
  N   N21       1.0  0.78952  0.17594  0.59762  1.0000
  H   H494      1.0  0.01163  0.31940  0.93328  1.0000
  H   H495      1.0  0.73682  0.25544  0.89735  1.0000
  C   C285      1.0  0.94951  0.30467  0.96046  1.0000
  S   S83       1.0  0.85671  0.29645  0.99571  1.0000
  C   C286      1.0  0.79330  0.22153  0.64670  1.0000
  H   H496      1.0  0.78329  0.08693  0.60111  1.0000
  H   H497      1.0  0.75651  0.18341  0.52874  1.0000
  C   C287      1.0  0.77463  0.11287  0.60909  1.0000
  H   H498      1.0  0.69714  0.27813  0.90198  1.0000
  H   H499      1.0  0.79304  0.22384  0.67578  1.0000
  C   C288      1.0  0.75154  0.18373  0.58664  1.0000
  C   C289      1.0  0.74014  0.17181  0.54946  1.0000
  H   H500      1.0  0.73219  0.17257  0.60531  1.0000
  H   H501      1.0  0.79576  0.25903  0.91557  1.0000
  C   C290      1.0  0.75012  0.28739  0.55716  1.0000
  H   H502      1.0  0.92047  0.29953  0.95713  1.0000
  H   H503      1.0  0.81102  0.19212  0.54800  1.0000
  H   H504      1.0  0.74061  0.14374  0.54658  1.0000
  N   N22       1.0  0.97160  0.28002  0.93961  1.0000
  C   C291      1.0  0.95918  0.31193  0.88142  1.0000
  C   C292      1.0  0.72552  0.27813  0.91088  1.0000
  H   H505      1.0  0.86201  0.04888  0.60241  1.0000
  H   H506      1.0  0.02049  0.29152  0.96825  1.0000
  C   C293      1.0  0.84349  0.05607  0.54918  1.0000
  H   H507      1.0  0.95242  0.33090  0.95000  1.0000
  H   H508      1.0  0.58591  0.07952  0.00314  1.0000
  C   C294      1.0  0.00974  0.29220  0.94086  1.0000
  H   H509      1.0  0.72273  0.24237  0.95427  1.0000
  H   H510      1.0  0.82876  0.34992  0.78717  1.0000
  H   H511      1.0  0.76364  0.33098  0.85106  1.0000
  H   H512      1.0  0.71658  0.31165  0.81097  1.0000
  C   C295      1.0  0.96981  0.24454  0.95452  1.0000
  Fe  Fe42      1.0  0.70913  0.34305  0.61912  1.0000
  H   H513      1.0  0.91294  0.23335  0.94221  1.0000
  C   C296      1.0  0.60775  0.07444  0.02251  1.0000
  H   H514      1.0  0.98053  0.22561  0.93552  1.0000
  H   H515      1.0  0.98738  0.24184  0.97810  1.0000
  H   H516      1.0  0.92130  0.24623  0.98713  1.0000
  H   H517      1.0  0.74620  0.11537  0.60124  1.0000
  C   C297      1.0  0.84696  0.03796  0.58070  1.0000
  H   H518      1.0  0.69311  0.33648  0.90636  1.0000
  C   C298      1.0  0.72218  0.34139  0.91016  1.0000
  H   H519      1.0  0.72521  0.33550  0.96825  1.0000
  H   H520      1.0  0.01579  0.11339  0.53823  1.0000
  H   H521      1.0  0.93405  0.31294  0.01499  1.0000
  H   H522      1.0  0.62867  0.06214  0.00626  1.0000
  C   C299      1.0  0.70511  0.02353  0.00036  1.0000
  C   C300      1.0  0.74758  0.26296  0.53019  1.0000
  H   H523      1.0  0.78835  0.32772  0.01279  1.0000
  H   H524      1.0  0.69762  0.33792  0.84392  1.0000
  C   C301      1.0  0.72741  0.35522  0.94786  1.0000
  S   S84       1.0  0.77384  0.35343  0.73450  1.0000
  Fe  Fe43      1.0  0.67794  0.59660  0.46084  1.0000
  S   S85       1.0  0.67317  0.64382  0.49407  1.0000
  S   S86       1.0  0.66535  0.54294  0.47927  1.0000
  Fe  Fe44      1.0  0.68682  0.63691  0.39266  1.0000
  S   S87       1.0  0.68945  0.63470  0.33289  1.0000
  C   C302      1.0  0.95567  0.57795  0.18991  1.0000
  Fe  Fe45      1.0  0.63717  0.66306  0.45089  1.0000
  C   C303      1.0  0.70174  0.58406  0.15503  1.0000
  S   S88       1.0  0.72619  0.61523  0.43152  1.0000
  S   S89       1.0  0.63887  0.61476  0.41966  1.0000
  Fe  Fe46      1.0  0.82111  0.66285  0.17948  1.0000
  S   S90       1.0  0.82702  0.65416  0.23827  1.0000
  Fe  Fe47      1.0  0.79864  0.62545  0.11187  1.0000
  S   S91       1.0  0.81934  0.66657  0.07698  1.0000
  S   S92       1.0  0.77281  0.57685  0.09179  1.0000
  Fe  Fe48      1.0  0.86719  0.66706  0.11360  1.0000
  S   S93       1.0  0.92179  0.65965  0.08952  1.0000
  H   H525      1.0  0.69083  0.54825  0.26625  1.0000
  S   S94       1.0  0.84746  0.62355  0.14578  1.0000
  S   S95       1.0  0.77037  0.66156  0.14789  1.0000
  H   H526      1.0  0.72201  0.60246  0.21948  1.0000
  H   H527      1.0  0.65054  0.47985  0.51265  1.0000
  H   H528      1.0  0.76127  0.51293  0.05585  1.0000
  H   H529      1.0  0.92852  0.63901  0.16993  1.0000
  C   C304      1.0  0.72831  0.64315  0.30827  1.0000
  C   C305      1.0  0.72444  0.65249  0.27287  1.0000
  C   C306      1.0  0.75450  0.65693  0.25151  1.0000
  C   C307      1.0  0.78880  0.65154  0.26519  1.0000
  C   C308      1.0  0.79279  0.64272  0.30075  1.0000
  C   C309      1.0  0.76270  0.63869  0.32228  1.0000
  H   H530      1.0  0.97414  0.58537  0.25807  1.0000
  H   H531      1.0  0.84995  0.57189  0.09481  1.0000
  C   C310      1.0  0.74570  0.51818  0.21661  1.0000
  C   C311      1.0  0.76717  0.44352  0.50642  1.0000
  C   C312      1.0  0.92300  0.66879  0.21741  1.0000
  C   C313      1.0  0.68752  0.56451  0.24266  1.0000
  H   H532      1.0  0.71129  0.41254  0.47295  1.0000
  C   C314      1.0  0.80271  0.54530  0.07727  1.0000
  C   C315      1.0  0.02478  0.60863  0.21372  1.0000
  S   S96       1.0  0.68148  0.68703  0.42062  1.0000
  H   H533      1.0  0.89486  0.60687  0.25757  1.0000
  H   H534      1.0  0.75102  0.66424  0.22439  1.0000
  C   C316      1.0  0.54678  0.59669  0.47509  1.0000
  H   H535      1.0  0.68823  0.57928  0.12934  1.0000
  C   C317      1.0  0.91756  0.58932  0.26245  1.0000
  H   H536      1.0  0.67187  0.58743  0.25010  1.0000
  H   H537      1.0  0.74184  0.57790  0.25234  1.0000
  H   H538      1.0  0.56913  0.66497  0.40042  1.0000
  C   C318      1.0  0.96273  0.67139  0.10976  1.0000
  Fe  Fe49      1.0  0.71780  0.66439  0.46152  1.0000
  N   N23       1.0  0.74071  0.55313  0.20134  1.0000
  C   C319      1.0  0.71841  0.40275  0.49946  1.0000
  C   C320      1.0  0.77595  0.56851  0.19089  1.0000
  C   C321      1.0  0.75547  0.46367  0.47357  1.0000
  H   H539      1.0  0.91844  0.66607  0.24595  1.0000
  H   H540      1.0  0.67102  0.55074  0.22297  1.0000
  H   H541      1.0  0.91923  0.58572  0.29133  1.0000
  H   H542      1.0  0.89953  0.62196  0.20162  1.0000
  H   H543      1.0  0.71947  0.50692  0.22361  1.0000
  C   C322      1.0  0.83951  0.54941  0.08203  1.0000
  C   C323      1.0  0.80626  0.56710  0.21873  1.0000
  H   H544      1.0  0.79066  0.50061  0.18366  1.0000
  H   H545      1.0  0.79908  0.58001  0.24356  1.0000
  C   C324      1.0  0.76399  0.49209  0.19230  1.0000
  H   H546      1.0  0.54364  0.62406  0.48144  1.0000
  H   H547      1.0  0.76604  0.63147  0.34948  1.0000
  H   H548      1.0  0.76662  0.39251  0.45214  1.0000
  N   N24       1.0  0.95565  0.61087  0.21095  1.0000
  H   H549      1.0  0.76092  0.51945  0.24188  1.0000
  H   H550      1.0  0.69436  0.53274  0.17314  1.0000
  H   H551      1.0  0.81500  0.54073  0.22423  1.0000
  H   H552      1.0  0.89162  0.52824  0.07308  1.0000
  H   H553      1.0  0.73210  0.53870  0.14682  1.0000
  C   C325      1.0  0.99451  0.65688  0.09747  1.0000
  C   C326      1.0  0.77923  0.38836  0.47839  1.0000
  H   H554      1.0  0.74718  0.48615  0.16886  1.0000
  H   H555      1.0  0.56951  0.58734  0.49139  1.0000
  H   H556      1.0  0.67292  0.36869  0.49703  1.0000
  C   C327      1.0  0.68423  0.52414  0.51709  1.0000
  C   C328      1.0  0.72421  0.57577  0.22874  1.0000
  H   H557      1.0  0.68149  0.59487  0.17293  1.0000
  H   H558      1.0  0.76789  0.48937  0.47467  1.0000
  C   C329      1.0  0.54568  0.67619  0.41206  1.0000
  H   H559      1.0  0.78630  0.55643  0.16654  1.0000
  H   H560      1.0  0.81922  0.63871  0.31166  1.0000
  H   H561      1.0  0.55500  0.59385  0.44737  1.0000
  H   H562      1.0  0.82987  0.58077  0.20853  1.0000
  H   H563      1.0  0.76786  0.46789  0.20679  1.0000
  H   H564      1.0  0.69797  0.65622  0.26188  1.0000
  C   C330      1.0  0.71717  0.55034  0.16898  1.0000
  H   H565      1.0  0.77250  0.59579  0.18410  1.0000
  H   H566      1.0  0.89813  0.56424  0.19470  1.0000
  H   H567      1.0  0.97272  0.58029  0.16619  1.0000
  H   H568      1.0  0.72618  0.46799  0.47298  1.0000
  H   H569      1.0  0.72291  0.60307  0.15040  1.0000
  H   H570      1.0  0.95887  0.62744  0.26517  1.0000
  H   H571      1.0  0.92298  0.53872  0.16470  1.0000
  C   C331      1.0  0.78972  0.51624  0.05968  1.0000
  C   C332      1.0  0.91957  0.56500  0.17505  1.0000
  H   H572      1.0  0.96783  0.55689  0.20540  1.0000
  H   H573      1.0  0.91085  0.58084  0.15246  1.0000
  H   H574      1.0  0.83214  0.68598  0.52746  1.0000
  C   C333      1.0  0.85034  0.49597  0.05134  1.0000
  H   H575      1.0  0.94622  0.68553  0.21278  1.0000
  C   C334      1.0  0.86316  0.52469  0.06944  1.0000
  H   H576      1.0  0.99357  0.63940  0.07545  1.0000
  S   S97       1.0  0.88159  0.46693  0.03448  1.0000
  H   H577      1.0  0.80636  0.39988  0.47681  1.0000
  H   H578      1.0  0.91192  0.56405  0.25071  1.0000
  H   H579      1.0  0.76404  0.45127  0.44889  1.0000
  C   C335      1.0  0.95328  0.60386  0.24971  1.0000
  C   C336      1.0  0.81352  0.49170  0.04644  1.0000
  H   H580      1.0  0.70333  0.41854  0.51847  1.0000
  C   C337      1.0  0.70233  0.36673  0.50062  1.0000
  H   H581      1.0  0.99240  0.63540  0.17609  1.0000
  H   H582      1.0  0.80345  0.46949  0.03263  1.0000
  C   C338      1.0  0.92601  0.63404  0.19856  1.0000
  H   H583      1.0  0.89935  0.68241  0.20662  1.0000
  C   C339      1.0  0.99059  0.62874  0.20434  1.0000
  H   H584      1.0  0.99274  0.65308  0.21919  1.0000
  N   N25       1.0  0.75798  0.40602  0.50660  1.0000
  H   H585      1.0  0.79650  0.44745  0.50921  1.0000
  C   C340      1.0  0.67174  0.49210  0.52756  1.0000
  H   H586      1.0  0.72160  0.56444  0.52838  1.0000
  H   H587      1.0  0.60304  0.52299  0.56722  1.0000
  C   C341      1.0  0.82277  0.57404  0.98674  1.0000
  S   S98       1.0  0.70045  0.41557  0.68806  1.0000
  H   H588      1.0  0.57064  0.43883  0.56034  1.0000
  Fe  Fe50      1.0  0.71797  0.41907  0.63198  1.0000
  S   S99       1.0  0.73656  0.46974  0.61056  1.0000
  C   C342      1.0  0.56217  0.37836  0.62862  1.0000
  H   H589      1.0  0.61196  0.56336  0.58651  1.0000
  S   S100      1.0  0.67265  0.38798  0.61001  1.0000
  Fe  Fe51      1.0  0.86911  0.42678  0.99340  1.0000
  C   C343      1.0  0.81122  0.37951  0.83163  1.0000
  H   H590      1.0  0.83429  0.55428  0.89898  1.0000
  Fe  Fe52      1.0  0.83285  0.40302  0.92534  1.0000
  S   S101      1.0  0.78608  0.41530  0.88913  1.0000
  Fe  Fe53      1.0  0.91352  0.39449  0.93587  1.0000
  H   H591      1.0  0.80109  0.62063  0.92334  1.0000
  S   S102      1.0  0.82127  0.39352  0.98251  1.0000
  S   S103      1.0  0.87738  0.43991  0.93683  1.0000
  H   H592      1.0  0.79829  0.59860  0.88173  1.0000
  H   H593      1.0  0.75544  0.45669  0.52947  1.0000
  C   C344      1.0  0.80551  0.39769  0.55537  1.0000
  C   C345      1.0  0.80775  0.36579  0.79753  1.0000
  H   H594      1.0  0.60678  0.46835  0.56364  1.0000
  C   C346      1.0  0.61347  0.53553  0.59129  1.0000
  C   C347      1.0  0.71469  0.49102  0.57578  1.0000
  H   H595      1.0  0.85233  0.58735  0.92420  1.0000
  C   C348      1.0  0.72702  0.52317  0.56548  1.0000
  S   S104      1.0  0.90790  0.38325  0.99294  1.0000
  H   H596      1.0  0.74881  0.53509  0.57984  1.0000
  H   H597      1.0  0.84910  0.50720  0.97862  1.0000
  H   H598      1.0  0.72687  0.39848  0.77446  1.0000
  C   C349      1.0  0.75364  0.40653  0.82457  1.0000
  C   C350      1.0  0.78400  0.39971  0.84542  1.0000
  H   H599      1.0  0.98434  0.38298  0.98002  1.0000
  C   C351      1.0  0.85447  0.52696  0.95854  1.0000
  H   H600      1.0  0.73243  0.42210  0.83503  1.0000
  C   C352      1.0  0.56942  0.46867  0.60857  1.0000
  H   H601      1.0  0.76791  0.57143  0.00683  1.0000
  Fe  Fe54      1.0  0.65728  0.38119  0.66638  1.0000
  N   N26       1.0  0.59064  0.49005  0.63469  1.0000
  C   C353      1.0  0.78708  0.50372  0.92282  1.0000
  C   C354      1.0  0.62786  0.47602  0.63949  1.0000
  H   H602      1.0  0.64335  0.48994  0.69383  1.0000
  C   C355      1.0  0.59104  0.52688  0.62367  1.0000
  H   H603      1.0  0.77429  0.60494  0.97505  1.0000
  C   C356      1.0  0.65196  0.49469  0.66653  1.0000
  Fe  Fe55      1.0  0.73424  0.36862  0.69145  1.0000
  C   C357      1.0  0.78692  0.59060  0.99668  1.0000
  H   H604      1.0  0.70666  0.37469  0.95315  1.0000
  C   C358      1.0  0.89077  0.54325  0.96858  1.0000
  H   H605      1.0  0.64269  0.47602  0.61456  1.0000
  H   H606      1.0  0.62662  0.44881  0.64752  1.0000
  S   S105      1.0  0.75572  0.37480  0.63682  1.0000
  H   H607      1.0  0.78747  0.51445  0.97838  1.0000
  C   C359      1.0  0.79774  0.59528  0.91067  1.0000
  H   H608      1.0  0.60077  0.54341  0.64559  1.0000
  C   C360      1.0  0.59007  0.45083  0.57889  1.0000
  H   H609      1.0  0.52807  0.52458  0.66322  1.0000
  H   H610      1.0  0.85894  0.51275  0.93364  1.0000
  H   H611      1.0  0.67953  0.48459  0.66453  1.0000
  H   H612      1.0  0.65386  0.52235  0.66152  1.0000
  C   C361      1.0  0.82813  0.57106  0.92178  1.0000
  C   C362      1.0  0.53012  0.39699  0.67999  1.0000
  H   H613      1.0  0.76512  0.54477  0.95255  1.0000
  H   H614      1.0  0.75353  0.36834  0.95065  1.0000
  C   C363      1.0  0.68671  0.47571  0.55695  1.0000
  H   H615      1.0  0.67707  0.45098  0.56465  1.0000
  H   H616      1.0  0.75978  0.36601  0.54613  1.0000
  H   H617      1.0  0.79177  0.60895  0.01856  1.0000
  C   C364      1.0  0.75041  0.39319  0.79024  1.0000
  C   C365      1.0  0.53242  0.49749  0.66998  1.0000
  S   S106      1.0  0.86964  0.35848  0.91927  1.0000
  H   H618      1.0  0.81027  0.38226  0.57931  1.0000
  S   S107      1.0  0.96613  0.39806  0.90730  1.0000
  H   H619      1.0  0.56352  0.53596  0.61770  1.0000
  C   C366      1.0  0.00721  0.39173  0.92943  1.0000
  H   H620      1.0  0.76110  0.49014  0.92407  1.0000
  H   H621      1.0  0.77077  0.58533  0.91593  1.0000
  H   H622      1.0  0.64216  0.52952  0.59515  1.0000
  H   H623      1.0  0.80799  0.48381  0.92439  1.0000
  H   H624      1.0  0.82484  0.38906  0.53545  1.0000
  H   H625      1.0  0.78794  0.51646  0.89696  1.0000
  N   N27       1.0  0.82308  0.55091  0.95491  1.0000
  C   C367      1.0  0.56233  0.38759  0.66412  1.0000
  H   H626      1.0  0.74930  0.40639  0.56265  1.0000
  C   C368      1.0  0.78978  0.52928  0.95363  1.0000
  H   H627      1.0  0.72848  0.36331  0.89278  1.0000
  H   H628      1.0  0.83114  0.55971  0.01049  1.0000
  H   H629      1.0  0.53027  0.37303  0.58133  1.0000
  H   H630      1.0  0.58679  0.37087  0.61622  1.0000
  H   H631      1.0  0.60698  0.43001  0.58945  1.0000
  H   H632      1.0  0.83477  0.37416  0.84729  1.0000
  H   H633      1.0  0.55545  0.44759  0.62207  1.0000
  S   S108      1.0  0.60225  0.38962  0.68914  1.0000
  H   H634      1.0  0.00814  0.48157  0.96396  1.0000
  H   H635      1.0  0.81108  0.42456  0.56279  1.0000
  C   C369      1.0  0.76639  0.39320  0.54303  1.0000
  C   C370      1.0  0.77742  0.37259  0.77662  1.0000
  H   H636      1.0  0.89918  0.56285  0.94961  1.0000
  H   H637      1.0  0.84270  0.59492  0.98416  1.0000
  H   H638      1.0  0.58562  0.50473  0.68957  1.0000
  C   C371      1.0  0.71173  0.53980  0.53632  1.0000
  H   H639      1.0  0.57465  0.46156  0.68050  1.0000
  C   C372      1.0  0.57243  0.48786  0.66978  1.0000
  C   C373      1.0  0.53013  0.37955  0.60895  1.0000
  H   H640      1.0  0.91150  0.52302  0.96862  1.0000
  C   C374      1.0  0.00861  0.38372  0.96510  1.0000
  H   H641      1.0  0.87731  0.67931  0.54117  1.0000
  H   H642      1.0  0.54762  0.48380  0.59609  1.0000
  H   H643      1.0  0.53006  0.40404  0.70750  1.0000
  H   H644      1.0  0.89079  0.55411  0.99555  1.0000
  H   H645      1.0  0.80716  0.75690  0.04729  1.0000
  H   H646      1.0  0.69111  0.87571  0.07859  1.0000
  C   C375      1.0  0.79058  0.93460  0.04295  1.0000
  S   S109      1.0  0.75674  0.74646  0.10421  1.0000
  H   H647      1.0  0.71529  0.89533  0.11383  1.0000
  H   H648      1.0  0.87175  0.89397  0.51020  1.0000
  Fe  Fe56      1.0  0.79523  0.70309  0.11569  1.0000
  C   C376      1.0  0.77971  0.92444  0.10612  1.0000
  C   C377      1.0  0.71845  0.88099  0.08891  1.0000
  H   H649      1.0  0.73082  0.85598  0.09442  1.0000
  H   H650      1.0  0.61927  0.78994  0.43149  1.0000
  C   C378      1.0  0.69243  0.77429  0.44809  1.0000
  H   H651      1.0  0.73635  0.88700  0.03618  1.0000
  C   C379      1.0  0.83879  0.87762  0.07329  1.0000
  C   C380      1.0  0.73902  0.90158  0.06119  1.0000
  H   H652      1.0  0.86555  0.93845  0.50333  1.0000
  H   H653      1.0  0.79159  0.76511  0.49384  1.0000
  C   C381      1.0  0.75505  0.77093  0.06547  1.0000
  H   H654      1.0  0.81167  0.95378  0.14350  1.0000
  H   H655      1.0  0.70253  0.79015  0.07667  1.0000
  C   C382      1.0  0.62692  0.76255  0.52535  1.0000
  H   H656      1.0  0.85153  0.89976  0.06086  1.0000
  H   H657      1.0  0.64577  0.74367  0.46102  1.0000
  H   H658      1.0  0.64824  0.83021  0.47384  1.0000
  C   C383      1.0  0.72871  0.01422  0.05920  1.0000
  H   H659      1.0  0.68910  0.80204  0.44503  1.0000
  H   H660      1.0  0.99823  0.71905  0.17657  1.0000
  H   H661      1.0  0.58822  0.82096  0.44659  1.0000
  H   H662      1.0  0.69933  0.81345  0.50567  1.0000
  C   C384      1.0  0.60466  0.79887  0.45497  1.0000
  H   H663      1.0  0.77516  0.95865  0.04522  1.0000
  H   H664      1.0  0.72380  0.92559  0.05714  1.0000
  H   H665      1.0  0.77878  0.90407  0.12634  1.0000
  C   C385      1.0  0.78367  0.77221  0.04230  1.0000
  H   H666      1.0  0.81864  0.94234  0.04780  1.0000
  C   C386      1.0  0.63053  0.81021  0.48468  1.0000
  H   H667      1.0  0.79219  0.99917  0.50350  1.0000
  C   C387      1.0  0.75930  0.72571  0.51647  1.0000
  H   H668      1.0  0.78839  0.85805  0.08795  1.0000
  H   H669      1.0  0.92994  0.92154  0.50014  1.0000
  H   H670      1.0  0.60559  0.74994  0.50955  1.0000
  C   C388      1.0  0.66714  0.75811  0.47520  1.0000
  C   C389      1.0  0.72477  0.79110  0.05884  1.0000
  H   H671      1.0  0.68725  0.76297  0.42174  1.0000
  H   H672      1.0  0.56507  0.00392  0.05365  1.0000
  H   H673      1.0  0.75601  0.94092  0.11096  1.0000
  H   H674      1.0  0.72076  0.76929  0.45547  1.0000
  H   H675      1.0  0.61412  0.82395  0.50438  1.0000
  H   H676      1.0  0.68313  0.73785  0.48823  1.0000
  H   H677      1.0  0.58602  0.77866  0.46342  1.0000
  C   C390      1.0  0.79803  0.87611  0.06779  1.0000
  H   H678      1.0  0.91340  0.98106  0.49602  1.0000
  H   H679      1.0  0.73651  0.99705  0.07997  1.0000
  C   C391      1.0  0.77713  0.75715  0.51681  1.0000
  C   C392      1.0  0.99726  0.70176  0.15438  1.0000
  S   S110      1.0  0.84483  0.70692  0.14998  1.0000
  H   H680      1.0  0.79255  0.86231  0.04278  1.0000
  H   H681      1.0  0.94001  0.70603  0.14723  1.0000
  C   C393      1.0  0.54803  0.69124  0.44534  1.0000
  C   C394      1.0  0.81206  0.94740  0.11505  1.0000
  H   H682      1.0  0.81037  0.97197  0.10081  1.0000
  H   H683      1.0  0.85096  0.85517  0.06020  1.0000
  H   H684      1.0  0.62116  0.01144  0.08271  1.0000
  H   H685      1.0  0.83796  0.93513  0.10981  1.0000
  N   N28       1.0  0.77776  0.90920  0.06960  1.0000
  S   S111      1.0  0.76327  0.69879  0.47957  1.0000
  H   H686      1.0  0.84590  0.87687  0.10167  1.0000
  N   N29       1.0  0.65174  0.78213  0.50197  1.0000
  H   H687      1.0  0.97795  0.95724  0.51348  1.0000
  S   S112      1.0  0.58845  0.69181  0.46963  1.0000
  H   H688      1.0  0.86423  0.71852  0.52026  1.0000
  C   C395      1.0  0.96425  0.69426  0.13799  1.0000
  C   C396      1.0  0.68217  0.79758  0.52274  1.0000
  C   C397      1.0  0.91295  0.98591  0.52489  1.0000
  C   C398      1.0  0.80755  0.00994  0.52509  1.0000
  C   C399      1.0  0.87721  0.91952  0.52167  1.0000
  C   C400      1.0  0.91793  0.92402  0.52667  1.0000
  H   H689      1.0  0.85532  0.77194  0.52822  1.0000
  C   C401      1.0  0.72320  0.81276  0.02959  1.0000
  C   C402      1.0  0.57698  0.02091  0.03356  1.0000
  Fe  Fe57      1.0  0.81724  0.89089  0.67773  1.0000
  S   S113      1.0  0.83775  0.83922  0.66197  1.0000
  S   S114      1.0  0.81535  0.90633  0.73533  1.0000
  Fe  Fe58      1.0  0.80763  0.91381  0.60205  1.0000
  S   S115      1.0  0.82612  0.86358  0.58084  1.0000
  S   S116      1.0  0.79135  0.95114  0.55968  1.0000
  Fe  Fe59      1.0  0.79284  0.83981  0.62221  1.0000
  S   S117      1.0  0.75791  0.79294  0.61519  1.0000
  Fe  Fe60      1.0  0.86966  0.86723  0.62171  1.0000
  S   S118      1.0  0.92366  0.85127  0.60068  1.0000
  S   S119      1.0  0.77017  0.88975  0.64057  1.0000
  S   S120      1.0  0.85329  0.91911  0.64044  1.0000
  Fe  Fe61      1.0  0.68198  0.95211  0.94854  1.0000
  S   S121      1.0  0.67118  0.91248  0.98919  1.0000
  S   S122      1.0  0.68826  0.00842  0.95986  1.0000
  Fe  Fe62      1.0  0.67478  0.90147  0.88734  1.0000
  S   S123      1.0  0.66145  0.85819  0.92350  1.0000
  S   S124      1.0  0.67648  0.89007  0.82874  1.0000
  Fe  Fe63      1.0  0.62699  0.89595  0.95201  1.0000
  S   S125      1.0  0.57257  0.88806  0.97624  1.0000
  Fe  Fe64      1.0  0.70645  0.87829  0.95706  1.0000
  S   S126      1.0  0.75341  0.84482  0.97279  1.0000
  S   S127      1.0  0.63610  0.93740  0.91303  1.0000
  S   S128      1.0  0.72142  0.91983  0.91943  1.0000
  C   C403      1.0  0.75222  0.81479  0.00704  1.0000
  C   C404      1.0  0.78230  0.79424  0.01327  1.0000
  N   N30       1.0  0.87309  0.73644  0.59381  1.0000
  H   H690      1.0  0.58381  0.97646  0.99975  1.0000
  H   H691      1.0  0.76029  0.91988  0.99509  1.0000
  H   H692      1.0  0.65559  0.71372  0.53184  1.0000
  C   C405      1.0  0.83115  0.73844  0.64733  1.0000
  H   H693      1.0  0.69636  0.83068  0.56654  1.0000
  H   H694      1.0  0.55898  0.87442  0.90200  1.0000
  C   C406      1.0  0.77562  0.90378  0.75997  1.0000
  C   C407      1.0  0.77559  0.91636  0.79458  1.0000
  C   C408      1.0  0.74514  0.91315  0.81567  1.0000
  C   C409      1.0  0.71441  0.89718  0.80235  1.0000
  C   C410      1.0  0.71423  0.88516  0.76752  1.0000
  C   C411      1.0  0.74469  0.88838  0.74642  1.0000
  H   H695      1.0  0.79931  0.92854  0.80517  1.0000
  H   H696      1.0  0.74553  0.92287  0.84227  1.0000
  H   H697      1.0  0.69057  0.87285  0.75695  1.0000
  H   H698      1.0  0.74434  0.87857  0.71984  1.0000
  C   C412      1.0  0.75851  0.76780  0.57673  1.0000
  C   C413      1.0  0.74063  0.73637  0.57637  1.0000
  H   H699      1.0  0.83733  0.77968  0.59011  1.0000
  H   H700      1.0  0.83092  0.73210  0.67570  1.0000
  H   H701      1.0  0.72672  0.72808  0.59954  1.0000
  H   H702      1.0  0.53438  0.80293  0.97889  1.0000
  C   C414      1.0  0.96447  0.86443  0.62016  1.0000
  C   C415      1.0  0.96549  0.88525  0.65003  1.0000
  C   C416      1.0  0.91071  0.72624  0.58474  1.0000
  H   H703      1.0  0.94086  0.89321  0.66212  1.0000
  H   H704      1.0  0.99609  0.83817  0.58163  1.0000
  H   H705      1.0  0.60934  0.01206  0.98601  1.0000
  C   C417      1.0  0.64415  0.73443  0.54803  1.0000
  H   H706      1.0  0.82355  0.76559  0.64534  1.0000
  H   H707      1.0  0.72717  0.69118  0.54630  1.0000
  C   C418      1.0  0.81135  0.99161  0.55647  1.0000
  C   C419      1.0  0.94092  0.74729  0.60230  1.0000
  C   C420      1.0  0.99667  0.85427  0.60476  1.0000
  H   H708      1.0  0.88122  0.79026  0.60309  1.0000
  N   N31       1.0  0.78484  0.81902  0.86524  1.0000
  C   C421      1.0  0.80889  0.84988  0.86379  1.0000
  C   C422      1.0  0.79040  0.79923  0.83168  1.0000
  C   C423      1.0  0.79703  0.79772  0.89595  1.0000
  C   C424      1.0  0.74674  0.83072  0.86983  1.0000
  C   C425      1.0  0.81064  0.87232  0.89715  1.0000
  C   C426      1.0  0.78204  0.81873  0.79748  1.0000
  C   C427      1.0  0.77544  0.76524  0.90320  1.0000
  C   C428      1.0  0.71677  0.80643  0.85671  1.0000
  H   H709      1.0  0.83681  0.84235  0.85757  1.0000
  H   H710      1.0  0.80031  0.86716  0.84228  1.0000
  H   H711      1.0  0.77456  0.77549  0.83070  1.0000
  H   H712      1.0  0.81863  0.79046  0.83003  1.0000
  H   H713      1.0  0.82553  0.79025  0.89293  1.0000
  H   H714      1.0  0.79583  0.81244  0.92086  1.0000
  H   H715      1.0  0.74152  0.83677  0.89786  1.0000
  H   H716      1.0  0.74231  0.85497  0.85563  1.0000
  H   H717      1.0  0.82718  0.86044  0.91811  1.0000
  H   H718      1.0  0.82348  0.89698  0.89073  1.0000
  H   H719      1.0  0.78385  0.87815  0.90739  1.0000
  H   H720      1.0  0.75613  0.83214  0.79845  1.0000
  H   H721      1.0  0.80337  0.83736  0.79140  1.0000
  H   H722      1.0  0.78072  0.80058  0.77505  1.0000
  H   H723      1.0  0.65785  0.80559  0.57474  1.0000
  H   H724      1.0  0.77479  0.74742  0.88060  1.0000
  H   H725      1.0  0.74801  0.77153  0.91181  1.0000
  H   H726      1.0  0.69365  0.80878  0.87450  1.0000
  H   H727      1.0  0.72367  0.77917  0.85604  1.0000
  H   H728      1.0  0.70635  0.81462  0.83065  1.0000
  C   C429      1.0  0.78830  0.92322  0.00420  1.0000
  C   C430      1.0  0.84637  0.71310  0.57562  1.0000
  H   H729      1.0  0.81034  0.72258  0.63430  1.0000
  H   H730      1.0  0.79986  0.94346  0.98753  1.0000
  H   H731      1.0  0.78826  0.75153  0.92546  1.0000
  C   C431      1.0  0.99091  0.93029  0.56120  1.0000
  C   C432      1.0  0.77632  0.77838  0.54663  1.0000
  C   C433      1.0  0.74068  0.71553  0.54621  1.0000
  C   C434      1.0  0.53427  0.88239  0.91395  1.0000
  H   H732      1.0  0.91531  0.69905  0.59168  1.0000
  H   H733      1.0  0.62309  0.72249  0.56414  1.0000
  H   H734      1.0  0.93862  0.77485  0.59664  1.0000
  H   H735      1.0  0.80495  0.79581  0.99602  1.0000
  C   C435      1.0  0.91763  0.95551  0.58200  1.0000
  H   H736      1.0  0.91530  0.72772  0.55606  1.0000
  H   H737      1.0  0.62354  0.98713  0.02349  1.0000
  C   C436      1.0  0.93184  0.98310  0.60755  1.0000
  H   H738      1.0  0.78970  0.80275  0.54640  1.0000
  H   H739      1.0  0.61242  0.77992  0.54339  1.0000
  C   C437      1.0  0.99856  0.89560  0.66446  1.0000
  H   H740      1.0  0.66460  0.74458  0.56652  1.0000
  H   H741      1.0  0.71251  0.97421  0.02302  1.0000
  H   H742      1.0  0.80379  0.89969  0.99929  1.0000
  H   H743      1.0  0.94250  0.74325  0.63105  1.0000
  H   H744      1.0  0.02001  0.93489  0.55848  1.0000
  C   C438      1.0  0.86899  0.73217  0.63294  1.0000
  H   H745      1.0  0.88809  0.95747  0.58296  1.0000
  H   H746      1.0  0.81997  0.72572  0.57297  1.0000
  C   C439      1.0  0.60018  0.99823  0.00956  1.0000
  H   H747      1.0  0.93492  0.97185  0.63413  1.0000
  H   H748      1.0  0.92319  0.93025  0.59410  1.0000
  H   H749      1.0  0.88670  0.75004  0.64778  1.0000
  H   H750      1.0  0.92712  0.90135  0.54167  1.0000
  H   H751      1.0  0.99917  0.91145  0.68777  1.0000
  H   H752      1.0  0.98105  0.98274  0.55139  1.0000
  C   C440      1.0  0.87346  0.78441  0.54742  1.0000
  H   H753      1.0  0.83369  0.99205  0.60878  1.0000
  H   H754      1.0  0.96693  0.73886  0.59158  1.0000
  H   H755      1.0  0.54424  0.80322  0.02460  1.0000
  C   C441      1.0  0.53405  0.89194  0.94938  1.0000
  H   H756      1.0  0.87715  0.70605  0.64104  1.0000
  H   H757      1.0  0.98533  0.93055  0.58972  1.0000
  C   C442      1.0  0.86571  0.77321  0.58521  1.0000
  H   H758      1.0  0.90170  0.78050  0.54019  1.0000
  H   H759      1.0  0.98555  0.90464  0.55012  1.0000
  H   H760      1.0  0.86296  0.92069  0.54690  1.0000
  C   C443      1.0  0.67164  0.82021  0.55412  1.0000
  C   C444      1.0  0.97005  0.95829  0.54159  1.0000
  N   N32       1.0  0.92996  0.95663  0.54447  1.0000
  C   C445      1.0  0.85601  0.69884  0.53907  1.0000
  H   H761      1.0  0.88426  0.98825  0.53165  1.0000
  H   H762      1.0  0.86857  0.81216  0.54523  1.0000
  H   H763      1.0  0.70021  0.77745  0.53272  1.0000
  H   H764      1.0  0.84123  0.69002  0.59171  1.0000
  H   H765      1.0  0.69987  0.82839  0.02497  1.0000
  C   C446      1.0  0.83105  0.00576  0.58434  1.0000
  H   H766      1.0  0.65505  0.84215  0.54583  1.0000
  H   H767      1.0  0.91266  0.00454  0.60944  1.0000
  H   H768      1.0  0.95845  0.99319  0.60122  1.0000
  C   C447      1.0  0.71515  0.00127  0.02718  1.0000
  C   C448      1.0  0.92955  0.02152  0.53008  1.0000
