data_image0
_chemical_formula_structural       HFeS2H2FeS3HFeS2FeS2FeSFeHS2FeS2FeS2FeSFeS3C6H4C6H4C6H4C6H4SC3H7C3HCH2CH4NC8H10NH6CH2CH5C2HNC8H20CH3C2H9C2HFeCNH11CH3CH2CHCH2NH2C2HCNH2C3H10CH2CH3NH3C2HC2HCH3C2SC2SHCHC2HC2HCH2FeH3S2FeSCFeS2FeSFeS3FeS2FeS2FeSFeS3FeSHCHFeSFeCSC6H4C6H4C6H4C6H4CHNHCH3C3HCH6CH2C2H2CH2CH2CH3C2HCH3SCSHCHCH2CH2SH2CHC2HSCH2C2H3CH4FeCH3C3NCH3CH7CNC8H21NC6H13SH5C2H3NCH5NCH5SH2CHCFeS2FeSHFeSFeSHFeS2FeS2FeSFeS3FeS2C6H5C3H4C2HCHC6H6C6H3SH4CH3NH2CH4CHCH3CH2CH3NC8H20NC7H2CH8CH8NC2HCHC3H10CHCH4C2H5C2HC2H2SHFeSCFeSHSFeS2FeS2FeSFeS3FeS2C6H4NHCH3C9H4CH2C7H6CNCH2CH2NC8H23CH3CHC4H3CH3CH12C2H3CH6C3H3C2NHCH2CH2CH2NC5HC2HNH2CH4FeSH6CH6CHFeHCNH8CH4C5H2SFeS2FeCFeHFeHS2FeS2FeS2FeSFeS3C2SC6H4C6H6CH2CHCHC6H6CH4NH2NCH8CHC3H4CH3CHCH7C2H3C2H2CHC2H7CH4CH4CH2CH4NH2CSH4C3HCSH2NHCH2C2HCH3NC2H2CH4CHCNCH9CH3CFeHSHC3SCH2CHC2HCSFeS2CSNFe2SHSFeS2FeS2FeSFeS3HSC7H4C2FeH2CHNH2C6H9C6H4CH3CHC2HCH4SH2SH6C2FeC2HC2H4C2H7C2HNHCH4C4H5CH5CH3C3H2CH6CH2CH2CH2CH3SFeS2FeS2FeSFeS3FeS2FeS2FeSFeS2FeS2FeSC2HS2HC3FeH2C3HC2H3CHC3HC6H4C6H4C6H5C6H4CNC8H20NC5HC2HFeH6C2HCH8CHNHNC2HC2H4CH3CSCH5CH3CHCHNC3H7CH4CHC2H2CH9C2H3CH4CH15CHNHFeH7FeCSFeCHS2CSFeS2FeS2FeSFeS3FeS2FeS2Fe2S3C2HCHCHC4H2C6H4C6H4C6H4C8H4C5H3NC7H18NCH2C4H6SH4SHC2FeH5NC2H2C2HCHNC8H20CH13NHSHCHCH6CHCH2CHCH2SH7C3H2CH3CH3CH6NSCHCH3CH4CSHSH2C2H2FeS2FeSFeSFeS3FeS2FeSHFeSFeS3H2SHSHC7H4C6H5CHC6H4C3H2C6H4C2HC2H3C2H3NHCHCH4CNHC2HC2HCH2CH2FeCHFeH3CH3CHSHC2H7SHCH2SH2CH3CH2CHCH2SH10CH3CHCH5NCH5SCH5CFeSFeS2FeSFeS3FeSHFeS2FeSFeS3H2SHSHSC6H4C3HCH2C6H4C6H9C6H9NSHCHCHCH2CH6CH4CHC2H3FeH2C2HC2H3CH3CFeCHNHCNC8H22CH3CH2CHSC2H2CHCH2CH2CHCH2CH2C2HNSCHCHC2H9CH5NH3CH2FeS2FeS2FeSFeS2FeHSH2SFeCSFeHC3SHSHSHFeS2FeS2FeSFeS2C5H4C7H5C6H6NC2H2C7H4C6H4CH2SNH2SH2CH2CH3CH5CHC2H2C2H4NC8H19C2HC3HCFeH6C4H2C2H3CSH2CH9CSH2SHNHC2HCH7C2H2CH2SCFeH8NC5SC2H5FeCH2C2HNH11CHC2H2CH4CH5SHCHCH2SC2H2CHNCHCHFeCHC2H6C3H2SH3CH3C2H2CHNH3Fe2S3Fe2HCSH2SCFeS2FeS2Fe2S3HSH2FeS2FeS2FeSFeS2FeS2C2H2SH3C5HSHC6H4C7H3C3H4C6H3FeC3HCH2C7H4SHCHCHCHC2HSHCH5CHCH2CH2CHC2HCH4C4HCHCH7NFeCFeH9CH3NH2C3H9CH2C3H5NHC2SCSH2CHSH5NC8H20CH6SCH3SH2CHC2H2NC8H20NC8H16C2H2CNC2H2SCSH3CH2CH4FeSHSH2C2H3SC3H5CH4FeS2FeCSHCSFeS2FeS2FeHFeS3CHFeS2H2CSCSHCFeS2FeS2FeSFeS3C6H4C2NCFe2C6H5C3H2C2HC6H4C6H3CHC6H5C2H2CH2C4H4NC2HC6H19CH3CH2C2H2CH5CH4C3H3CH2NC2HC2NH4NC8H20NC2HCHCNC2NH6CH2C2H9CH2C2HSH3CHSCH2C2HSH2SHCH3C2HCHCHCH7SHCH6CFeNH2CH6CH2CHSH3NH4CFeCH2CH2CHSCHCH6SH6CH5CHCH3C2HCH2C2HCH4CSH4CH2SHSHFeS2FeS2FeSFeHS2FeS2HCFeSHSHSHFeSHFeS2FeSFeS3CSH2SFeSFeC7H2C6HSCH2C6H4C4SNH2CH2CH3C6H4C6H6C2H6SNH2C2HC4HC3H8CH3CH3C3H4CH4FeH4C2H3C2HFeH4CHC2HCH6CH3CH4NC2SHCH3SCNC4HCHC2H8CH5C2H3CHCHCHCFeNHCHCHNC8H20NHCH3NCSH2CHCH7SCH5CH2C3HNH3C2HFeH3CHC3HSCH2C2H2CH4FeSH2CH4SCHFeS2HSFeSFeS3FeSHFeS2FeSFeS3FeS2FeS2C6H4C6H5C3H4C6H4CH2C7H5CH2CH2CHCH2CH2C2H11CH2C3HCH3CH2CH4CH4C2HNC2HCH14CH4CH4CHCH6NH3CHCHFeH2CNH5C2NHCHCHC2H2CHSCHCH2NCHC2H2FeS2FeSFeSFeS3FeSHFeS2FeSFeS3FeS2FeS2C6H6C6H4C6H4C2HCHSC6H4CH2NH2CHCH3C2H2CNH6C2H3CH3CH5C2H2NHC2HNC2H2C2HCH13CNC8H20CH10CH5CHCHCH3C2HCH5CH2CH2C2HC2SCFeSCH2SFeS2FeS2Fe3S3FeS2FeS2FeSFeS4C6H4C2HSC6H4C6H4C6H9CHC3HCHCH7C3HC2HC2HCHNH3NHS2H3C5HC6H5CNC2H4CNH8CH3CHC2NFeH12CH2C2H2CH5CH17CHCH2CH4CH2C3HNH2C2NC2HCH4C2HCHSH5CH2CH17C2H3CH3C3H2SC2HSHFeSHFeS2FeSFeS3FeS2FeS2FeSFeS3FeCSH2CSHSC6H5SC8H4C6H4C6H4CHFeH2FeCH2CH2CH6NC5HC2H20CH3SHCH3CHCHCHCH3CH3C2NC6HCH16NH3NC8H22SH4CHCHC2FeCH4CHCFeHC2HCSHCH2CH4NSHCFeSHFeS2FeCFeS3FeS2FeS2FeSFeS3H2SC6H4C2H3C6H6CH2C9H3C2H3CHNC7H16C2H3CH5C2NHCH8C2H4CHCHSH3NC2SCFeH3C3HCHCH3CH2CNH5SCH9CH2CH2CH3CH2FeSHFeS2FeSFeS3FeS2FeS2FeSFeS3HS2C6H4C3H2C6H4CHC2H5C6H3C3H3SCH3CH4CH4CH2CHCH3CH3CH4FeH2CH2CHCH3CH7C2SNH3NC8H8CH11NC8H8CHCHCH6NH2C2HCHCH4CHFeSHFeS2FeCFeS3HFeS2FeS2FeSFeS3HSHC6H4SC3H2C6H4CH2C6H6CHCH2CH3NH2C2HCH13SCHSH7NH2C4HCHCHFeC4H4CH2CH5NCH2CH3CH3NH2CHCH5CH3CH2C2H6CH2C2HC2HCH2CH2CHSCH2FeS2FeS2FeSFeHS2HFeS2FeS2FeSFeS3H2SC6H8C6H4C2H2C7H4C2H4CH6CHCHCH2C2HCH3SHCH3C3H4C2HCH2CH6CH2CH3C2H5C4NH2NC4H2C2H7C3H2FeH9N2CSH5CH2CHCH10CH2CH5CH2SNSFeSFeSH2SH2FeS2FeSFeSFeS3FeS2FeS2FeSFeS4CHCH2C6H4C6H4C6H4C6H4C3H4CHC3HFeH8C4H2C2H2CH5NC5H11CHCH3CH3CHC2H9CH2C2HCH2CH4SCHC2H5CH2NH3CH2CH4C2H3CH2NCH2CH4NH8C2H4SH2CHCH2SC3HC2HFeHCH2C2SHFeS2FeS2FeSFeS2FeS2FeS2FeSFeS3CSCH2FeS3CSHC2H2C6H4C6H4C6H4C6H4CH4SHC2H3C2HCHNHCHCH3CH3FeH4CH2CHCSCHCHFeHC2H2SH2C2H3C2H4CH2NH2CHFeHNC4HC3HCH17CHNC7H17NC6H16CH3NH3CH3C2H2CH5CH2CHCHCHCHC2HCH2
_chemical_formula_sum              "H3264 Fe272 S544 C1904 N136"
_cell_length_a       72.1626
_cell_length_b       72.0896
_cell_length_c       61.4863
_cell_angle_alpha    88.0551
_cell_angle_beta     88.0488
_cell_angle_gamma    87.353

_space_group_name_H-M_alt    "P 1"
_space_group_IT_number       1

loop_
  _space_group_symop_operation_xyz
  'x, y, z'

loop_
  _atom_site_type_symbol
  _atom_site_label
  _atom_site_symmetry_multiplicity
  _atom_site_fract_x
  _atom_site_fract_y
  _atom_site_fract_z
  _atom_site_occupancy
  H   H1        1.0  0.11987  0.21638  0.09733  1.0000
  Fe  Fe1       1.0  0.07877  0.09277  0.01592  1.0000
  S   S1        1.0  0.05141  0.09234  0.03454  1.0000
  S   S2        1.0  0.10209  0.07131  0.02214  1.0000
  H   H2        1.0  0.10051  0.19217  0.08760  1.0000
  H   H3        1.0  0.01473  0.12410  0.38456  1.0000
  Fe  Fe2       1.0  0.05622  0.12243  0.04060  1.0000
  S   S3        1.0  0.04864  0.13393  0.07412  1.0000
  S   S4        1.0  0.08428  0.12226  0.02385  1.0000
  S   S5        1.0  0.16279  0.02830  0.46898  1.0000
  H   H4        1.0  0.06543  0.25060  0.12956  1.0000
  Fe  Fe3       1.0  0.07030  0.18536  0.21614  1.0000
  S   S6        1.0  0.09039  0.20407  0.23057  1.0000
  S   S7        1.0  0.04510  0.17229  0.23356  1.0000
  Fe  Fe4       1.0  0.09539  0.18037  0.17501  1.0000
  S   S8        1.0  0.11741  0.19831  0.18751  1.0000
  S   S9        1.0  0.10205  0.16842  0.14147  1.0000
  Fe  Fe5       1.0  0.11287  0.18297  0.21991  1.0000
  S   S10       1.0  0.13446  0.17405  0.24575  1.0000
  Fe  Fe6       1.0  0.09348  0.21785  0.19701  1.0000
  H   H5        1.0  0.08047  0.19890  0.12104  1.0000
  S   S11       1.0  0.09265  0.16385  0.20658  1.0000
  S   S12       1.0  0.07153  0.20036  0.18332  1.0000
  Fe  Fe7       1.0  0.19577  0.07149  0.35061  1.0000
  S   S13       1.0  0.20456  0.09936  0.33708  1.0000
  S   S14       1.0  0.17417  0.07369  0.37868  1.0000
  Fe  Fe8       1.0  0.21881  0.05068  0.31559  1.0000
  S   S15       1.0  0.22913  0.07736  0.30032  1.0000
  S   S16       1.0  0.23040  0.02308  0.30186  1.0000
  Fe  Fe9       1.0  0.23362  0.08595  0.33466  1.0000
  S   S17       1.0  0.25775  0.10321  0.34585  1.0000
  Fe  Fe10      1.0  0.19940  0.08862  0.30397  1.0000
  S   S18       1.0  0.18352  0.10074  0.27421  1.0000
  S   S19       1.0  0.22490  0.05870  0.34995  1.0000
  S   S20       1.0  0.18906  0.06135  0.31756  1.0000
  C   C1        1.0  0.28130  0.09925  0.35417  1.0000
  C   C2        1.0  0.29179  0.11464  0.35868  1.0000
  C   C3        1.0  0.31040  0.11235  0.36533  1.0000
  C   C4        1.0  0.31886  0.09456  0.36780  1.0000
  C   C5        1.0  0.30830  0.07916  0.36358  1.0000
  C   C6        1.0  0.28974  0.08145  0.35676  1.0000
  H   H6        1.0  0.28554  0.12850  0.35672  1.0000
  H   H7        1.0  0.00256  0.09064  0.03209  1.0000
  H   H8        1.0  0.31459  0.06530  0.36536  1.0000
  H   H9        1.0  0.28202  0.06943  0.35335  1.0000
  C   C7        1.0  0.14734  0.15316  0.25371  1.0000
  C   C8        1.0  0.14833  0.13723  0.24123  1.0000
  C   C9        1.0  0.15926  0.12136  0.24791  1.0000
  C   C10       1.0  0.16918  0.12097  0.26733  1.0000
  C   C11       1.0  0.16779  0.13673  0.28010  1.0000
  C   C12       1.0  0.15707  0.15269  0.27326  1.0000
  H   H10       1.0  0.14101  0.13728  0.22616  1.0000
  H   H11       1.0  0.16015  0.10934  0.23783  1.0000
  H   H12       1.0  0.17535  0.13680  0.29499  1.0000
  H   H13       1.0  0.15651  0.16489  0.28309  1.0000
  C   C13       1.0  0.16523  0.04068  0.44359  1.0000
  C   C14       1.0  0.17956  0.03509  0.42877  1.0000
  C   C15       1.0  0.18227  0.04471  0.40861  1.0000
  C   C16       1.0  0.17070  0.06014  0.40310  1.0000
  C   C17       1.0  0.15629  0.06564  0.41784  1.0000
  C   C18       1.0  0.15356  0.05600  0.43797  1.0000
  H   H14       1.0  0.18862  0.02322  0.43294  1.0000
  H   H15       1.0  0.19338  0.04027  0.39745  1.0000
  H   H16       1.0  0.14726  0.07755  0.41376  1.0000
  H   H17       1.0  0.14250  0.06046  0.44918  1.0000
  C   C19       1.0  0.06361  0.14416  0.09223  1.0000
  C   C20       1.0  0.08254  0.14584  0.08734  1.0000
  C   C21       1.0  0.09410  0.15307  0.10272  1.0000
  C   C22       1.0  0.08686  0.15900  0.12300  1.0000
  C   C23       1.0  0.06788  0.15761  0.12775  1.0000
  C   C24       1.0  0.05636  0.15016  0.11247  1.0000
  H   H18       1.0  0.08830  0.14147  0.07178  1.0000
  H   H19       1.0  0.10876  0.15418  0.09883  1.0000
  H   H20       1.0  0.06209  0.16214  0.14326  1.0000
  H   H21       1.0  0.04173  0.14891  0.11642  1.0000
  S   S21       1.0  0.11010  0.03231  0.49446  1.0000
  C   C25       1.0  0.08697  0.20005  0.08660  1.0000
  C   C26       1.0  0.02664  0.18193  0.25018  1.0000
  C   C27       1.0  0.02468  0.20092  0.25410  1.0000
  H   H22       1.0  0.17910  0.02037  0.21461  1.0000
  H   H23       1.0  0.03466  0.21028  0.24693  1.0000
  H   H24       1.0  0.04607  0.14828  0.28519  1.0000
  H   H25       1.0  0.31821  0.12439  0.36840  1.0000
  H   H26       1.0  0.01496  0.15528  0.25698  1.0000
  H   H27       1.0  0.25536  0.09680  0.43585  1.0000
  H   H28       1.0  0.31257  0.13306  0.42870  1.0000
  C   C28       1.0  0.31266  0.08654  0.46060  1.0000
  C   C29       1.0  0.11206  0.03417  0.02440  1.0000
  C   C30       1.0  0.20207  0.00712  0.28009  1.0000
  H   H29       1.0  0.01949  0.15065  0.42960  1.0000
  C   C31       1.0  0.24233  0.10196  0.44404  1.0000
  H   H30       1.0  0.19080  0.07378  0.44549  1.0000
  H   H31       1.0  0.12342  0.03819  0.03399  1.0000
  C   C32       1.0  0.00970  0.20787  0.26728  1.0000
  H   H32       1.0  0.12481  0.22253  0.14606  1.0000
  H   H33       1.0  0.31817  0.09269  0.41603  1.0000
  H   H34       1.0  0.19271  0.01744  0.28741  1.0000
  H   H35       1.0  0.29041  0.08520  0.43687  1.0000
  N   N1        1.0  0.20124  0.05347  0.23278  1.0000
  C   C33       1.0  0.21254  0.05482  0.25280  1.0000
  C   C34       1.0  0.18113  0.05801  0.23876  1.0000
  C   C35       1.0  0.20749  0.06700  0.21508  1.0000
  C   C36       1.0  0.20395  0.03405  0.22446  1.0000
  C   C37       1.0  0.23378  0.05227  0.24920  1.0000
  C   C38       1.0  0.17208  0.04485  0.25587  1.0000
  C   C39       1.0  0.20765  0.08756  0.22141  1.0000
  C   C40       1.0  0.19034  0.02869  0.20705  1.0000
  H   H36       1.0  0.20942  0.06825  0.26085  1.0000
  H   H37       1.0  0.20868  0.04409  0.26532  1.0000
  H   H38       1.0  0.17243  0.05874  0.22416  1.0000
  H   H39       1.0  0.17942  0.07205  0.24560  1.0000
  H   H40       1.0  0.22164  0.06294  0.20862  1.0000
  H   H41       1.0  0.19846  0.06674  0.20082  1.0000
  H   H42       1.0  0.21823  0.03169  0.21738  1.0000
  H   H43       1.0  0.20278  0.02370  0.23817  1.0000
  H   H44       1.0  0.24048  0.05280  0.26514  1.0000
  H   H45       1.0  0.23793  0.03848  0.24273  1.0000
  N   N2        1.0  0.09418  0.22477  0.11451  1.0000
  H   H46       1.0  0.15706  0.04885  0.25763  1.0000
  H   H47       1.0  0.17317  0.03014  0.25123  1.0000
  H   H48       1.0  0.17795  0.04628  0.27213  1.0000
  H   H49       1.0  0.19353  0.09343  0.22544  1.0000
  H   H50       1.0  0.21305  0.09594  0.20729  1.0000
  H   H51       1.0  0.21685  0.08970  0.23510  1.0000
  C   C41       1.0  0.01353  0.17001  0.25980  1.0000
  H   H52       1.0  0.18436  0.04055  0.19733  1.0000
  H   H53       1.0  0.04280  0.07654  0.45921  1.0000
  C   C42       1.0  0.19552  0.08695  0.43768  1.0000
  H   H54       1.0  0.04652  0.09263  0.43689  1.0000
  H   H55       1.0  0.24620  0.11254  0.45559  1.0000
  H   H56       1.0  0.09239  0.12618  0.24142  1.0000
  H   H57       1.0  0.23655  0.12263  0.41933  1.0000
  H   H58       1.0  0.23955  0.06349  0.23863  1.0000
  C   C43       1.0  0.09580  0.01009  0.00727  1.0000
  C   C44       1.0  0.11028  0.01533  0.01995  1.0000
  H   H59       1.0  0.32119  0.12317  0.46320  1.0000
  N   N3        1.0  0.08277  0.07921  0.09415  1.0000
  C   C45       1.0  0.06199  0.08150  0.09791  1.0000
  C   C46       1.0  0.08616  0.06660  0.07520  1.0000
  C   C47       1.0  0.08990  0.09824  0.08848  1.0000
  C   C48       1.0  0.09101  0.07126  0.11484  1.0000
  C   C49       1.0  0.05526  0.09473  0.11608  1.0000
  C   C50       1.0  0.08009  0.04646  0.07876  1.0000
  C   C51       1.0  0.10872  0.09916  0.07592  1.0000
  C   C52       1.0  0.11182  0.06527  0.11397  1.0000
  H   H60       1.0  0.05521  0.08668  0.08270  1.0000
  H   H61       1.0  0.05582  0.06798  0.10227  1.0000
  H   H62       1.0  0.10098  0.06551  0.06989  1.0000
  H   H63       1.0  0.07896  0.07258  0.06069  1.0000
  H   H64       1.0  0.07990  0.10638  0.07805  1.0000
  H   H65       1.0  0.09104  0.10642  0.10339  1.0000
  H   H66       1.0  0.08943  0.08158  0.12792  1.0000
  H   H67       1.0  0.08313  0.05932  0.12158  1.0000
  H   H68       1.0  0.05883  0.08904  0.13246  1.0000
  H   H69       1.0  0.06060  0.10882  0.11365  1.0000
  H   H70       1.0  0.03988  0.09644  0.11588  1.0000
  H   H71       1.0  0.06480  0.04568  0.08028  1.0000
  H   H72       1.0  0.08455  0.03846  0.06418  1.0000
  H   H73       1.0  0.08675  0.03934  0.09292  1.0000
  H   H74       1.0  0.11315  0.11373  0.07543  1.0000
  H   H75       1.0  0.10744  0.09532  0.05872  1.0000
  H   H76       1.0  0.11991  0.09048  0.08344  1.0000
  H   H77       1.0  0.12045  0.07698  0.11795  1.0000
  H   H78       1.0  0.11679  0.05953  0.09829  1.0000
  H   H79       1.0  0.11435  0.05375  0.12613  1.0000
  C   C53       1.0  0.21441  0.12653  0.38445  1.0000
  H   H80       1.0  0.24747  0.10260  0.39282  1.0000
  H   H81       1.0  0.20295  0.13255  0.37443  1.0000
  H   H82       1.0  0.21877  0.13775  0.39477  1.0000
  C   C54       1.0  0.08653  0.17263  0.27433  1.0000
  C   C55       1.0  0.08430  0.19066  0.28739  1.0000
  H   H83       1.0  0.09968  0.17332  0.26460  1.0000
  H   H84       1.0  0.07554  0.17367  0.26204  1.0000
  H   H85       1.0  0.04088  0.15965  0.31010  1.0000
  H   H86       1.0  0.09590  0.19979  0.28275  1.0000
  H   H87       1.0  0.08425  0.18882  0.30525  1.0000
  H   H88       1.0  0.07136  0.19862  0.28285  1.0000
  H   H89       1.0  0.30687  0.06577  0.43590  1.0000
  H   H90       1.0  0.30062  0.12012  0.40978  1.0000
  H   H91       1.0  0.29026  0.06759  0.45791  1.0000
  C   C56       1.0  0.32255  0.10393  0.42633  1.0000
  C   C57       1.0  0.01831  0.11193  0.41716  1.0000
  H   H92       1.0  0.07743  0.24485  0.09543  1.0000
  Fe  Fe11      1.0  0.14124  0.03316  0.49666  1.0000
  C   C58       1.0  0.09226  0.24085  0.09830  1.0000
  N   N4        1.0  0.01073  0.11118  0.44038  1.0000
  H   H93       1.0  0.00283  0.13752  0.40492  1.0000
  H   H94       1.0  0.06578  0.24246  0.15721  1.0000
  H   H95       1.0  0.01205  0.12586  0.47040  1.0000
  H   H96       1.0  0.03250  0.12697  0.45350  1.0000
  H   H97       1.0  0.09767  0.23664  0.08197  1.0000
  H   H98       1.0  0.04494  0.10029  0.46473  1.0000
  H   H99       1.0  0.03242  0.11764  0.41644  1.0000
  H   H100      1.0  0.01364  0.08103  0.44312  1.0000
  H   H101      1.0  0.02030  0.09769  0.41069  1.0000
  H   H102      1.0  0.23592  0.09066  0.45393  1.0000
  H   H103      1.0  0.22177  0.07310  0.43110  1.0000
  C   C59       1.0  0.30689  0.11928  0.42606  1.0000
  H   H104      1.0  0.10892  0.12518  0.26247  1.0000
  H   H105      1.0  0.19937  0.09584  0.45099  1.0000
  H   H106      1.0  0.23115  0.09023  0.37894  1.0000
  C   C60       1.0  0.23675  0.09202  0.39536  1.0000
  H   H107      1.0  0.25896  0.07130  0.38895  1.0000
  H   H108      1.0  0.14198  0.21934  0.12492  1.0000
  C   C61       1.0  0.20716  0.10987  0.39823  1.0000
  H   H109      1.0  0.20031  0.10080  0.38692  1.0000
  C   C62       1.0  0.11098  0.16232  0.31415  1.0000
  H   H110      1.0  0.11573  0.14881  0.28447  1.0000
  H   H111      1.0  0.07277  0.16371  0.31740  1.0000
  N   N5        1.0  0.08591  0.15433  0.28691  1.0000
  H   H112      1.0  0.25248  0.07211  0.41722  1.0000
  H   H113      1.0  0.22592  0.12247  0.37291  1.0000
  C   C63       1.0  0.24700  0.07320  0.40067  1.0000
  C   C64       1.0  0.09795  0.13418  0.25468  1.0000
  H   H114      1.0  0.10111  0.16411  0.32816  1.0000
  C   C65       1.0  0.10429  0.14924  0.29707  1.0000
  N   N6        1.0  0.22147  0.09868  0.41113  1.0000
  H   H115      1.0  0.06980  0.14344  0.26130  1.0000
  H   H116      1.0  0.19584  0.11574  0.40902  1.0000
  C   C66       1.0  0.08209  0.13936  0.27118  1.0000
  C   C67       1.0  0.07055  0.15413  0.30418  1.0000
  C   C68       1.0  0.05087  0.15899  0.29597  1.0000
  H   H117      1.0  0.10434  0.14656  0.24707  1.0000
  H   H118      1.0  0.09723  0.24045  0.14383  1.0000
  H   H119      1.0  0.19782  0.01929  0.19540  1.0000
  H   H120      1.0  0.23784  0.06148  0.39845  1.0000
  H   H121      1.0  0.04996  0.17274  0.28736  1.0000
  H   H122      1.0  0.11401  0.20168  0.12002  1.0000
  H   H123      1.0  0.31855  0.07656  0.47307  1.0000
  H   H124      1.0  0.20675  0.07350  0.40903  1.0000
  H   H125      1.0  0.07854  0.12621  0.28009  1.0000
  H   H126      1.0  0.12408  0.15615  0.32084  1.0000
  C   C69       1.0  0.21198  0.08234  0.42178  1.0000
  H   H127      1.0  0.10407  0.13501  0.30474  1.0000
  H   H128      1.0  0.06710  0.21570  0.10588  1.0000
  C   C70       1.0  0.22891  0.11119  0.42760  1.0000
  H   H129      1.0  0.18339  0.09328  0.42912  1.0000
  H   H130      1.0  0.07025  0.14020  0.31258  1.0000
  H   H131      1.0  0.11458  0.17593  0.30660  1.0000
  N   N7        1.0  0.32804  0.09657  0.44856  1.0000
  H   H132      1.0  0.21730  0.11815  0.43706  1.0000
  H   H133      1.0  0.12021  0.00490  0.02610  1.0000
  H   H134      1.0  0.07646  0.18968  0.08369  1.0000
  C   C71       1.0  0.08152  0.20993  0.10796  1.0000
  C   C72       1.0  0.11384  0.21651  0.11424  1.0000
  H   H135      1.0  0.01480  0.15694  0.45704  1.0000
  C   C73       1.0  0.29951  0.07573  0.44681  1.0000
  C   C74       1.0  0.03928  0.09089  0.45297  1.0000
  H   H136      1.0  0.05779  0.22753  0.13757  1.0000
  C   C75       1.0  0.12788  0.22556  0.12851  1.0000
  H   H137      1.0  0.08711  0.20977  0.07227  1.0000
  H   H138      1.0  0.29569  0.11667  0.43840  1.0000
  H   H139      1.0  0.30346  0.09646  0.46999  1.0000
  C   C76       1.0  0.06811  0.23809  0.14015  1.0000
  C   C77       1.0  0.01797  0.09345  0.45157  1.0000
  S   S22       1.0  0.09095  0.24984  0.19110  1.0000
  C   C78       1.0  0.09923  0.04781  0.01651  1.0000
  C   C79       1.0  0.22091  0.00663  0.28486  1.0000
  S   S23       1.0  0.04143  0.13262  0.01047  1.0000
  H   H140      1.0  0.32872  0.10069  0.49485  1.0000
  C   C80       1.0  0.08823  0.23012  0.13726  1.0000
  H   H141      1.0  0.09000  0.21787  0.14858  1.0000
  C   C81       1.0  0.00660  0.12315  0.40019  1.0000
  C   C82       1.0  0.01142  0.14686  0.44464  1.0000
  H   H142      1.0  0.01191  0.09219  0.46844  1.0000
  C   C83       1.0  0.01712  0.12714  0.45307  1.0000
  C   C84       1.0  0.08460  0.04252  0.00411  1.0000
  H   H143      1.0  0.12851  0.24071  0.12563  1.0000
  C   C85       1.0  0.33312  0.11294  0.46153  1.0000
  H   H144      1.0  0.00833  0.22261  0.27015  1.0000
  H   H145      1.0  0.05563  0.00863  0.48441  1.0000
  Fe  Fe12      1.0  0.03902  0.10256  0.00304  1.0000
  H   H146      1.0  0.00215  0.03243  0.03897  1.0000
  H   H147      1.0  0.03271  0.00117  0.48198  1.0000
  H   H148      1.0  0.01671  0.15466  0.87928  1.0000
  S   S24       1.0  0.07831  0.15391  0.97014  1.0000
  S   S25       1.0  0.06624  0.10060  0.98379  1.0000
  Fe  Fe13      1.0  0.09321  0.22010  0.83522  1.0000
  S   S26       1.0  0.06574  0.20618  0.83886  1.0000
  C   C86       1.0  0.28247  0.02387  0.71529  1.0000
  Fe  Fe14      1.0  0.10975  0.18817  0.80620  1.0000
  S   S27       1.0  0.08318  0.17304  0.80761  1.0000
  S   S28       1.0  0.13680  0.17851  0.78803  1.0000
  Fe  Fe15      1.0  0.06848  0.20114  0.80295  1.0000
  S   S29       1.0  0.04548  0.21195  0.78022  1.0000
  Fe  Fe16      1.0  0.08243  0.17936  0.84344  1.0000
  S   S30       1.0  0.07529  0.15525  0.86677  1.0000
  S   S31       1.0  0.09527  0.21617  0.79899  1.0000
  S   S32       1.0  0.10973  0.19325  0.84235  1.0000
  Fe  Fe17      1.0  0.19844  0.07585  0.68155  1.0000
  S   S33       1.0  0.20866  0.09952  0.70046  1.0000
  S   S34       1.0  0.18537  0.08448  0.64911  1.0000
  Fe  Fe18      1.0  0.20729  0.04723  0.71872  1.0000
  S   S35       1.0  0.21741  0.06913  0.73997  1.0000
  S   S36       1.0  0.20628  0.01584  0.72613  1.0000
  Fe  Fe19      1.0  0.19267  0.08728  0.72925  1.0000
  S   S37       1.0  0.16922  0.10082  0.75094  1.0000
  Fe  Fe20      1.0  0.23268  0.07964  0.70929  1.0000
  S   S38       1.0  0.26372  0.08571  0.71208  1.0000
  S   S39       1.0  0.18168  0.06437  0.70983  1.0000
  S   S40       1.0  0.22340  0.05696  0.68852  1.0000
  Fe  Fe21      1.0  0.11127  0.01289  0.52393  1.0000
  S   S41       1.0  0.10837  0.03568  0.54801  1.0000
  H   H149      1.0  0.17823  0.13926  0.83685  1.0000
  C   C87       1.0  0.29551  0.03837  0.72320  1.0000
  H   H150      1.0  0.01827  0.11912  0.54395  1.0000
  Fe  Fe22      1.0  0.13949  0.03585  0.54697  1.0000
  S   S42       1.0  0.15522  0.03096  0.57862  1.0000
  Fe  Fe23      1.0  0.10949  0.05501  0.51873  1.0000
  C   C88       1.0  0.01458  0.15887  0.89644  1.0000
  S   S43       1.0  0.14229  0.01179  0.52439  1.0000
  C   C89       1.0  0.28274  0.08723  0.69264  1.0000
  C   C90       1.0  0.30081  0.08905  0.70013  1.0000
  C   C91       1.0  0.31623  0.09086  0.68543  1.0000
  C   C92       1.0  0.31378  0.09106  0.66292  1.0000
  C   C93       1.0  0.29575  0.08899  0.65547  1.0000
  C   C94       1.0  0.28037  0.08707  0.67015  1.0000
  H   H151      1.0  0.30290  0.08917  0.71746  1.0000
  H   H152      1.0  0.04321  0.00202  0.50856  1.0000
  H   H153      1.0  0.29360  0.08905  0.63813  1.0000
  H   H154      1.0  0.26664  0.08567  0.66402  1.0000
  C   C95       1.0  0.17672  0.06940  0.62989  1.0000
  C   C96       1.0  0.17807  0.05007  0.63282  1.0000
  C   C97       1.0  0.17132  0.03861  0.61699  1.0000
  C   C98       1.0  0.16303  0.04628  0.59812  1.0000
  C   C99       1.0  0.16146  0.06562  0.59531  1.0000
  C   C100      1.0  0.16832  0.07710  0.61109  1.0000
  H   H155      1.0  0.18449  0.04394  0.64717  1.0000
  H   H156      1.0  0.17264  0.02368  0.61934  1.0000
  H   H157      1.0  0.15519  0.07172  0.58086  1.0000
  H   H158      1.0  0.16728  0.09202  0.60858  1.0000
  C   C101      1.0  0.14490  0.15717  0.77613  1.0000
  C   C102      1.0  0.16290  0.15589  0.76648  1.0000
  C   C103      1.0  0.17045  0.13897  0.75821  1.0000
  C   C104      1.0  0.16018  0.12295  0.75977  1.0000
  C   C105      1.0  0.14204  0.12432  0.76903  1.0000
  C   C106      1.0  0.13435  0.14132  0.77686  1.0000
  H   H159      1.0  0.17121  0.16802  0.76572  1.0000
  H   H160      1.0  0.18440  0.13824  0.75118  1.0000
  H   H161      1.0  0.13387  0.11209  0.77020  1.0000
  H   H162      1.0  0.12039  0.14206  0.78385  1.0000
  C   C107      1.0  0.07945  0.15368  0.94128  1.0000
  C   C108      1.0  0.08115  0.17055  0.92935  1.0000
  C   C109      1.0  0.08041  0.17123  0.90645  1.0000
  C   C110      1.0  0.07804  0.15498  0.89528  1.0000
  C   C111      1.0  0.07704  0.13801  0.90713  1.0000
  C   C112      1.0  0.07783  0.13734  0.93000  1.0000
  H   H163      1.0  0.08256  0.18326  0.93792  1.0000
  H   H164      1.0  0.08128  0.18437  0.89752  1.0000
  H   H165      1.0  0.07537  0.12535  0.89860  1.0000
  H   H166      1.0  0.07690  0.12421  0.93894  1.0000
  C   C113      1.0  0.03424  0.08872  0.50878  1.0000
  H   H167      1.0  0.27611  0.03060  0.70060  1.0000
  N   N8        1.0  0.31926  0.15037  0.67191  1.0000
  H   H168      1.0  0.06824  0.24668  0.77850  1.0000
  C   C114      1.0  0.00586  0.17520  0.76693  1.0000
  H   H169      1.0  0.25241  0.00998  0.77372  1.0000
  H   H170      1.0  0.25128  0.04226  0.72288  1.0000
  H   H171      1.0  0.13047  0.00999  0.97051  1.0000
  C   C115      1.0  0.02557  0.20144  0.77045  1.0000
  C   C116      1.0  0.02163  0.18293  0.77545  1.0000
  C   C117      1.0  0.00977  0.08629  0.56549  1.0000
  H   H172      1.0  0.03086  0.17449  0.78562  1.0000
  C   C118      1.0  0.04096  0.05553  0.50900  1.0000
  H   H173      1.0  0.16384  0.14521  0.81387  1.0000
  H   H174      1.0  0.21374  0.02483  0.77135  1.0000
  H   H175      1.0  0.12318  0.14889  0.82426  1.0000
  H   H176      1.0  0.17700  0.16237  0.82534  1.0000
  H   H177      1.0  0.02444  0.10048  0.50766  1.0000
  H   H178      1.0  0.13899  0.12958  0.81991  1.0000
  C   C119      1.0  0.00757  0.09318  0.60390  1.0000
  H   H179      1.0  0.14476  0.16784  0.83756  1.0000
  H   H180      1.0  0.30337  0.03346  0.73759  1.0000
  C   C120      1.0  0.01398  0.10333  0.62386  1.0000
  C   C121      1.0  0.03794  0.08328  0.58852  1.0000
  H   H181      1.0  0.24120  0.02193  0.69849  1.0000
  H   H182      1.0  0.03430  0.11939  0.58961  1.0000
  C   C122      1.0  0.26006  0.04579  0.75572  1.0000
  H   H183      1.0  0.29549  0.14927  0.65124  1.0000
  H   H184      1.0  0.29130  0.01183  0.70943  1.0000
  C   C123      1.0  0.05325  0.09155  0.51100  1.0000
  H   H185      1.0  0.30543  0.17722  0.66528  1.0000
  H   H186      1.0  0.01409  0.11859  0.62083  1.0000
  C   C124      1.0  0.30868  0.14253  0.69150  1.0000
  H   H187      1.0  0.03661  0.15832  0.97474  1.0000
  H   H188      1.0  0.06971  0.04656  0.51275  1.0000
  H   H189      1.0  0.01726  0.08776  0.54961  1.0000
  C   C125      1.0  0.31894  0.15004  0.62972  1.0000
  C   C126      1.0  0.02987  0.11987  0.55524  1.0000
  H   H190      1.0  0.27480  0.04468  0.75995  1.0000
  C   C127      1.0  0.00542  0.06558  0.56830  1.0000
  H   H191      1.0  0.33125  0.19683  0.66141  1.0000
  H   H192      1.0  0.06001  0.06642  0.57272  1.0000
  H   H193      1.0  0.02155  0.17220  0.89752  1.0000
  S   S44       1.0  0.14068  0.05721  0.51930  1.0000
  C   C128      1.0  0.31019  0.14403  0.65184  1.0000
  S   S45       1.0  0.09326  0.24722  0.85445  1.0000
  H   H194      1.0  0.31744  0.17597  0.68985  1.0000
  C   C129      1.0  0.02806  0.07067  0.50780  1.0000
  H   H195      1.0  0.24069  0.02773  0.74289  1.0000
  C   C130      1.0  0.08302  0.02373  0.99932  1.0000
  H   H196      1.0  0.31611  0.16506  0.62616  1.0000
  H   H197      1.0  0.03391  0.13456  0.55465  1.0000
  C   C131      1.0  0.03416  0.11170  0.93731  1.0000
  H   H198      1.0  0.00314  0.16079  0.77066  1.0000
  H   H199      1.0  0.30978  0.12861  0.65221  1.0000
  S   S46       1.0  0.00445  0.06642  0.50462  1.0000
  H   H200      1.0  0.25722  0.06055  0.75066  1.0000
  H   H201      1.0  0.01628  0.22641  0.75297  1.0000
  C   C132      1.0  0.12628  0.01322  0.95354  1.0000
  H   H202      1.0  0.21823  0.00459  0.80451  1.0000
  C   C133      1.0  0.20837  0.00224  0.75081  1.0000
  C   C134      1.0  0.27663  0.00764  0.75070  1.0000
  H   H203      1.0  0.02775  0.09795  0.62929  1.0000
  S   S47       1.0  0.01391  0.09261  0.98602  1.0000
  C   C135      1.0  0.03099  0.13065  0.94827  1.0000
  H   H204      1.0  0.11604  0.02519  0.95455  1.0000
  H   H205      1.0  0.28195  0.14328  0.70906  1.0000
  C   C136      1.0  0.02794  0.16437  0.94094  1.0000
  C   C137      1.0  0.28753  0.14691  0.69247  1.0000
  H   H206      1.0  0.28791  0.05180  0.72625  1.0000
  H   H207      1.0  0.32995  0.09235  0.69152  1.0000
  H   H208      1.0  0.28032  0.13820  0.68114  1.0000
  C   C138      1.0  0.31837  0.17133  0.67272  1.0000
  H   H209      1.0  0.06149  0.09089  0.56669  1.0000
  H   H210      1.0  0.04498  0.07697  0.55389  1.0000
  H   H211      1.0  0.03523  0.06966  0.59684  1.0000
  H   H212      1.0  0.04011  0.10135  0.94918  1.0000
  Fe  Fe24      1.0  0.06933  0.13010  0.99298  1.0000
  C   C139      1.0  0.06611  0.07637  0.51257  1.0000
  H   H213      1.0  0.02429  0.12801  0.96460  1.0000
  H   H214      1.0  0.04438  0.11263  0.92346  1.0000
  H   H215      1.0  0.07467  0.05294  0.99793  1.0000
  C   C140      1.0  0.21243  0.00999  0.77056  1.0000
  C   C141      1.0  0.05171  0.07950  0.56926  1.0000
  C   C142      1.0  0.25432  0.03314  0.73742  1.0000
  N   N9        1.0  0.26767  0.01727  0.73129  1.0000
  C   C143      1.0  0.15261  0.15583  0.84535  1.0000
  H   H216      1.0  0.02125  0.10601  0.93172  1.0000
  H   H217      1.0  0.03847  0.14278  0.90719  1.0000
  H   H218      1.0  0.01087  0.12329  0.58208  1.0000
  C   C144      1.0  0.02832  0.16882  0.96530  1.0000
  H   H219      1.0  0.02932  0.24732  0.78913  1.0000
  H   H220      1.0  0.25130  0.04344  0.77069  1.0000
  H   H221      1.0  0.26002  0.00879  0.68495  1.0000
  H   H222      1.0  0.15920  0.16179  0.85937  1.0000
  H   H223      1.0  0.13817  0.01795  0.94330  1.0000
  H   H224      1.0  0.28399  0.16183  0.68905  1.0000
  H   H225      1.0  0.31074  0.12716  0.69263  1.0000
  C   C145      1.0  0.16872  0.15004  0.82948  1.0000
  N   N10       1.0  0.14325  0.11894  0.68638  1.0000
  C   C146      1.0  0.12994  0.11796  0.66810  1.0000
  C   C147      1.0  0.13351  0.12883  0.70505  1.0000
  C   C148      1.0  0.14962  0.09975  0.69422  1.0000
  C   C149      1.0  0.16003  0.12909  0.67801  1.0000
  C   C150      1.0  0.13670  0.10585  0.64889  1.0000
  C   C151      1.0  0.12721  0.14927  0.70036  1.0000
  C   C152      1.0  0.13422  0.08688  0.70257  1.0000
  C   C153      1.0  0.17312  0.13527  0.69556  1.0000
  H   H226      1.0  0.11632  0.11292  0.67422  1.0000
  H   H227      1.0  0.12672  0.13207  0.66092  1.0000
  H   H228      1.0  0.14227  0.12834  0.71961  1.0000
  H   H229      1.0  0.12073  0.12169  0.71047  1.0000
  H   H230      1.0  0.15792  0.09239  0.68136  1.0000
  H   H231      1.0  0.15931  0.10047  0.70769  1.0000
  H   H232      1.0  0.16862  0.12035  0.66655  1.0000
  H   H233      1.0  0.15560  0.14182  0.66844  1.0000
  H   H234      1.0  0.12625  0.10702  0.63599  1.0000
  H   H235      1.0  0.14996  0.11046  0.64136  1.0000
  H   H236      1.0  0.13825  0.09090  0.65370  1.0000
  H   H237      1.0  0.11611  0.15047  0.68829  1.0000
  H   H238      1.0  0.12129  0.15522  0.71568  1.0000
  H   H239      1.0  0.13880  0.15801  0.69487  1.0000
  H   H240      1.0  0.12762  0.09172  0.71805  1.0000
  H   H241      1.0  0.14058  0.07285  0.70626  1.0000
  H   H242      1.0  0.12359  0.08511  0.69034  1.0000
  H   H243      1.0  0.18754  0.13501  0.68862  1.0000
  H   H244      1.0  0.17334  0.12631  0.71052  1.0000
  H   H245      1.0  0.16997  0.14994  0.69980  1.0000
  H   H246      1.0  0.11000  0.00592  0.58765  1.0000
  N   N11       1.0  0.13959  0.14075  0.85226  1.0000
  C   C154      1.0  0.12936  0.13603  0.83227  1.0000
  C   C155      1.0  0.12534  0.14775  0.86901  1.0000
  C   C156      1.0  0.14970  0.12330  0.86052  1.0000
  C   C157      1.0  0.11351  0.12245  0.83588  1.0000
  C   C158      1.0  0.13197  0.16025  0.88680  1.0000
  C   C159      1.0  0.16290  0.12525  0.87943  1.0000
  H   H247      1.0  0.11410  0.15614  0.86090  1.0000
  H   H248      1.0  0.11833  0.13597  0.87751  1.0000
  H   H249      1.0  0.13963  0.11290  0.86648  1.0000
  H   H250      1.0  0.15758  0.11608  0.84712  1.0000
  H   H251      1.0  0.10233  0.12787  0.84707  1.0000
  H   H252      1.0  0.10701  0.12057  0.82002  1.0000
  H   H253      1.0  0.11865  0.10850  0.84173  1.0000
  H   H254      1.0  0.13515  0.17425  0.87996  1.0000
  H   H255      1.0  0.14400  0.15416  0.89557  1.0000
  H   H256      1.0  0.12050  0.16241  0.89911  1.0000
  H   H257      1.0  0.15538  0.12354  0.89540  1.0000
  H   H258      1.0  0.17007  0.13847  0.87887  1.0000
  H   H259      1.0  0.17421  0.11429  0.87838  1.0000
  S   S48       1.0  0.08967  0.08033  0.51645  1.0000
  H   H260      1.0  0.01972  0.17610  0.93325  1.0000
  H   H261      1.0  0.31239  0.14250  0.61673  1.0000
  H   H262      1.0  0.05803  0.10551  0.51169  1.0000
  H   H263      1.0  0.04594  0.09049  0.60057  1.0000
  H   H264      1.0  0.04512  0.13489  0.95191  1.0000
  C   C160      1.0  0.02366  0.11444  0.57873  1.0000
  C   C161      1.0  0.02333  0.14354  0.91147  1.0000
  H   H265      1.0  0.31402  0.14763  0.70688  1.0000
  H   H266      1.0  0.04238  0.16539  0.93415  1.0000
  H   H267      1.0  0.03628  0.04154  0.50815  1.0000
  N   N12       1.0  0.02038  0.14590  0.93569  1.0000
  C   C162      1.0  0.01339  0.21213  0.75708  1.0000
  H   H268      1.0  0.30594  0.04138  0.70997  1.0000
  H   H269      1.0  0.07181  0.01975  0.98946  1.0000
  H   H270      1.0  0.01803  0.13025  0.90625  1.0000
  H   H271      1.0  0.01815  0.05659  0.57040  1.0000
  H   H272      1.0  0.04197  0.11139  0.54925  1.0000
  N   N13       1.0  0.02010  0.09420  0.58372  1.0000
  C   C163      1.0  0.24905  0.00843  0.69804  1.0000
  H   H273      1.0  0.05426  0.23882  0.81260  1.0000
  H   H274      1.0  0.28566  0.01679  0.75923  1.0000
  H   H275      1.0  0.03516  0.18219  0.96687  1.0000
  H   H276      1.0  0.01421  0.17055  0.97285  1.0000
  H   H277      1.0  0.03738  0.24393  0.84655  1.0000
  S   S49       1.0  0.33238  0.09463  0.64332  1.0000
  H   H278      1.0  0.11039  0.00174  0.92851  1.0000
  H   H279      1.0  0.00572  0.07852  0.60946  1.0000
  C   C164      1.0  0.05990  0.05834  0.51153  1.0000
  H   H280      1.0  0.00390  0.10101  0.63765  1.0000
  C   C165      1.0  0.25708  0.00275  0.72033  1.0000
  Fe  Fe25      1.0  0.30591  0.43678  0.22319  1.0000
  S   S50       1.0  0.29114  0.41253  0.23900  1.0000
  S   S51       1.0  0.29999  0.46728  0.23222  1.0000
  Fe  Fe26      1.0  0.32478  0.41263  0.18826  1.0000
  S   S52       1.0  0.31118  0.38717  0.20190  1.0000
  H   H281      1.0  0.12817  0.32758  0.01705  1.0000
  Fe  Fe27      1.0  0.28468  0.40480  0.20480  1.0000
  S   S53       1.0  0.25930  0.38937  0.19394  1.0000
  Fe  Fe28      1.0  0.31878  0.39651  0.23474  1.0000
  S   S54       1.0  0.29798  0.42978  0.18901  1.0000
  H   H282      1.0  0.15189  0.31840  0.09345  1.0000
  Fe  Fe29      1.0  0.12915  0.35057  0.13838  1.0000
  S   S55       1.0  0.10753  0.36709  0.11898  1.0000
  S   S56       1.0  0.13120  0.31831  0.14146  1.0000
  Fe  Fe30      1.0  0.15370  0.38476  0.14149  1.0000
  S   S57       1.0  0.13332  0.40268  0.12189  1.0000
  S   S58       1.0  0.17871  0.40107  0.15198  1.0000
  Fe  Fe31      1.0  0.11087  0.38991  0.14324  1.0000
  S   S59       1.0  0.08618  0.40933  0.15553  1.0000
  Fe  Fe32      1.0  0.13147  0.37891  0.09906  1.0000
  S   S60       1.0  0.13683  0.38207  0.06124  1.0000
  S   S61       1.0  0.13124  0.37272  0.16367  1.0000
  S   S62       1.0  0.15305  0.36177  0.11774  1.0000
  Fe  Fe33      1.0  0.02964  0.47663  0.25218  1.0000
  S   S63       1.0  0.05262  0.45682  0.23660  1.0000
  S   S64       1.0  0.02623  0.47239  0.28881  1.0000
  C   C166      1.0  0.07678  0.42186  0.17861  1.0000
  C   C167      1.0  0.08460  0.42040  0.19921  1.0000
  C   C168      1.0  0.07721  0.43134  0.21650  1.0000
  C   C169      1.0  0.06168  0.44376  0.21376  1.0000
  C   C170      1.0  0.05371  0.44501  0.19325  1.0000
  C   C171      1.0  0.06122  0.43423  0.17591  1.0000
  H   H283      1.0  0.09636  0.41086  0.20181  1.0000
  H   H284      1.0  0.08351  0.43004  0.23223  1.0000
  H   H285      1.0  0.04182  0.45443  0.19065  1.0000
  H   H286      1.0  0.05498  0.43560  0.16014  1.0000
  H   H287      1.0  0.27510  0.49294  0.34509  1.0000
  C   C172      1.0  0.14432  0.38327  0.01628  1.0000
  C   C173      1.0  0.13097  0.37964  0.03305  1.0000
  C   C174      1.0  0.11368  0.37375  0.02690  1.0000
  H   H288      1.0  0.09505  0.27075  0.09491  1.0000
  H   H289      1.0  0.15776  0.38779  0.02056  1.0000
  H   H290      1.0  0.10307  0.37105  0.03929  1.0000
  H   H291      1.0  0.01031  0.40777  0.29103  1.0000
  C   C175      1.0  0.30811  0.48090  0.25328  1.0000
  C   C176      1.0  0.31958  0.47341  0.26957  1.0000
  H   H292      1.0  0.14723  0.44991  0.11559  1.0000
  C   C177      1.0  0.24782  0.48619  0.28285  1.0000
  H   H293      1.0  0.31930  0.40523  0.11786  1.0000
  C   C178      1.0  0.23677  0.39311  0.18264  1.0000
  C   C179      1.0  0.22921  0.41082  0.17709  1.0000
  C   C180      1.0  0.21155  0.41290  0.16771  1.0000
  C   C181      1.0  0.20105  0.39738  0.16379  1.0000
  C   C182      1.0  0.20863  0.37968  0.16929  1.0000
  C   C183      1.0  0.22633  0.37760  0.17858  1.0000
  H   H294      1.0  0.23693  0.42293  0.18009  1.0000
  H   H295      1.0  0.20594  0.42667  0.16352  1.0000
  H   H296      1.0  0.20085  0.36757  0.16645  1.0000
  H   H297      1.0  0.23195  0.36381  0.18275  1.0000
  H   H298      1.0  0.17701  0.33168  0.07087  1.0000
  H   H299      1.0  0.13669  0.28196  0.07815  1.0000
  C   C184      1.0  0.10261  0.26867  0.17737  1.0000
  C   C185      1.0  0.09437  0.28679  0.17794  1.0000
  C   C186      1.0  0.10289  0.30212  0.16733  1.0000
  C   C187      1.0  0.11982  0.29959  0.15573  1.0000
  C   C188      1.0  0.12798  0.28143  0.15497  1.0000
  C   C189      1.0  0.11957  0.26616  0.16582  1.0000
  H   H300      1.0  0.08130  0.28904  0.18682  1.0000
  H   H301      1.0  0.09633  0.31588  0.16814  1.0000
  H   H302      1.0  0.14115  0.27922  0.14631  1.0000
  S   S65       1.0  0.32875  0.37424  0.26014  1.0000
  H   H303      1.0  0.11690  0.25767  0.09674  1.0000
  H   H304      1.0  0.26818  0.48175  0.30730  1.0000
  H   H305      1.0  0.29445  0.41096  0.07790  1.0000
  H   H306      1.0  0.12396  0.29718  0.09694  1.0000
  C   C190      1.0  0.32530  0.48476  0.28616  1.0000
  H   H307      1.0  0.16073  0.35128  0.07386  1.0000
  H   H308      1.0  0.29756  0.42907  0.13480  1.0000
  H   H309      1.0  0.31027  0.38664  0.10419  1.0000
  N   N14       1.0  0.01621  0.41341  0.24426  1.0000
  H   H310      1.0  0.10990  0.32598  0.10182  1.0000
  H   H311      1.0  0.31929  0.40866  0.07709  1.0000
  C   C191      1.0  0.04456  0.39670  0.22434  1.0000
  H   H312      1.0  0.26773  0.44280  0.14511  1.0000
  H   H313      1.0  0.16157  0.30344  0.07314  1.0000
  H   H314      1.0  0.02099  0.43654  0.22170  1.0000
  H   H315      1.0  0.03340  0.41674  0.28660  1.0000
  C   C192      1.0  0.11873  0.31981  0.02827  1.0000
  H   H316      1.0  0.25384  0.47407  0.27387  1.0000
  C   C193      1.0  0.30696  0.41295  0.08737  1.0000
  H   H317      1.0  0.10752  0.32942  0.03459  1.0000
  H   H318      1.0  0.11205  0.30959  0.01831  1.0000
  H   H319      1.0  0.01467  0.43107  0.29704  1.0000
  C   C194      1.0  0.16744  0.34161  0.06216  1.0000
  H   H320      1.0  0.27498  0.49693  0.28589  1.0000
  H   H321      1.0  0.24290  0.49657  0.27039  1.0000
  C   C195      1.0  0.14819  0.30965  0.07974  1.0000
  H   H322      1.0  0.25520  0.42497  0.13382  1.0000
  H   H323      1.0  0.03852  0.39648  0.25866  1.0000
  H   H324      1.0  0.05904  0.39177  0.22766  1.0000
  N   N15       1.0  0.13256  0.44767  0.17080  1.0000
  C   C196      1.0  0.11380  0.45391  0.18037  1.0000
  C   C197      1.0  0.13447  0.42689  0.17481  1.0000
  C   C198      1.0  0.13205  0.45172  0.14656  1.0000
  C   C199      1.0  0.14739  0.45806  0.18125  1.0000
  C   C200      1.0  0.10919  0.47506  0.18052  1.0000
  C   C201      1.0  0.13800  0.42012  0.19848  1.0000
  C   C202      1.0  0.15026  0.44834  0.13317  1.0000
  C   C203      1.0  0.16773  0.45041  0.17840  1.0000
  H   H325      1.0  0.10251  0.44765  0.17156  1.0000
  H   H326      1.0  0.11208  0.44905  0.19760  1.0000
  H   H327      1.0  0.14565  0.42040  0.16458  1.0000
  H   H328      1.0  0.12182  0.42015  0.16964  1.0000
  H   H329      1.0  0.12130  0.44338  0.13928  1.0000
  H   H330      1.0  0.12785  0.46645  0.14293  1.0000
  H   H331      1.0  0.14705  0.47276  0.17502  1.0000
  H   H332      1.0  0.14436  0.45883  0.19912  1.0000
  H   H333      1.0  0.09618  0.33948  0.08266  1.0000
  H   H334      1.0  0.09508  0.47734  0.18811  1.0000
  H   H335      1.0  0.11881  0.48239  0.19059  1.0000
  H   H336      1.0  0.12674  0.42449  0.21012  1.0000
  H   H337      1.0  0.13875  0.40467  0.19907  1.0000
  H   H338      1.0  0.15144  0.42451  0.20422  1.0000
  H   H339      1.0  0.16046  0.45886  0.13637  1.0000
  H   H340      1.0  0.15660  0.43420  0.13554  1.0000
  H   H341      1.0  0.12638  0.25250  0.16556  1.0000
  H   H342      1.0  0.17625  0.46066  0.16921  1.0000
  H   H343      1.0  0.16944  0.43714  0.16999  1.0000
  H   H344      1.0  0.17404  0.44809  0.19457  1.0000
  N   N16       1.0  0.28965  0.40266  0.12322  1.0000
  C   C204      1.0  0.30707  0.40125  0.10887  1.0000
  C   C205      1.0  0.29403  0.39260  0.14448  1.0000
  C   C206      1.0  0.28543  0.42295  0.12741  1.0000
  C   C207      1.0  0.27403  0.39439  0.11159  1.0000
  C   C208      1.0  0.30059  0.37203  0.14279  1.0000
  C   C209      1.0  0.26822  0.42769  0.14201  1.0000
  C   C210      1.0  0.25754  0.38732  0.12588  1.0000
  H   H345      1.0  0.28212  0.39300  0.15620  1.0000
  H   H346      1.0  0.30505  0.39973  0.15282  1.0000
  C   C211      1.0  0.01307  0.42703  0.26233  1.0000
  H   H347      1.0  0.28301  0.43099  0.11195  1.0000
  H   H348      1.0  0.26827  0.40456  0.09925  1.0000
  H   H349      1.0  0.27943  0.38218  0.10228  1.0000
  H   H350      1.0  0.30837  0.42793  0.09029  1.0000
  H   H351      1.0  0.30010  0.36529  0.15932  1.0000
  H   H352      1.0  0.29165  0.36425  0.13238  1.0000
  H   H353      1.0  0.31523  0.37074  0.13666  1.0000
  H   H354      1.0  0.04543  0.41815  0.24732  1.0000
  C   C212      1.0  0.03628  0.40644  0.24466  1.0000
  H   H355      1.0  0.03711  0.38433  0.22024  1.0000
  H   H356      1.0  0.24446  0.39006  0.11704  1.0000
  H   H357      1.0  0.25533  0.39386  0.14174  1.0000
  H   H358      1.0  0.25882  0.37200  0.12849  1.0000
  H   H359      1.0  0.14591  0.28703  0.10372  1.0000
  H   H360      1.0  0.13227  0.34365  0.08447  1.0000
  H   H361      1.0  0.10866  0.48159  0.16399  1.0000
  H   H362      1.0  0.04562  0.40635  0.20998  1.0000
  N   N17       1.0  0.13853  0.32140  0.06232  1.0000
  C   C213      1.0  0.15315  0.33167  0.04912  1.0000
  C   C214      1.0  0.12918  0.30932  0.04682  1.0000
  H   H363      1.0  0.32063  0.32946  0.21173  1.0000
  C   C215      1.0  0.12519  0.33563  0.07237  1.0000
  H   H364      1.0  0.23590  0.48125  0.29294  1.0000
  C   C216      1.0  0.26296  0.49367  0.29686  1.0000
  C   C217      1.0  0.13779  0.29312  0.08996  1.0000
  C   C218      1.0  0.10753  0.32861  0.08421  1.0000
  H   H365      1.0  0.24649  0.48998  0.33468  1.0000
  H   H366      1.0  0.14665  0.34254  0.03815  1.0000
  H   H367      1.0  0.11902  0.30030  0.05526  1.0000
  H   H368      1.0  0.13960  0.29943  0.03918  1.0000
  H   H369      1.0  0.17606  0.35011  0.05070  1.0000
  H   H370      1.0  0.26854  0.42047  0.15818  1.0000
  H   H371      1.0  0.16132  0.32208  0.03822  1.0000
  H   H372      1.0  0.12069  0.34648  0.06019  1.0000
  H   H373      1.0  0.02102  0.43973  0.25880  1.0000
  H   H374      1.0  0.10201  0.31615  0.07733  1.0000
  C   C219      1.0  0.10232  0.25863  0.10305  1.0000
  H   H375      1.0  0.01661  0.41602  0.20869  1.0000
  C   C220      1.0  0.00328  0.39777  0.24861  1.0000
  H   H376      1.0  0.00513  0.38925  0.21383  1.0000
  H   H377      1.0  0.10201  0.26213  0.12042  1.0000
  H   H378      1.0  0.01003  0.33992  0.35443  1.0000
  H   H379      1.0  0.00754  0.38934  0.26323  1.0000
  C   C221      1.0  0.01242  0.42407  0.22319  1.0000
  C   C222      1.0  0.01827  0.41990  0.28540  1.0000
  H   H380      1.0  0.32401  0.45887  0.26940  1.0000
  H   H381      1.0  0.32793  0.35088  0.22102  1.0000
  H   H382      1.0  0.32808  0.44178  0.14435  1.0000
  H   H383      1.0  0.29487  0.49402  0.32654  1.0000
  H   H384      1.0  0.01024  0.37096  0.23367  1.0000
  C   C223      1.0  0.30255  0.49988  0.25379  1.0000
  C   C224      1.0  0.10989  0.37163  0.00461  1.0000
  H   H385      1.0  0.33139  0.45910  0.10883  1.0000
  C   C225      1.0  0.00153  0.38379  0.23036  1.0000
  C   C226      1.0  0.33312  0.33721  0.21511  1.0000
  H   H386      1.0  0.00347  0.35189  0.37862  1.0000
  H   H387      1.0  0.26708  0.37663  0.75259  1.0000
  S   S66       1.0  0.31710  0.38474  0.83406  1.0000
  H   H388      1.0  0.27786  0.44720  0.90969  1.0000
  Fe  Fe34      1.0  0.31838  0.43654  0.81466  1.0000
  S   S67       1.0  0.30544  0.41472  0.79553  1.0000
  C   C227      1.0  0.31293  0.46552  0.72231  1.0000
  Fe  Fe35      1.0  0.29268  0.40468  0.82776  1.0000
  S   S68       1.0  0.26385  0.39198  0.82937  1.0000
  H   H389      1.0  0.02121  0.27061  0.79177  1.0000
  S   S69       1.0  0.30387  0.42792  0.84651  1.0000
  Fe  Fe36      1.0  0.13254  0.35192  0.88124  1.0000
  S   S70       1.0  0.10804  0.36807  0.89620  1.0000
  S   S71       1.0  0.13177  0.32586  0.86020  1.0000
  Fe  Fe37      1.0  0.15953  0.38317  0.88999  1.0000
  S   S72       1.0  0.13618  0.40103  0.90524  1.0000
  S   S73       1.0  0.18847  0.39602  0.88862  1.0000
  Fe  Fe38      1.0  0.12758  0.37469  0.92321  1.0000
  S   S74       1.0  0.11726  0.37252  0.95972  1.0000
  Fe  Fe39      1.0  0.11844  0.39328  0.87748  1.0000
  S   S75       1.0  0.10397  0.41376  0.85239  1.0000
  S   S76       1.0  0.15154  0.35708  0.90892  1.0000
  S   S77       1.0  0.14238  0.37694  0.86161  1.0000
  Fe  Fe40      1.0  0.02005  0.47556  0.78289  1.0000
  S   S78       1.0  0.02598  0.47518  0.74651  1.0000
  S   S79       1.0  0.03127  0.45442  0.80949  1.0000
  C   C228      1.0  0.05181  0.44354  0.82122  1.0000
  C   C229      1.0  0.06967  0.44521  0.81183  1.0000
  C   C230      1.0  0.08530  0.43608  0.82158  1.0000
  C   C231      1.0  0.08354  0.42523  0.84104  1.0000
  C   C232      1.0  0.06569  0.42350  0.85040  1.0000
  C   C233      1.0  0.05004  0.43250  0.84054  1.0000
  H   H390      1.0  0.07142  0.45349  0.79696  1.0000
  H   H391      1.0  0.09887  0.43742  0.81383  1.0000
  H   H392      1.0  0.06388  0.41535  0.86534  1.0000
  H   H393      1.0  0.03640  0.43103  0.84809  1.0000
  N   N18       1.0  0.05082  0.26607  0.79705  1.0000
  H   H394      1.0  0.15099  0.38413  0.98149  1.0000
  C   C234      1.0  0.31367  0.48414  0.78766  1.0000
  H   H395      1.0  0.25351  0.33100  0.78189  1.0000
  H   H396      1.0  0.24260  0.41995  0.93679  1.0000
  H   H397      1.0  0.27511  0.34078  0.83093  1.0000
  C   C235      1.0  0.29570  0.48257  0.78027  1.0000
  C   C236      1.0  0.25208  0.41387  0.92403  1.0000
  C   C237      1.0  0.05474  0.48303  0.69277  1.0000
  C   C238      1.0  0.24297  0.39358  0.84600  1.0000
  C   C239      1.0  0.24040  0.40603  0.86297  1.0000
  C   C240      1.0  0.22365  0.40658  0.87567  1.0000
  C   C241      1.0  0.20918  0.39476  0.87167  1.0000
  C   C242      1.0  0.21167  0.38247  0.85456  1.0000
  C   C243      1.0  0.22843  0.38189  0.84189  1.0000
  H   H398      1.0  0.25125  0.41532  0.86619  1.0000
  H   H399      1.0  0.22183  0.41630  0.88866  1.0000
  H   H400      1.0  0.20075  0.37328  0.85120  1.0000
  H   H401      1.0  0.23014  0.37223  0.82881  1.0000
  C   C244      1.0  0.16170  0.48121  0.86099  1.0000
  H   H402      1.0  0.27409  0.41858  0.94541  1.0000
  H   H403      1.0  0.27532  0.37617  0.91422  1.0000
  C   C245      1.0  0.10401  0.26915  0.85540  1.0000
  C   C246      1.0  0.11751  0.27487  0.84001  1.0000
  C   C247      1.0  0.12567  0.29224  0.84172  1.0000
  C   C248      1.0  0.12060  0.30419  0.85885  1.0000
  C   C249      1.0  0.10685  0.29863  0.87400  1.0000
  C   C250      1.0  0.09864  0.28129  0.87225  1.0000
  C   C251      1.0  0.32156  0.33752  0.75783  1.0000
  H   H404      1.0  0.13627  0.29630  0.82988  1.0000
  H   H405      1.0  0.10273  0.30755  0.88728  1.0000
  H   H406      1.0  0.08825  0.27710  0.88430  1.0000
  H   H407      1.0  0.29235  0.43899  0.93181  1.0000
  H   H408      1.0  0.29986  0.38245  0.93913  1.0000
  H   H409      1.0  0.17967  0.43987  0.87356  1.0000
  C   C252      1.0  0.16358  0.44938  0.90144  1.0000
  N   N19       1.0  0.28650  0.40333  0.91807  1.0000
  C   C253      1.0  0.28378  0.33715  0.81625  1.0000
  H   H410      1.0  0.15058  0.44603  0.91065  1.0000
  H   H411      1.0  0.26815  0.39527  0.94497  1.0000
  C   C254      1.0  0.32871  0.48432  0.68351  1.0000
  H   H412      1.0  0.31186  0.45820  0.73850  1.0000
  H   H413      1.0  0.29773  0.33268  0.82206  1.0000
  N   N20       1.0  0.08172  0.36499  0.82765  1.0000
  C   C255      1.0  0.08063  0.38116  0.81131  1.0000
  C   C256      1.0  0.10186  0.36218  0.83325  1.0000
  C   C257      1.0  0.07065  0.37052  0.84786  1.0000
  C   C258      1.0  0.07400  0.34826  0.81762  1.0000
  C   C259      1.0  0.06103  0.38835  0.80480  1.0000
  C   C260      1.0  0.11522  0.35574  0.81458  1.0000
  C   C261      1.0  0.06846  0.35542  0.86601  1.0000
  C   C262      1.0  0.07930  0.32885  0.82795  1.0000
  H   H414      1.0  0.08773  0.39328  0.81731  1.0000
  H   H415      1.0  0.08813  0.37756  0.79582  1.0000
  H   H416      1.0  0.10395  0.35233  0.84716  1.0000
  H   H417      1.0  0.10714  0.37530  0.83916  1.0000
  H   H418      1.0  0.07680  0.38269  0.85516  1.0000
  H   H419      1.0  0.05619  0.37505  0.84401  1.0000
  H   H420      1.0  0.05857  0.34967  0.81774  1.0000
  H   H421      1.0  0.07835  0.34771  0.80008  1.0000
  H   H422      1.0  0.05228  0.37710  0.79985  1.0000
  H   H423      1.0  0.05384  0.39639  0.81791  1.0000
  H   H424      1.0  0.06236  0.39828  0.79065  1.0000
  H   H425      1.0  0.11686  0.36674  0.80171  1.0000
  H   H426      1.0  0.12921  0.35274  0.82122  1.0000
  H   H427      1.0  0.11100  0.34278  0.80739  1.0000
  H   H428      1.0  0.06184  0.36194  0.88062  1.0000
  H   H429      1.0  0.08179  0.34884  0.87125  1.0000
  H   H430      1.0  0.05911  0.34462  0.86118  1.0000
  H   H431      1.0  0.06654  0.32154  0.83292  1.0000
  H   H432      1.0  0.08790  0.32883  0.84244  1.0000
  H   H433      1.0  0.08693  0.32005  0.81579  1.0000
  H   H434      1.0  0.17517  0.48149  0.86919  1.0000
  H   H435      1.0  0.30232  0.44723  0.90680  1.0000
  H   H436      1.0  0.31491  0.39209  0.91871  1.0000
  C   C263      1.0  0.29495  0.38023  0.88749  1.0000
  H   H437      1.0  0.17465  0.45909  0.84321  1.0000
  H   H438      1.0  0.16477  0.46458  0.89988  1.0000
  H   H439      1.0  0.15022  0.48397  0.87296  1.0000
  C   C264      1.0  0.32643  0.48136  0.72381  1.0000
  H   H440      1.0  0.26835  0.39310  0.89408  1.0000
  C   C265      1.0  0.08674  0.26541  0.79251  1.0000
  C   C266      1.0  0.14051  0.38117  0.99396  1.0000
  C   C267      1.0  0.11900  0.46117  0.85546  1.0000
  C   C268      1.0  0.16811  0.42293  0.83588  1.0000
  H   H441      1.0  0.28639  0.50021  0.71775  1.0000
  H   H442      1.0  0.31611  0.47634  0.68190  1.0000
  H   H443      1.0  0.06753  0.26953  0.76710  1.0000
  C   C269      1.0  0.16025  0.46291  0.84901  1.0000
  H   H444      1.0  0.28188  0.42126  0.88969  1.0000
  H   H445      1.0  0.13337  0.46138  0.88501  1.0000
  H   H446      1.0  0.03721  0.28909  0.81392  1.0000
  C   C270      1.0  0.29145  0.41984  0.90356  1.0000
  H   H447      1.0  0.30124  0.41271  0.95970  1.0000
  H   H448      1.0  0.30560  0.41757  0.89606  1.0000
  H   H449      1.0  0.16234  0.42494  0.88360  1.0000
  H   H450      1.0  0.30489  0.37748  0.77424  1.0000
  H   H451      1.0  0.17497  0.43302  0.82464  1.0000
  H   H452      1.0  0.25356  0.35551  0.77455  1.0000
  H   H453      1.0  0.29872  0.47044  0.71826  1.0000
  H   H454      1.0  0.12340  0.47502  0.84948  1.0000
  H   H455      1.0  0.32025  0.34990  0.78940  1.0000
  H   H456      1.0  0.05062  0.31479  0.79315  1.0000
  H   H457      1.0  0.03844  0.27723  0.75400  1.0000
  H   H458      1.0  0.11651  0.45250  0.84147  1.0000
  C   C271      1.0  0.16489  0.43973  0.87941  1.0000
  C   C272      1.0  0.31134  0.40841  0.94667  1.0000
  H   H459      1.0  0.17803  0.41735  0.84810  1.0000
  H   H460      1.0  0.27016  0.38587  0.77950  1.0000
  H   H461      1.0  0.31755  0.42065  0.93841  1.0000
  C   C273      1.0  0.05081  0.30091  0.78580  1.0000
  H   H462      1.0  0.25368  0.42453  0.91076  1.0000
  H   H463      1.0  0.27074  0.36126  0.80122  1.0000
  H   H464      1.0  0.00519  0.48023  0.63758  1.0000
  H   H465      1.0  0.28841  0.47002  0.78398  1.0000
  H   H466      1.0  0.24505  0.40183  0.91778  1.0000
  H   H467      1.0  0.14299  0.41952  0.85500  1.0000
  C   C274      1.0  0.14997  0.43126  0.84641  1.0000
  C   C275      1.0  0.03327  0.26190  0.78557  1.0000
  C   C276      1.0  0.27700  0.38236  0.76366  1.0000
  H   H468      1.0  0.15277  0.46603  0.83365  1.0000
  H   H469      1.0  0.06170  0.28813  0.81521  1.0000
  H   H470      1.0  0.06970  0.48441  0.69583  1.0000
  C   C277      1.0  0.03364  0.26373  0.76045  1.0000
  C   C278      1.0  0.12318  0.37537  0.98781  1.0000
  N   N21       1.0  0.15205  0.44691  0.86179  1.0000
  H   H471      1.0  0.03276  0.47019  0.65773  1.0000
  C   C279      1.0  0.28032  0.38812  0.90399  1.0000
  H   H472      1.0  0.12659  0.43914  0.87871  1.0000
  H   H473      1.0  0.02040  0.47169  0.68325  1.0000
  C   C280      1.0  0.29077  0.43911  0.91402  1.0000
  H   H474      1.0  0.14097  0.43565  0.83269  1.0000
  H   H475      1.0  0.16468  0.41100  0.82601  1.0000
  C   C281      1.0  0.27075  0.40767  0.93413  1.0000
  H   H476      1.0  0.25154  0.33871  0.75445  1.0000
  H   H477      1.0  0.29349  0.36447  0.80871  1.0000
  N   N22       1.0  0.29202  0.35102  0.77799  1.0000
  C   C282      1.0  0.31110  0.34156  0.77963  1.0000
  C   C283      1.0  0.28478  0.35445  0.80087  1.0000
  C   C284      1.0  0.29445  0.36944  0.76607  1.0000
  C   C285      1.0  0.27983  0.33880  0.76572  1.0000
  C   C286      1.0  0.28699  0.49747  0.76841  1.0000
  H   H478      1.0  0.31337  0.32945  0.74687  1.0000
  C   C287      1.0  0.30317  0.39567  0.93020  1.0000
  C   C288      1.0  0.25858  0.34149  0.76973  1.0000
  H   H479      1.0  0.16078  0.49307  0.84899  1.0000
  N   N23       1.0  0.32829  0.49470  0.70442  1.0000
  H   H480      1.0  0.08801  0.28023  0.79621  1.0000
  H   H481      1.0  0.12190  0.26579  0.82698  1.0000
  C   C289      1.0  0.13295  0.45180  0.87135  1.0000
  H   H482      1.0  0.30001  0.36746  0.74920  1.0000
  H   H483      1.0  0.28274  0.34043  0.74785  1.0000
  H   H484      1.0  0.28325  0.32392  0.77004  1.0000
  H   H485      1.0  0.09796  0.26184  0.78034  1.0000
  Fe  Fe41      1.0  0.32892  0.40854  0.85129  1.0000
  S   S80       1.0  0.32534  0.46610  0.80311  1.0000
  H   H486      1.0  0.28123  0.39576  0.75599  1.0000
  H   H487      1.0  0.32219  0.48902  0.73869  1.0000
  H   H488      1.0  0.10536  0.46330  0.86418  1.0000
  H   H489      1.0  0.31036  0.32783  0.78836  1.0000
  H   H490      1.0  0.28807  0.37132  0.87607  1.0000
  H   H491      1.0  0.01937  0.26225  0.75466  1.0000
  C   C290      1.0  0.05015  0.28590  0.80415  1.0000
  H   H492      1.0  0.32296  0.40064  0.95485  1.0000
  H   H493      1.0  0.30147  0.39137  0.87755  1.0000
  H   H494      1.0  0.32607  0.35041  0.74929  1.0000
  H   H495      1.0  0.17517  0.44381  0.91157  1.0000
  H   H496      1.0  0.06368  0.29961  0.77550  1.0000
  H   H497      1.0  0.30583  0.37136  0.89557  1.0000
  C   C291      1.0  0.02210  0.47877  0.66693  1.0000
  H   H498      1.0  0.27743  0.32541  0.80857  1.0000
  Fe  Fe42      1.0  0.33066  0.39618  0.80333  1.0000
  H   H499      1.0  0.03846  0.30080  0.77562  1.0000
  C   C292      1.0  0.06784  0.26160  0.78286  1.0000
  N   N24       1.0  0.02861  0.49823  0.66919  1.0000
  H   H500      1.0  0.29190  0.49312  0.69020  1.0000
  H   H501      1.0  0.27299  0.49622  0.76306  1.0000
  H   H502      1.0  0.03348  0.26816  0.84108  1.0000
  H   H503      1.0  0.05294  0.46837  0.68868  1.0000
  H   H504      1.0  0.31823  0.45503  0.71056  1.0000
  H   H505      1.0  0.06403  0.25676  0.82695  1.0000
  H   H506      1.0  0.08968  0.25662  0.80720  1.0000
  H   H507      1.0  0.05755  0.49256  0.65945  1.0000
  C   C293      1.0  0.04905  0.49676  0.67411  1.0000
  H   H508      1.0  0.04713  0.48616  0.70818  1.0000
  H   H509      1.0  0.01882  0.49846  0.70279  1.0000
  H   H510      1.0  0.09640  0.36723  0.00031  1.0000
  H   H511      1.0  0.33004  0.48733  0.64814  1.0000
  C   C294      1.0  0.33063  0.49636  0.66237  1.0000
  C   C295      1.0  0.00378  0.47665  0.65524  1.0000
  C   C296      1.0  0.03506  0.25453  0.83325  1.0000
  C   C297      1.0  0.32287  0.50065  0.78273  1.0000
  C   C298      1.0  0.05200  0.25357  0.81720  1.0000
  H   H512      1.0  0.04244  0.25230  0.75323  1.0000
  H   H513      1.0  0.02196  0.25128  0.82560  1.0000
  S   S81       1.0  0.09777  0.73529  0.32849  1.0000
  Fe  Fe43      1.0  0.28470  0.57274  0.33179  1.0000
  S   S82       1.0  0.30193  0.55094  0.35010  1.0000
  S   S83       1.0  0.25318  0.56892  0.33573  1.0000
  Fe  Fe44      1.0  0.32017  0.58843  0.30811  1.0000
  C   C299      1.0  0.06291  0.67448  0.46065  1.0000
  Fe  Fe45      1.0  0.31787  0.54655  0.31842  1.0000
  H   H514      1.0  0.05392  0.67583  0.44631  1.0000
  Fe  Fe46      1.0  0.32136  0.57361  0.35555  1.0000
  H   H515      1.0  0.28355  0.59035  0.44034  1.0000
  S   S84       1.0  0.29975  0.56692  0.29969  1.0000
  S   S85       1.0  0.30338  0.59596  0.33869  1.0000
  Fe  Fe47      1.0  0.12229  0.60244  0.42838  1.0000
  S   S86       1.0  0.13989  0.62558  0.41608  1.0000
  S   S87       1.0  0.11558  0.59731  0.46568  1.0000
  Fe  Fe48      1.0  0.11242  0.59310  0.38043  1.0000
  S   S88       1.0  0.12962  0.61671  0.36631  1.0000
  S   S89       1.0  0.09804  0.57551  0.35472  1.0000
  Fe  Fe49      1.0  0.15151  0.60666  0.38993  1.0000
  S   S90       1.0  0.18295  0.61057  0.38342  1.0000
  Fe  Fe50      1.0  0.11707  0.63416  0.39325  1.0000
  S   S91       1.0  0.10831  0.66531  0.39552  1.0000
  S   S92       1.0  0.13510  0.58249  0.40338  1.0000
  S   S93       1.0  0.09870  0.61147  0.40619  1.0000
  C   C300      1.0  0.06467  0.70834  0.29917  1.0000
  C   C301      1.0  0.00705  0.58862  0.28942  1.0000
  S   S94       1.0  0.03791  0.51998  0.31858  1.0000
  C   C302      1.0  0.08126  0.55988  0.34502  1.0000
  C   C303      1.0  0.08202  0.55480  0.32297  1.0000
  C   C304      1.0  0.06921  0.54258  0.31469  1.0000
  C   C305      1.0  0.05515  0.53511  0.32825  1.0000
  C   C306      1.0  0.05436  0.54024  0.35025  1.0000
  C   C307      1.0  0.06719  0.55242  0.35854  1.0000
  H   H516      1.0  0.09275  0.56028  0.31221  1.0000
  H   H517      1.0  0.07031  0.53887  0.29779  1.0000
  H   H518      1.0  0.04370  0.53470  0.36109  1.0000
  H   H519      1.0  0.06621  0.55598  0.37550  1.0000
  C   C308      1.0  0.23371  0.58122  0.34831  1.0000
  C   C309      1.0  0.23524  0.59822  0.35830  1.0000
  C   C310      1.0  0.21959  0.60691  0.36889  1.0000
  C   C311      1.0  0.20210  0.59889  0.36952  1.0000
  C   C312      1.0  0.20053  0.58201  0.35928  1.0000
  C   C313      1.0  0.21619  0.57328  0.34878  1.0000
  H   H520      1.0  0.24848  0.60469  0.35791  1.0000
  H   H521      1.0  0.22103  0.61999  0.37664  1.0000
  H   H522      1.0  0.18722  0.57565  0.35950  1.0000
  H   H523      1.0  0.21465  0.56026  0.34099  1.0000
  H   H524      1.0  0.29574  0.52943  0.42451  1.0000
  H   H525      1.0  0.12888  0.67075  0.46831  1.0000
  C   C314      1.0  0.30815  0.51117  0.27049  1.0000
  H   H526      1.0  0.14546  0.71912  0.35022  1.0000
  H   H527      1.0  0.27079  0.60485  0.41096  1.0000
  C   C315      1.0  0.26031  0.53270  0.27716  1.0000
  H   H528      1.0  0.06724  0.61462  0.46677  1.0000
  C   C316      1.0  0.04409  0.57224  0.26789  1.0000
  H   H529      1.0  0.30371  0.52566  0.27066  1.0000
  C   C317      1.0  0.10032  0.71609  0.34761  1.0000
  C   C318      1.0  0.10294  0.69798  0.33969  1.0000
  C   C319      1.0  0.10521  0.68230  0.35398  1.0000
  C   C320      1.0  0.10485  0.68445  0.37653  1.0000
  C   C321      1.0  0.10215  0.70254  0.38447  1.0000
  C   C322      1.0  0.09994  0.71823  0.37016  1.0000
  H   H530      1.0  0.10340  0.69607  0.32232  1.0000
  H   H531      1.0  0.10712  0.66854  0.34754  1.0000
  H   H532      1.0  0.10185  0.70448  0.40185  1.0000
  H   H533      1.0  0.09795  0.73199  0.37660  1.0000
  H   H534      1.0  0.07519  0.69664  0.30045  1.0000
  H   H535      1.0  0.27246  0.54072  0.39032  1.0000
  C   C323      1.0  0.15551  0.69304  0.36525  1.0000
  H   H536      1.0  0.06451  0.71536  0.31496  1.0000
  H   H537      1.0  0.16453  0.70875  0.33528  1.0000
  H   H538      1.0  0.05564  0.66535  0.47261  1.0000
  H   H539      1.0  0.06366  0.74887  0.30485  1.0000
  N   N25       1.0  0.05668  0.73708  0.27425  1.0000
  H   H540      1.0  0.08395  0.72723  0.28460  1.0000
  H   H541      1.0  0.14182  0.66296  0.34638  1.0000
  N   N26       1.0  0.09263  0.65482  0.47015  1.0000
  C   C324      1.0  0.31954  0.50365  0.28682  1.0000
  H   H542      1.0  0.23861  0.53388  0.39626  1.0000
  H   H543      1.0  0.09090  0.62789  0.48675  1.0000
  H   H544      1.0  0.32529  0.54411  0.23446  1.0000
  H   H545      1.0  0.32269  0.67417  0.27379  1.0000
  H   H546      1.0  0.16428  0.63527  0.35089  1.0000
  H   H547      1.0  0.20711  0.67843  0.33356  1.0000
  H   H548      1.0  0.16319  0.66004  0.41728  1.0000
  H   H549      1.0  0.15896  0.64036  0.32328  1.0000
  C   C325      1.0  0.12138  0.60174  0.49347  1.0000
  H   H550      1.0  0.03509  0.54890  0.28693  1.0000
  C   C326      1.0  0.12499  0.66301  0.45403  1.0000
  C   C327      1.0  0.18583  0.67569  0.35930  1.0000
  C   C328      1.0  0.19339  0.68510  0.33810  1.0000
  H   H551      1.0  0.19115  0.68366  0.37275  1.0000
  H   H552      1.0  0.17951  0.67526  0.40497  1.0000
  H   H553      1.0  0.31586  0.73218  0.24886  1.0000
  H   H554      1.0  0.12003  0.67281  0.44099  1.0000
  C   C329      1.0  0.03455  0.74279  0.30815  1.0000
  H   H555      1.0  0.08415  0.62261  0.44739  1.0000
  H   H556      1.0  0.32175  0.69938  0.24747  1.0000
  H   H557      1.0  0.04193  0.56519  0.25247  1.0000
  C   C330      1.0  0.04007  0.72918  0.26432  1.0000
  H   H558      1.0  0.15751  0.67342  0.32785  1.0000
  C   C331      1.0  0.02621  0.74364  0.25410  1.0000
  H   H559      1.0  0.01173  0.73934  0.25717  1.0000
  H   H560      1.0  0.01703  0.58334  0.24206  1.0000
  H   H561      1.0  0.10856  0.64072  0.44469  1.0000
  H   H562      1.0  0.27088  0.52981  0.32979  1.0000
  H   H563      1.0  0.16342  0.70130  0.37644  1.0000
  H   H564      1.0  0.01329  0.59760  0.27639  1.0000
  H   H565      1.0  0.26248  0.59189  0.45599  1.0000
  C   C332      1.0  0.24849  0.52577  0.29692  1.0000
  C   C333      1.0  0.32405  0.55640  0.24482  1.0000
  H   H566      1.0  0.03224  0.72034  0.27618  1.0000
  H   H567      1.0  0.26419  0.52160  0.26562  1.0000
  H   H568      1.0  0.14652  0.65825  0.38296  1.0000
  C   C334      1.0  0.08188  0.63813  0.47758  1.0000
  C   C335      1.0  0.29294  0.55923  0.41547  1.0000
  H   H569      1.0  0.22918  0.50207  0.31973  1.0000
  H   H570      1.0  0.29375  0.50584  0.24123  1.0000
  C   C336      1.0  0.24378  0.54797  0.39828  1.0000
  H   H571      1.0  0.09035  0.67902  0.44841  1.0000
  C   C337      1.0  0.16597  0.64572  0.33745  1.0000
  C   C338      1.0  0.33320  0.69978  0.25914  1.0000
  H   H572      1.0  0.27627  0.57312  0.37869  1.0000
  H   H573      1.0  0.04448  0.71923  0.25149  1.0000
  H   H574      1.0  0.07371  0.71256  0.26610  1.0000
  H   H575      1.0  0.16963  0.64888  0.38166  1.0000
  H   H576      1.0  0.28916  0.54403  0.44719  1.0000
  H   H577      1.0  0.19320  0.66181  0.36124  1.0000
  H   H578      1.0  0.24530  0.53813  0.30697  1.0000
  C   C339      1.0  0.07343  0.62731  0.45947  1.0000
  H   H579      1.0  0.25852  0.55711  0.44304  1.0000
  H   H580      1.0  0.25070  0.51789  0.35690  1.0000
  H   H581      1.0  0.18089  0.64657  0.33278  1.0000
  H   H582      1.0  0.23468  0.55481  0.41080  1.0000
  C   C340      1.0  0.27024  0.57833  0.39437  1.0000
  H   H583      1.0  0.26506  0.53497  0.41752  1.0000
  H   H584      1.0  0.14165  0.69141  0.37342  1.0000
  H   H585      1.0  0.06151  0.73607  0.22718  1.0000
  H   H586      1.0  0.06221  0.63553  0.45118  1.0000
  C   C341      1.0  0.05161  0.74847  0.29403  1.0000
  H   H587      1.0  0.23485  0.52206  0.29079  1.0000
  H   H588      1.0  0.19533  0.70010  0.34043  1.0000
  C   C342      1.0  0.15181  0.70559  0.34489  1.0000
  H   H589      1.0  0.10175  0.67975  0.48466  1.0000
  H   H590      1.0  0.24222  0.55547  0.38237  1.0000
  H   H591      1.0  0.25530  0.58159  0.39157  1.0000
  H   H592      1.0  0.32301  0.56933  0.23456  1.0000
  N   N27       1.0  0.27254  0.56368  0.41231  1.0000
  H   H593      1.0  0.15509  0.68249  0.40782  1.0000
  H   H594      1.0  0.31061  0.55567  0.25406  1.0000
  C   C343      1.0  0.27268  0.58193  0.44824  1.0000
  S   S95       1.0  0.02954  0.50811  0.25445  1.0000
  H   H595      1.0  0.18478  0.68360  0.32383  1.0000
  H   H596      1.0  0.30026  0.57134  0.42082  1.0000
  H   H597      1.0  0.13798  0.65606  0.44761  1.0000
  H   H598      1.0  0.32761  0.73637  0.22269  1.0000
  C   C344      1.0  0.08236  0.66666  0.45341  1.0000
  C   C345      1.0  0.27399  0.51675  0.32095  1.0000
  C   C346      1.0  0.26432  0.54621  0.40467  1.0000
  H   H599      1.0  0.29356  0.59619  0.40085  1.0000
  C   C347      1.0  0.11087  0.64802  0.45995  1.0000
  S   S96       1.0  0.32720  0.51729  0.30812  1.0000
  H   H600      1.0  0.27868  0.57342  0.46190  1.0000
  H   H601      1.0  0.06383  0.68836  0.46777  1.0000
  N   N28       1.0  0.25706  0.51001  0.31053  1.0000
  H   H602      1.0  0.27691  0.60599  0.38274  1.0000
  C   C348      1.0  0.27850  0.59725  0.39786  1.0000
  H   H603      1.0  0.31236  0.54335  0.43606  1.0000
  H   H604      1.0  0.14154  0.69975  0.33432  1.0000
  C   C349      1.0  0.26229  0.56960  0.43295  1.0000
  C   C350      1.0  0.29754  0.54308  0.43181  1.0000
  H   H605      1.0  0.30002  0.55570  0.39965  1.0000
  C   C351      1.0  0.16510  0.67077  0.40410  1.0000
  H   H606      1.0  0.14610  0.61655  0.48587  1.0000
  H   H607      1.0  0.25205  0.54357  0.26802  1.0000
  H   H608      1.0  0.24888  0.57707  0.42905  1.0000
  N   N29       1.0  0.16509  0.67420  0.36191  1.0000
  C   C352      1.0  0.16127  0.66221  0.38208  1.0000
  C   C353      1.0  0.15692  0.66484  0.34310  1.0000
  H   H609      1.0  0.01390  0.59305  0.30422  1.0000
  H   H610      1.0  0.28450  0.52092  0.30832  1.0000
  C   C354      1.0  0.07049  0.72154  0.28021  1.0000
  H   H611      1.0  0.05892  0.56947  0.27173  1.0000
  H   H612      1.0  0.08132  0.65935  0.43783  1.0000
  H   H613      1.0  0.04192  0.58750  0.26579  1.0000
  H   H614      1.0  0.29155  0.50990  0.34858  1.0000
  C   C355      1.0  0.09552  0.66636  0.48963  1.0000
  H   H615      1.0  0.27290  0.53939  0.28227  1.0000
  C   C356      1.0  0.03200  0.56418  0.28665  1.0000
  N   N30       1.0  0.01134  0.56833  0.28575  1.0000
  C   C357      1.0  0.23864  0.51724  0.34629  1.0000
  H   H616      1.0  0.11797  0.63743  0.47066  1.0000
  H   H617      1.0  0.07047  0.64191  0.48946  1.0000
  H   H618      1.0  0.23441  0.53144  0.34040  1.0000
  H   H619      1.0  0.03759  0.56933  0.30185  1.0000
  H   H620      1.0  0.02147  0.74589  0.29949  1.0000
  H   H621      1.0  0.08194  0.67047  0.49764  1.0000
  H   H622      1.0  0.03515  0.72803  0.31360  1.0000
  H   H623      1.0  0.02886  0.74533  0.23626  1.0000
  H   H624      1.0  0.05117  0.70217  0.29666  1.0000
  C   C358      1.0  0.32825  0.73800  0.24051  1.0000
  H   H625      1.0  0.02186  0.55876  0.33026  1.0000
  H   H626      1.0  0.08412  0.73045  0.23851  1.0000
  H   H627      1.0  0.01210  0.54932  0.25901  1.0000
  C   C359      1.0  0.07303  0.74143  0.23624  1.0000
  Fe  Fe51      1.0  0.02468  0.50383  0.29077  1.0000
  H   H628      1.0  0.22694  0.51204  0.35665  1.0000
  S   S97       1.0  0.33048  0.60709  0.27913  1.0000
  H   H629      1.0  0.32744  0.70807  0.27301  1.0000
  C   C360      1.0  0.00687  0.56073  0.32718  1.0000
  C   C361      1.0  0.00383  0.57641  0.24513  1.0000
  C   C362      1.0  0.13685  0.61161  0.49878  1.0000
  S   S98       1.0  0.33142  0.58061  0.38906  1.0000
  C   C363      1.0  0.00420  0.56210  0.26444  1.0000
  H   H630      1.0  0.00086  0.56913  0.23006  1.0000
  H   H631      1.0  0.00186  0.57483  0.33187  1.0000
  C   C364      1.0  0.00224  0.55658  0.30354  1.0000
  H   H632      1.0  0.00593  0.54158  0.30112  1.0000
  C   C365      1.0  0.28437  0.50247  0.33602  1.0000
  C   C366      1.0  0.24271  0.50393  0.32739  1.0000
  H   H633      1.0  0.12186  0.65335  0.50167  1.0000
  C   C367      1.0  0.06634  0.74990  0.25801  1.0000
  S   S99       1.0  0.09930  0.73561  0.71331  1.0000
  Fe  Fe52      1.0  0.29665  0.55641  0.72835  1.0000
  S   S100      1.0  0.29031  0.58708  0.73337  1.0000
  S   S101      1.0  0.28449  0.53237  0.74867  1.0000
  C   C368      1.0  0.05024  0.74075  0.71878  1.0000
  S   S102      1.0  0.31381  0.59470  0.68729  1.0000
  N   N31       1.0  0.18660  0.57763  0.59477  1.0000
  Fe  Fe53      1.0  0.32041  0.59128  0.72300  1.0000
  Fe  Fe54      1.0  0.28402  0.58841  0.69737  1.0000
  S   S103      1.0  0.26006  0.60559  0.68105  1.0000
  H   H634      1.0  0.17952  0.69524  0.65514  1.0000
  S   S104      1.0  0.28882  0.55770  0.69310  1.0000
  Fe  Fe55      1.0  0.12346  0.63891  0.64293  1.0000
  S   S105      1.0  0.14810  0.62755  0.62302  1.0000
  S   S106      1.0  0.12493  0.67054  0.64783  1.0000
  Fe  Fe56      1.0  0.10643  0.60001  0.64702  1.0000
  S   S107      1.0  0.13017  0.58675  0.62703  1.0000
  S   S108      1.0  0.08007  0.58539  0.66085  1.0000
  Fe  Fe57      1.0  0.14891  0.60346  0.64702  1.0000
  S   S109      1.0  0.17493  0.58962  0.66277  1.0000
  Fe  Fe58      1.0  0.12788  0.61195  0.60379  1.0000
  S   S110      1.0  0.13431  0.61345  0.56602  1.0000
  S   S111      1.0  0.12529  0.61539  0.66810  1.0000
  S   S112      1.0  0.10314  0.62455  0.62265  1.0000
  H   H635      1.0  0.03028  0.53643  0.63223  1.0000
  S   S113      1.0  0.05028  0.52165  0.72888  1.0000
  C   C369      1.0  0.07163  0.71926  0.76320  1.0000
  C   C370      1.0  0.07227  0.56770  0.68019  1.0000
  C   C371      1.0  0.08442  0.55503  0.69100  1.0000
  C   C372      1.0  0.07746  0.54120  0.70574  1.0000
  C   C373      1.0  0.05824  0.53981  0.71027  1.0000
  C   C374      1.0  0.04610  0.55255  0.69955  1.0000
  C   C375      1.0  0.05304  0.56619  0.68459  1.0000
  H   H636      1.0  0.09921  0.55582  0.68795  1.0000
  H   H637      1.0  0.08711  0.53156  0.71381  1.0000
  H   H638      1.0  0.03132  0.55201  0.70285  1.0000
  H   H639      1.0  0.04341  0.57584  0.67650  1.0000
  C   C376      1.0  0.12881  0.60875  0.53823  1.0000
  C   C377      1.0  0.11331  0.59895  0.53291  1.0000
  Fe  Fe59      1.0  0.31864  0.56376  0.68540  1.0000
  H   H640      1.0  0.28499  0.51629  0.69487  1.0000
  H   H641      1.0  0.20767  0.54699  0.61775  1.0000
  C   C378      1.0  0.14050  0.61503  0.52085  1.0000
  H   H642      1.0  0.10409  0.59394  0.54582  1.0000
  N   N32       1.0  0.17638  0.65596  0.69051  1.0000
  H   H643      1.0  0.10843  0.66644  0.52115  1.0000
  H   H644      1.0  0.15253  0.62262  0.52448  1.0000
  C   C379      1.0  0.23657  0.60056  0.67566  1.0000
  C   C380      1.0  0.22809  0.58477  0.68441  1.0000
  C   C381      1.0  0.20931  0.58175  0.68027  1.0000
  C   C382      1.0  0.19864  0.59438  0.66729  1.0000
  C   C383      1.0  0.20719  0.61002  0.65819  1.0000
  C   C384      1.0  0.22595  0.61311  0.66246  1.0000
  H   H645      1.0  0.23595  0.57496  0.69460  1.0000
  H   H646      1.0  0.20298  0.56954  0.68734  1.0000
  H   H647      1.0  0.19939  0.61978  0.64792  1.0000
  H   H648      1.0  0.23233  0.62533  0.65550  1.0000
  H   H649      1.0  0.15529  0.61334  0.70153  1.0000
  H   H650      1.0  0.32137  0.52817  0.76739  1.0000
  H   H651      1.0  0.18250  0.61839  0.58438  1.0000
  H   H652      1.0  0.01358  0.71835  0.78057  1.0000
  H   H653      1.0  0.14242  0.67170  0.72680  1.0000
  C   C385      1.0  0.10651  0.71782  0.69467  1.0000
  C   C386      1.0  0.11804  0.72115  0.67629  1.0000
  C   C387      1.0  0.12337  0.70656  0.66220  1.0000
  C   C388      1.0  0.11737  0.68838  0.66621  1.0000
  C   C389      1.0  0.10596  0.68501  0.68467  1.0000
  C   C390      1.0  0.10063  0.69960  0.69876  1.0000
  H   H654      1.0  0.12313  0.73487  0.67309  1.0000
  H   H655      1.0  0.13231  0.70938  0.64811  1.0000
  H   H656      1.0  0.10122  0.67116  0.68810  1.0000
  H   H657      1.0  0.09182  0.69672  0.71293  1.0000
  C   C391      1.0  0.01846  0.50765  0.68792  1.0000
  H   H658      1.0  0.14036  0.66533  0.69922  1.0000
  H   H659      1.0  0.32549  0.63753  0.75820  1.0000
  H   H660      1.0  0.14679  0.63398  0.71446  1.0000
  C   C392      1.0  0.31424  0.51546  0.77069  1.0000
  H   H661      1.0  0.03443  0.74440  0.79398  1.0000
  C   C393      1.0  0.29619  0.51398  0.76352  1.0000
  C   C394      1.0  0.19697  0.65148  0.69178  1.0000
  H   H662      1.0  0.15875  0.59010  0.59298  1.0000
  C   C395      1.0  0.05015  0.72115  0.76476  1.0000
  H   H663      1.0  0.17804  0.67750  0.71378  1.0000
  H   H664      1.0  0.04564  0.71597  0.78128  1.0000
  H   H665      1.0  0.15187  0.55844  0.58455  1.0000
  H   H666      1.0  0.16996  0.56862  0.62277  1.0000
  S   S114      1.0  0.32669  0.56042  0.72034  1.0000
  H   H667      1.0  0.07659  0.70923  0.77607  1.0000
  H   H668      1.0  0.02575  0.52002  0.69280  1.0000
  S   S115      1.0  0.02147  0.50691  0.78428  1.0000
  H   H669      1.0  0.06809  0.74729  0.79382  1.0000
  H   H670      1.0  0.32515  0.57597  0.63184  1.0000
  H   H671      1.0  0.20046  0.57783  0.56305  1.0000
  H   H672      1.0  0.04528  0.71093  0.75325  1.0000
  H   H673      1.0  0.19803  0.63879  0.72496  1.0000
  H   H674      1.0  0.16943  0.55762  0.56256  1.0000
  C   C396      1.0  0.15934  0.62715  0.70676  1.0000
  C   C397      1.0  0.31321  0.50987  0.70500  1.0000
  Fe  Fe60      1.0  0.02610  0.50667  0.74750  1.0000
  C   C398      1.0  0.29314  0.50423  0.70189  1.0000
  C   C399      1.0  0.20303  0.63591  0.70812  1.0000
  H   H675      1.0  0.15859  0.67213  0.66842  1.0000
  C   C400      1.0  0.20139  0.57011  0.57903  1.0000
  C   C401      1.0  0.19572  0.61181  0.59027  1.0000
  H   H676      1.0  0.09766  0.58787  0.50724  1.0000
  H   H677      1.0  0.07899  0.73214  0.76522  1.0000
  H   H678      1.0  0.04788  0.53044  0.65113  1.0000
  H   H679      1.0  0.15352  0.64183  0.67696  1.0000
  C   C402      1.0  0.15964  0.56674  0.57205  1.0000
  C   C403      1.0  0.16937  0.66554  0.71077  1.0000
  H   H680      1.0  0.07635  0.71310  0.74753  1.0000
  H   H681      1.0  0.02471  0.53767  0.66065  1.0000
  H   H682      1.0  0.20296  0.64745  0.67557  1.0000
  H   H683      1.0  0.17821  0.66131  0.65560  1.0000
  H   H684      1.0  0.20447  0.59248  0.61557  1.0000
  H   H685      1.0  0.20395  0.56679  0.63522  1.0000
  H   H686      1.0  0.22840  0.58318  0.57731  1.0000
  C   C404      1.0  0.10969  0.59549  0.51085  1.0000
  C   C405      1.0  0.16931  0.58281  0.58233  1.0000
  H   H687      1.0  0.14815  0.68804  0.70568  1.0000
  N   N33       1.0  0.04126  0.74013  0.75977  1.0000
  H   H688      1.0  0.17098  0.65630  0.72546  1.0000
  C   C406      1.0  0.18323  0.68728  0.67030  1.0000
  H   H689      1.0  0.18095  0.59950  0.61758  1.0000
  H   H690      1.0  0.17478  0.62910  0.67598  1.0000
  H   H691      1.0  0.19868  0.62215  0.70318  1.0000
  H   H692      1.0  0.31913  0.50704  0.66087  1.0000
  C   C407      1.0  0.19205  0.59493  0.60565  1.0000
  C   C408      1.0  0.10746  0.65681  0.50755  1.0000
  C   C409      1.0  0.14894  0.67297  0.71021  1.0000
  C   C410      1.0  0.18157  0.56317  0.61202  1.0000
  H   H693      1.0  0.19857  0.68535  0.66989  1.0000
  H   H694      1.0  0.17232  0.59287  0.56865  1.0000
  H   H695      1.0  0.17644  0.55061  0.60462  1.0000
  H   H696      1.0  0.20496  0.60816  0.57617  1.0000
  H   H697      1.0  0.19110  0.54662  0.63990  1.0000
  C   C411      1.0  0.19720  0.55571  0.62683  1.0000
  H   H698      1.0  0.14913  0.57268  0.56063  1.0000
  H   H699      1.0  0.16987  0.62452  0.71923  1.0000
  H   H700      1.0  0.19896  0.55536  0.57560  1.0000
  H   H701      1.0  0.31291  0.51679  0.72083  1.0000
  H   H702      1.0  0.20251  0.62250  0.59943  1.0000
  C   C412      1.0  0.17355  0.66863  0.67068  1.0000
  H   H703      1.0  0.22406  0.57148  0.60332  1.0000
  H   H704      1.0  0.21845  0.63486  0.70822  1.0000
  H   H705      1.0  0.22986  0.55866  0.57975  1.0000
  C   C413      1.0  0.08941  0.73441  0.62139  1.0000
  C   C414      1.0  0.22184  0.57113  0.58566  1.0000
  C   C415      1.0  0.16618  0.63856  0.68654  1.0000
  H   H706      1.0  0.17844  0.69607  0.68402  1.0000
  H   H707      1.0  0.20438  0.66393  0.69627  1.0000
  C   C416      1.0  0.03284  0.52953  0.64834  1.0000
  H   H708      1.0  0.08777  0.73551  0.63929  1.0000
  H   H709      1.0  0.09931  0.72242  0.61838  1.0000
  H   H710      1.0  0.07604  0.73088  0.61458  1.0000
  H   H711      1.0  0.05410  0.51047  0.67853  1.0000
  H   H712      1.0  0.01256  0.50983  0.64206  1.0000
  H   H713      1.0  0.05967  0.74780  0.70685  1.0000
  C   C417      1.0  0.05086  0.75014  0.74091  1.0000
  H   H714      1.0  0.02076  0.72777  0.74022  1.0000
  H   H715      1.0  0.31617  0.52148  0.69318  1.0000
  C   C418      1.0  0.00799  0.73098  0.77183  1.0000
  H   H716      1.0  0.09756  0.75001  0.59228  1.0000
  H   H717      1.0  0.05500  0.72592  0.71983  1.0000
  C   C419      1.0  0.02142  0.73781  0.75351  1.0000
  H   H718      1.0  0.10122  0.64404  0.51452  1.0000
  H   H719      1.0  0.00438  0.74211  0.78353  1.0000
  C   C420      1.0  0.02689  0.50923  0.64799  1.0000
  H   H720      1.0  0.03617  0.74214  0.71199  1.0000
  H   H721      1.0  0.03527  0.50219  0.63484  1.0000
  H   H722      1.0  0.15584  0.93075  0.34066  1.0000
  S   S116      1.0  0.06156  0.82894  0.47558  1.0000
  Fe  Fe61      1.0  0.20894  0.93743  0.22411  1.0000
  S   S117      1.0  0.22270  0.91455  0.24423  1.0000
  S   S118      1.0  0.19821  0.96552  0.23737  1.0000
  Fe  Fe62      1.0  0.20086  0.91027  0.18794  1.0000
  S   S119      1.0  0.21389  0.88573  0.20659  1.0000
  S   S120      1.0  0.18580  0.90250  0.15763  1.0000
  Fe  Fe63      1.0  0.19881  0.89701  0.23639  1.0000
  S   S121      1.0  0.17964  0.88557  0.26402  1.0000
  Fe  Fe64      1.0  0.23679  0.90520  0.21261  1.0000
  S   S122      1.0  0.26770  0.89522  0.21380  1.0000
  S   S123      1.0  0.18469  0.92027  0.21721  1.0000
  S   S124      1.0  0.22429  0.92937  0.19267  1.0000
  Fe  Fe65      1.0  0.06854  0.79636  0.30306  1.0000
  S   S125      1.0  0.09447  0.77946  0.29438  1.0000
  S   S126      1.0  0.04780  0.80166  0.27565  1.0000
  Fe  Fe66      1.0  0.08481  0.80605  0.34669  1.0000
  S   S127      1.0  0.11179  0.78941  0.34022  1.0000
  S   S128      1.0  0.08076  0.82763  0.37328  1.0000
  Fe  Fe67      1.0  0.11096  0.80261  0.30631  1.0000
  S   S129      1.0  0.13592  0.81073  0.28393  1.0000
  Fe  Fe68      1.0  0.09329  0.76737  0.32871  1.0000
  S   S130      1.0  0.08511  0.82014  0.31321  1.0000
  S   S131      1.0  0.06620  0.78334  0.33692  1.0000
  Fe  Fe69      1.0  0.13284  0.94661  0.05513  1.0000
  S   S132      1.0  0.14007  0.96091  0.02301  1.0000
  S   S133      1.0  0.14803  0.95549  0.08485  1.0000
  Fe  Fe70      1.0  0.10378  0.92390  0.03452  1.0000
  S   S134      1.0  0.08112  0.90452  0.04545  1.0000
  C   C421      1.0  0.01795  0.81059  0.06355  1.0000
  C   C422      1.0  0.21164  0.91104  0.01514  1.0000
  H   H723      1.0  0.20585  0.97131  0.33005  1.0000
  S   S135      1.0  0.13411  0.91816  0.04128  1.0000
  S   S136      1.0  0.10215  0.95150  0.05058  1.0000
  H   H724      1.0  0.00510  0.84647  0.07641  1.0000
  C   C423      1.0  0.06241  0.90187  0.02822  1.0000
  C   C424      1.0  0.04413  0.90331  0.03679  1.0000
  C   C425      1.0  0.02920  0.89808  0.02452  1.0000
  Fe  Fe71      1.0  0.13969  0.93270  0.00869  1.0000
  H   H725      1.0  0.00649  0.83448  0.44226  1.0000
  H   H726      1.0  0.04663  0.86733  0.04802  1.0000
  C   C426      1.0  0.20063  0.93080  0.29239  1.0000
  C   C427      1.0  0.19707  0.96721  0.31667  1.0000
  C   C428      1.0  0.02466  0.79587  0.27041  1.0000
  H   H727      1.0  0.02889  0.89570  0.46488  1.0000
  C   C429      1.0  0.21739  0.92427  0.30605  1.0000
  C   C430      1.0  0.01746  0.80067  0.24987  1.0000
  H   H728      1.0  0.02579  0.80840  0.23808  1.0000
  H   H729      1.0  0.18375  0.91239  0.32680  1.0000
  H   H730      1.0  0.01881  0.78253  0.30153  1.0000
  C   C431      1.0  0.20731  0.98055  0.25633  1.0000
  H   H731      1.0  0.04865  0.76333  0.28941  1.0000
  C   C432      1.0  0.02479  0.96124  0.48841  1.0000
  C   C433      1.0  0.22601  0.97962  0.26169  1.0000
  C   C434      1.0  0.06209  0.85158  0.07274  1.0000
  H   H732      1.0  0.23538  0.96916  0.25462  1.0000
  C   C435      1.0  0.28663  0.89245  0.19434  1.0000
  C   C436      1.0  0.28575  0.89939  0.17283  1.0000
  C   C437      1.0  0.30133  0.89737  0.15833  1.0000
  C   C438      1.0  0.31803  0.88828  0.16496  1.0000
  C   C439      1.0  0.31885  0.88114  0.18640  1.0000
  C   C440      1.0  0.30334  0.88336  0.20097  1.0000
  H   H733      1.0  0.27310  0.90644  0.16739  1.0000
  H   H734      1.0  0.30045  0.90297  0.14184  1.0000
  H   H735      1.0  0.03228  0.87780  0.08097  1.0000
  H   H736      1.0  0.30424  0.87789  0.21752  1.0000
  C   C441      1.0  0.17493  0.91762  0.13803  1.0000
  C   C442      1.0  0.16445  0.90995  0.12196  1.0000
  C   C443      1.0  0.15591  0.92136  0.10576  1.0000
  C   C444      1.0  0.15789  0.94057  0.10537  1.0000
  C   C445      1.0  0.16832  0.94824  0.12148  1.0000
  C   C446      1.0  0.17677  0.93685  0.13777  1.0000
  H   H737      1.0  0.16299  0.89509  0.12198  1.0000
  H   H738      1.0  0.14774  0.91531  0.09363  1.0000
  H   H739      1.0  0.16987  0.96310  0.12136  1.0000
  H   H740      1.0  0.18478  0.94293  0.15003  1.0000
  C   C447      1.0  0.16765  0.86459  0.26918  1.0000
  C   C448      1.0  0.15288  0.86446  0.28479  1.0000
  C   C449      1.0  0.14296  0.84823  0.28949  1.0000
  C   C450      1.0  0.14781  0.83177  0.27880  1.0000
  C   C451      1.0  0.16265  0.83190  0.26327  1.0000
  C   C452      1.0  0.17247  0.84816  0.25844  1.0000
  H   H741      1.0  0.14902  0.87700  0.29333  1.0000
  H   H742      1.0  0.13165  0.84841  0.30150  1.0000
  H   H743      1.0  0.16665  0.81926  0.25500  1.0000
  H   H744      1.0  0.18394  0.84787  0.24666  1.0000
  H   H745      1.0  0.17321  0.90897  0.30190  1.0000
  C   C453      1.0  0.06822  0.82847  0.44744  1.0000
  C   C454      1.0  0.07479  0.84406  0.43602  1.0000
  C   C455      1.0  0.07866  0.84343  0.41341  1.0000
  C   C456      1.0  0.07640  0.82714  0.40196  1.0000
  C   C457      1.0  0.07010  0.81144  0.41344  1.0000
  C   C458      1.0  0.06594  0.81216  0.43602  1.0000
  H   H746      1.0  0.07686  0.85662  0.44458  1.0000
  H   H747      1.0  0.08359  0.85564  0.40470  1.0000
  H   H748      1.0  0.06821  0.79884  0.40487  1.0000
  H   H749      1.0  0.06084  0.80002  0.44468  1.0000
  C   C459      1.0  0.03254  0.89103  0.00376  1.0000
  N   N34       1.0  0.14599  0.86663  0.19784  1.0000
  C   C460      1.0  0.16036  0.85937  0.18141  1.0000
  C   C461      1.0  0.12961  0.87453  0.18544  1.0000
  C   C462      1.0  0.14003  0.85023  0.21188  1.0000
  C   C463      1.0  0.15461  0.88095  0.21123  1.0000
  C   C464      1.0  0.17780  0.84924  0.19084  1.0000
  C   C465      1.0  0.13413  0.88947  0.16765  1.0000
  C   C466      1.0  0.12532  0.85414  0.23005  1.0000
  C   C467      1.0  0.14144  0.89608  0.22136  1.0000
  H   H750      1.0  0.15412  0.84972  0.17022  1.0000
  H   H751      1.0  0.16566  0.87089  0.17082  1.0000
  H   H752      1.0  0.11871  0.88073  0.19647  1.0000
  H   H753      1.0  0.12268  0.86325  0.17730  1.0000
  H   H754      1.0  0.13467  0.83935  0.20159  1.0000
  H   H755      1.0  0.15199  0.84348  0.22041  1.0000
  H   H756      1.0  0.16241  0.87405  0.22472  1.0000
  H   H757      1.0  0.16526  0.88856  0.20140  1.0000
  H   H758      1.0  0.17484  0.83500  0.19699  1.0000
  H   H759      1.0  0.18865  0.84776  0.17768  1.0000
  H   H760      1.0  0.18383  0.85706  0.20389  1.0000
  H   H761      1.0  0.14002  0.88296  0.15267  1.0000
  H   H762      1.0  0.12118  0.89735  0.16305  1.0000
  H   H763      1.0  0.14402  0.89956  0.17305  1.0000
  H   H764      1.0  0.11256  0.86144  0.22409  1.0000
  H   H765      1.0  0.13123  0.86172  0.24339  1.0000
  H   H766      1.0  0.12110  0.84066  0.23756  1.0000
  H   H767      1.0  0.13653  0.90647  0.20890  1.0000
  H   H768      1.0  0.14922  0.90372  0.23324  1.0000
  H   H769      1.0  0.12936  0.89054  0.23045  1.0000
  N   N35       1.0  0.19986  0.92903  0.04884  1.0000
  C   C468      1.0  0.19932  0.94674  0.03489  1.0000
  C   C469      1.0  0.21471  0.91623  0.03889  1.0000
  C   C470      1.0  0.20516  0.93397  0.07141  1.0000
  C   C471      1.0  0.18087  0.92106  0.04932  1.0000
  C   C472      1.0  0.18720  0.96312  0.04381  1.0000
  H   H770      1.0  0.04715  0.94063  0.46136  1.0000
  C   C473      1.0  0.20820  0.91781  0.08810  1.0000
  C   C474      1.0  0.17963  0.90003  0.05502  1.0000
  H   H771      1.0  0.04044  0.84478  0.01030  1.0000
  Fe  Fe72      1.0  0.10959  0.96306  0.01727  1.0000
  H   H772      1.0  0.21661  0.90301  0.04836  1.0000
  H   H773      1.0  0.22848  0.92259  0.03922  1.0000
  H   H774      1.0  0.21807  0.94191  0.07057  1.0000
  H   H775      1.0  0.19419  0.94322  0.07909  1.0000
  H   H776      1.0  0.17133  0.92870  0.06083  1.0000
  H   H777      1.0  0.17452  0.92329  0.03314  1.0000
  C   C475      1.0  0.01836  0.84346  0.43830  1.0000
  C   C476      1.0  0.05970  0.94057  0.47127  1.0000
  H   H778      1.0  0.05486  0.85075  0.08885  1.0000
  C   C477      1.0  0.01860  0.87218  0.07789  1.0000
  H   H779      1.0  0.02964  0.82291  0.01726  1.0000
  H   H780      1.0  0.21356  0.95188  0.03194  1.0000
  H   H781      1.0  0.21236  0.92357  0.10367  1.0000
  H   H782      1.0  0.21948  0.90776  0.08310  1.0000
  H   H783      1.0  0.19519  0.91070  0.09204  1.0000
  H   H784      1.0  0.16739  0.89793  0.06614  1.0000
  H   H785      1.0  0.19163  0.89330  0.06323  1.0000
  H   H786      1.0  0.00853  0.81474  0.07736  1.0000
  C   C478      1.0  0.04886  0.85260  0.05345  1.0000
  H   H787      1.0  0.17311  0.95890  0.04871  1.0000
  N   N36       1.0  0.01484  0.86254  0.44753  1.0000
  H   H788      1.0  0.02272  0.79594  0.06688  1.0000
  N   N37       1.0  0.03075  0.84321  0.05713  1.0000
  C   C479      1.0  0.00791  0.97230  0.49840  1.0000
  C   C480      1.0  0.04553  0.99860  0.49123  1.0000
  H   H789      1.0  0.22875  0.91897  0.29494  1.0000
  C   C481      1.0  0.00092  0.84672  0.48226  1.0000
  C   C482      1.0  0.05502  0.94538  0.49516  1.0000
  H   H790      1.0  0.19544  0.94152  0.33627  1.0000
  H   H791      1.0  0.03056  0.83616  0.44591  1.0000
  H   H792      1.0  0.06626  0.92631  0.47098  1.0000
  H   H793      1.0  0.02908  0.85474  0.47697  1.0000
  C   C483      1.0  0.03070  0.87430  0.43985  1.0000
  H   H794      1.0  0.22296  0.93586  0.31486  1.0000
  H   H795      1.0  0.01287  0.87902  0.06307  1.0000
  H   H796      1.0  0.01854  0.90286  0.43918  1.0000
  C   C484      1.0  0.02747  0.83820  0.01594  1.0000
  S   S137      1.0  0.06236  0.88325  0.49036  1.0000
  C   C485      1.0  0.05384  0.97877  0.48809  1.0000
  H   H797      1.0  0.00522  0.83203  0.47921  1.0000
  H   H798      1.0  0.19789  0.91907  0.28182  1.0000
  H   H799      1.0  0.02569  0.96522  0.47077  1.0000
  H   H800      1.0  0.05701  0.84644  0.03959  1.0000
  H   H801      1.0  0.01022  0.98723  0.49983  1.0000
  C   C486      1.0  0.01971  0.85084  0.07642  1.0000
  H   H802      1.0  0.01298  0.87342  0.48033  1.0000
  H   H803      1.0  0.04157  0.90804  0.05318  1.0000
  H   H804      1.0  0.00510  0.84144  0.03991  1.0000
  C   C487      1.0  0.01364  0.78603  0.28554  1.0000
  H   H805      1.0  0.32610  0.93531  0.18114  1.0000
  C   C488      1.0  0.01510  0.86010  0.47198  1.0000
  H   H806      1.0  0.01518  0.89919  0.03122  1.0000
  N   N38       1.0  0.18322  0.93672  0.30509  1.0000
  C   C489      1.0  0.17030  0.94735  0.28993  1.0000
  C   C490      1.0  0.18735  0.94912  0.32338  1.0000
  C   C491      1.0  0.16318  0.93618  0.27124  1.0000
  H   H807      1.0  0.20527  0.94200  0.28080  1.0000
  H   H808      1.0  0.17731  0.95943  0.28209  1.0000
  H   H809      1.0  0.17430  0.95374  0.33214  1.0000
  H   H810      1.0  0.15445  0.94555  0.26068  1.0000
  H   H811      1.0  0.15454  0.92462  0.27718  1.0000
  H   H812      1.0  0.17480  0.93064  0.26081  1.0000
  H   H813      1.0  0.20663  0.96574  0.30234  1.0000
  C   C492      1.0  0.06561  0.89576  0.00702  1.0000
  H   H814      1.0  0.32875  0.94479  0.22026  1.0000
  H   H815      1.0  0.15044  0.90846  0.33168  1.0000
  H   H816      1.0  0.07003  0.94994  0.46369  1.0000
  H   H817      1.0  0.15807  0.95358  0.29899  1.0000
  C   C493      1.0  0.01932  0.84658  0.03717  1.0000
  H   H818      1.0  0.02505  0.84500  0.09210  1.0000
  C   C494      1.0  0.17458  0.91944  0.31459  1.0000
  C   C495      1.0  0.23275  0.99263  0.27582  1.0000
  H   H819      1.0  0.14475  0.92835  0.31488  1.0000
  H   H820      1.0  0.06997  0.86451  0.07258  1.0000
  C   C496      1.0  0.19537  0.99424  0.26580  1.0000
  H   H821      1.0  0.06829  0.97849  0.49412  1.0000
  H   H822      1.0  0.18083  0.99495  0.26196  1.0000
  H   H823      1.0  0.24731  0.99198  0.27956  1.0000
  H   H824      1.0  0.21400  0.91274  0.31767  1.0000
  H   H825      1.0  0.33149  0.87407  0.19184  1.0000
  H   H826      1.0  0.18672  0.97871  0.31308  1.0000
  H   H827      1.0  0.04453  0.81696  0.04844  1.0000
  H   H828      1.0  0.18565  0.97416  0.03087  1.0000
  H   H829      1.0  0.00910  0.87610  0.09174  1.0000
  C   C497      1.0  0.15532  0.92227  0.32601  1.0000
  C   C498      1.0  0.03498  0.82278  0.06134  1.0000
  H   H830      1.0  0.04266  0.82048  0.07668  1.0000
  H   H831      1.0  0.07209  0.83946  0.07140  1.0000
  H   H832      1.0  0.01745  0.84114  0.00281  1.0000
  C   C499      1.0  0.02172  0.84270  0.41341  1.0000
  H   H833      1.0  0.17690  0.89233  0.04019  1.0000
  H   H834      1.0  0.05530  0.97723  0.47018  1.0000
  H   H835      1.0  0.02103  0.82808  0.40840  1.0000
  H   H836      1.0  0.11717  0.97037  0.50167  1.0000
  C   C500      1.0  0.02994  0.89456  0.44702  1.0000
  H   H837      1.0  0.04409  0.86771  0.44529  1.0000
  H   H838      1.0  0.19364  0.96946  0.05775  1.0000
  H   H839      1.0  0.01002  0.81082  0.04840  1.0000
  H   H840      1.0  0.03590  0.84698  0.40850  1.0000
  H   H841      1.0  0.01710  0.86171  0.03363  1.0000
  H   H842      1.0  0.02074  0.94650  0.48895  1.0000
  H   H843      1.0  0.03180  0.87535  0.42179  1.0000
  H   H844      1.0  0.19397  0.94423  0.01849  1.0000
  H   H845      1.0  0.04309  0.90100  0.44161  1.0000
  H   H846      1.0  0.21406  0.92290  0.00356  1.0000
  H   H847      1.0  0.02690  0.75739  0.26130  1.0000
  H   H848      1.0  0.19756  0.90605  0.01287  1.0000
  H   H849      1.0  0.07919  0.75255  0.22572  1.0000
  H   H850      1.0  0.05742  0.76249  0.25395  1.0000
  H   H851      1.0  0.31485  0.92531  0.21667  1.0000
  C   C501      1.0  0.32928  0.93013  0.21532  1.0000
  H   H852      1.0  0.01119  0.85118  0.40430  1.0000
  N   N39       1.0  0.04334  0.96304  0.49870  1.0000
  H   H853      1.0  0.22175  0.89965  0.01050  1.0000
  Fe  Fe73      1.0  0.06235  0.85283  0.49917  1.0000
  H   H854      1.0  0.07875  0.75547  0.26533  1.0000
  H   H855      1.0  0.32740  0.75320  0.24316  1.0000
  H   H856      1.0  0.12201  0.93676  0.49402  1.0000
  H   H857      1.0  0.03374  0.75119  0.32301  1.0000
  H   H858      1.0  0.00044  0.84805  0.50021  1.0000
  H   H859      1.0  0.15355  0.98330  0.98629  1.0000
  H   H860      1.0  0.05967  0.79816  0.59628  1.0000
  Fe  Fe74      1.0  0.05861  0.85991  0.54845  1.0000
  C   C502      1.0  0.32654  0.88198  0.94851  1.0000
  S   S138      1.0  0.05179  0.84531  0.58123  1.0000
  Fe  Fe75      1.0  0.08114  0.88552  0.51845  1.0000
  C   C503      1.0  0.06767  0.76915  0.60616  1.0000
  H   H861      1.0  0.22303  0.83467  0.75200  1.0000
  S   S139      1.0  0.05808  0.89108  0.54310  1.0000
  S   S140      1.0  0.03774  0.85624  0.52257  1.0000
  C   C504      1.0  0.04159  0.96593  0.52289  1.0000
  S   S141      1.0  0.16547  0.92621  0.98716  1.0000
  Fe  Fe76      1.0  0.19569  0.89669  0.81278  1.0000
  S   S142      1.0  0.18258  0.92352  0.82509  1.0000
  S   S143      1.0  0.18218  0.88236  0.78440  1.0000
  Fe  Fe77      1.0  0.22937  0.89923  0.84290  1.0000
  S   S144      1.0  0.21786  0.92589  0.85731  1.0000
  S   S145      1.0  0.25520  0.88159  0.85408  1.0000
  Fe  Fe78      1.0  0.19014  0.91272  0.85868  1.0000
  S   S146      1.0  0.16647  0.91457  0.88450  1.0000
  Fe  Fe79      1.0  0.21108  0.93495  0.82264  1.0000
  S   S147      1.0  0.21725  0.96524  0.81298  1.0000
  S   S148      1.0  0.20177  0.88525  0.84644  1.0000
  S   S149      1.0  0.22409  0.90890  0.80814  1.0000
  Fe  Fe80      1.0  0.07447  0.79919  0.73389  1.0000
  S   S150      1.0  0.09701  0.78024  0.74765  1.0000
  S   S151      1.0  0.05125  0.80667  0.75899  1.0000
  Fe  Fe81      1.0  0.09826  0.80602  0.69229  1.0000
  S   S152      1.0  0.12230  0.78757  0.70447  1.0000
  S   S153      1.0  0.10435  0.82064  0.65946  1.0000
  Fe  Fe82      1.0  0.10011  0.76764  0.71453  1.0000
  Fe  Fe83      1.0  0.11707  0.80198  0.73642  1.0000
  S   S154      1.0  0.13716  0.81037  0.76266  1.0000
  S   S155      1.0  0.07623  0.78554  0.70126  1.0000
  S   S156      1.0  0.09443  0.82131  0.72361  1.0000
  C   C505      1.0  0.02769  0.80046  0.76273  1.0000
  C   C506      1.0  0.01867  0.80311  0.78314  1.0000
  H   H862      1.0  0.32048  0.85622  0.93325  1.0000
  C   C507      1.0  0.01794  0.79255  0.74635  1.0000
  H   H863      1.0  0.02599  0.80931  0.79593  1.0000
  C   C508      1.0  0.13674  0.97186  0.96156  1.0000
  H   H864      1.0  0.02443  0.79090  0.73037  1.0000
  C   C509      1.0  0.21313  0.97909  0.78886  1.0000
  C   C510      1.0  0.16337  0.96931  0.57862  1.0000
  C   C511      1.0  0.11650  0.96489  0.93184  1.0000
  C   C512      1.0  0.20885  0.97139  0.76916  1.0000
  H   H865      1.0  0.30509  0.87511  0.92522  1.0000
  H   H866      1.0  0.20744  0.95655  0.76843  1.0000
  C   C513      1.0  0.27869  0.88633  0.85986  1.0000
  C   C514      1.0  0.28582  0.90401  0.85688  1.0000
  C   C515      1.0  0.30461  0.90687  0.86123  1.0000
  C   C516      1.0  0.31660  0.89219  0.86869  1.0000
  C   C517      1.0  0.30943  0.87454  0.87188  1.0000
  C   C518      1.0  0.29066  0.87167  0.86746  1.0000
  H   H867      1.0  0.27691  0.91546  0.85105  1.0000
  H   H868      1.0  0.30990  0.92060  0.85865  1.0000
  H   H869      1.0  0.31838  0.86303  0.87742  1.0000
  H   H870      1.0  0.28539  0.85791  0.86982  1.0000
  C   C519      1.0  0.16891  0.86261  0.77926  1.0000
  C   C520      1.0  0.16116  0.86123  0.75865  1.0000
  C   C521      1.0  0.15128  0.84556  0.75332  1.0000
  C   C522      1.0  0.14928  0.83075  0.76842  1.0000
  C   C523      1.0  0.15707  0.83209  0.78903  1.0000
  C   C524      1.0  0.16660  0.84795  0.79452  1.0000
  H   H871      1.0  0.16288  0.87237  0.74661  1.0000
  H   H872      1.0  0.14548  0.84484  0.73738  1.0000
  H   H873      1.0  0.15565  0.82079  0.80090  1.0000
  H   H874      1.0  0.17236  0.84870  0.81045  1.0000
  C   C525      1.0  0.16555  0.92272  0.95867  1.0000
  C   C526      1.0  0.14919  0.92027  0.94777  1.0000
  C   C527      1.0  0.14983  0.91762  0.92514  1.0000
  C   C528      1.0  0.16677  0.91744  0.91308  1.0000
  C   C529      1.0  0.18315  0.91989  0.92398  1.0000
  C   C530      1.0  0.18252  0.92245  0.94667  1.0000
  H   H875      1.0  0.13606  0.92024  0.95680  1.0000
  H   H876      1.0  0.13710  0.91564  0.91688  1.0000
  H   H877      1.0  0.19626  0.91980  0.91492  1.0000
  H   H878      1.0  0.19527  0.92428  0.95493  1.0000
  C   C531      1.0  0.11635  0.78916  0.60961  1.0000
  C   C532      1.0  0.21639  0.84796  0.75747  1.0000
  C   C533      1.0  0.06658  0.83966  0.60321  1.0000
  C   C534      1.0  0.05883  0.83222  0.62275  1.0000
  C   C535      1.0  0.07010  0.82665  0.64031  1.0000
  C   C536      1.0  0.08929  0.82851  0.63851  1.0000
  C   C537      1.0  0.09702  0.83620  0.61910  1.0000
  C   C538      1.0  0.08575  0.84171  0.60151  1.0000
  H   H879      1.0  0.04400  0.83067  0.62424  1.0000
  H   H880      1.0  0.06394  0.82088  0.65518  1.0000
  H   H881      1.0  0.11186  0.83773  0.61756  1.0000
  H   H882      1.0  0.09190  0.84742  0.58659  1.0000
  C   C539      1.0  0.10247  0.92770  0.51903  1.0000
  C   C540      1.0  0.09038  0.93337  0.53602  1.0000
  C   C541      1.0  0.08786  0.95231  0.54050  1.0000
  C   C542      1.0  0.09724  0.96578  0.52793  1.0000
  C   C543      1.0  0.10149  0.76836  0.65374  1.0000
  H   H883      1.0  0.12123  0.80136  0.59984  1.0000
  H   H884      1.0  0.08299  0.92314  0.54571  1.0000
  H   H885      1.0  0.07844  0.95655  0.55367  1.0000
  N   N40       1.0  0.23422  0.84867  0.79334  1.0000
  C   C544      1.0  0.21651  0.84636  0.80680  1.0000
  C   C545      1.0  0.22905  0.85843  0.77214  1.0000
  C   C546      1.0  0.24670  0.86049  0.80589  1.0000
  C   C547      1.0  0.24309  0.82961  0.78994  1.0000
  C   C548      1.0  0.21881  0.83851  0.83033  1.0000
  C   C549      1.0  0.26032  0.87283  0.79273  1.0000
  C   C550      1.0  0.26061  0.82865  0.77500  1.0000
  H   H886      1.0  0.20861  0.85994  0.80803  1.0000
  H   H887      1.0  0.20715  0.83692  0.79903  1.0000
  H   H888      1.0  0.23823  0.87047  0.81596  1.0000
  H   H889      1.0  0.25496  0.85182  0.81775  1.0000
  H   H890      1.0  0.24723  0.82294  0.80572  1.0000
  H   H891      1.0  0.23291  0.82033  0.78326  1.0000
  H   H892      1.0  0.22765  0.84704  0.84007  1.0000
  H   H893      1.0  0.20492  0.83864  0.83874  1.0000
  H   H894      1.0  0.22424  0.82388  0.83068  1.0000
  H   H895      1.0  0.20265  0.84547  0.76527  1.0000
  H   H896      1.0  0.21362  0.85672  0.74262  1.0000
  H   H897      1.0  0.25277  0.88463  0.78434  1.0000
  H   H898      1.0  0.26970  0.87901  0.80422  1.0000
  H   H899      1.0  0.25816  0.83482  0.75854  1.0000
  H   H900      1.0  0.26500  0.81383  0.77284  1.0000
  H   H901      1.0  0.27231  0.83522  0.78244  1.0000
  H   H902      1.0  0.16790  0.97113  0.90611  1.0000
  H   H903      1.0  0.08776  0.97172  0.94324  1.0000
  N   N41       1.0  0.08675  0.77010  0.61541  1.0000
  C   C551      1.0  0.05492  0.78691  0.60762  1.0000
  H   H904      1.0  0.28331  0.89063  0.94722  1.0000
  H   H905      1.0  0.15857  0.99344  0.96042  1.0000
  C   C552      1.0  0.08452  0.77325  0.63954  1.0000
  C   C553      1.0  0.14327  0.98313  0.92286  1.0000
  C   C554      1.0  0.11678  0.99676  0.94402  1.0000
  C   C555      1.0  0.13503  0.98825  0.58393  1.0000
  H   H906      1.0  0.00366  0.96638  0.51459  1.0000
  H   H907      1.0  0.13759  0.99684  0.56888  1.0000
  H   H908      1.0  0.32773  0.93485  0.90331  1.0000
  H   H909      1.0  0.14289  0.96426  0.61606  1.0000
  H   H910      1.0  0.16672  0.96993  0.96713  1.0000
  H   H911      1.0  0.11745  0.79282  0.62684  1.0000
  S   S157      1.0  0.01715  0.90898  0.50667  1.0000
  H   H912      1.0  0.08030  0.78803  0.64244  1.0000
  H   H913      1.0  0.07284  0.76525  0.64678  1.0000
  H   H914      1.0  0.12222  0.95734  0.60415  1.0000
  H   H915      1.0  0.11192  0.96895  0.91513  1.0000
  S   S158      1.0  0.09206  0.98945  0.53289  1.0000
  H   H916      1.0  0.05515  0.96961  0.52922  1.0000
  C   C556      1.0  0.31962  0.87136  0.92920  1.0000
  C   C557      1.0  0.09615  0.78606  0.60381  1.0000
  Fe  Fe84      1.0  0.03927  0.88684  0.51550  1.0000
  H   H917      1.0  0.04080  0.78377  0.60254  1.0000
  H   H918      1.0  0.27093  0.99461  0.78262  1.0000
  H   H919      1.0  0.30418  0.92426  0.95946  1.0000
  H   H920      1.0  0.04476  0.76451  0.73876  1.0000
  H   H921      1.0  0.16816  0.99555  0.56028  1.0000
  N   N42       1.0  0.32401  0.90295  0.94752  1.0000
  C   C558      1.0  0.09882  0.96068  0.94562  1.0000
  C   C559      1.0  0.13754  0.95754  0.60159  1.0000
  H   H922      1.0  0.05338  0.88502  0.97876  1.0000
  H   H923      1.0  0.20347  0.97671  0.73511  1.0000
  C   C560      1.0  0.11403  0.99088  0.58924  1.0000
  C   C561      1.0  0.30503  0.90912  0.95627  1.0000
  H   H924      1.0  0.24148  0.86157  0.76182  1.0000
  C   C562      1.0  0.15488  0.98027  0.96872  1.0000
  H   H925      1.0  0.04607  0.93836  0.53889  1.0000
  N   N43       1.0  0.09746  0.85076  0.79307  1.0000
  C   C563      1.0  0.11322  0.86344  0.79628  1.0000
  C   C564      1.0  0.09558  0.84915  0.76887  1.0000
  C   C565      1.0  0.10259  0.83195  0.80335  1.0000
  C   C566      1.0  0.08023  0.85929  0.80397  1.0000
  C   C567      1.0  0.12015  0.86432  0.81970  1.0000
  C   C568      1.0  0.09087  0.86743  0.75606  1.0000
  C   C569      1.0  0.09267  0.81505  0.79536  1.0000
  C   C570      1.0  0.06171  0.84998  0.80076  1.0000
  H   H926      1.0  0.12551  0.85935  0.78581  1.0000
  H   H927      1.0  0.10937  0.87801  0.79111  1.0000
  H   H928      1.0  0.08481  0.83944  0.76497  1.0000
  H   H929      1.0  0.10869  0.84298  0.76150  1.0000
  H   H930      1.0  0.11766  0.82846  0.80047  1.0000
  H   H931      1.0  0.10038  0.83210  0.82136  1.0000
  H   H932      1.0  0.08183  0.85936  0.82189  1.0000
  H   H933      1.0  0.07824  0.87432  0.79940  1.0000
  H   H934      1.0  0.10908  0.86917  0.83136  1.0000
  H   H935      1.0  0.12649  0.85082  0.82554  1.0000
  H   H936      1.0  0.13129  0.87448  0.81976  1.0000
  H   H937      1.0  0.07779  0.87436  0.76219  1.0000
  H   H938      1.0  0.10240  0.87710  0.75597  1.0000
  H   H939      1.0  0.08883  0.86419  0.73878  1.0000
  H   H940      1.0  0.09693  0.80256  0.80536  1.0000
  H   H941      1.0  0.09696  0.81198  0.77832  1.0000
  H   H942      1.0  0.07739  0.81657  0.79674  1.0000
  H   H943      1.0  0.05924  0.83913  0.81366  1.0000
  H   H944      1.0  0.06048  0.84391  0.78465  1.0000
  H   H945      1.0  0.05014  0.86066  0.80172  1.0000
  C   C571      1.0  0.20661  0.98289  0.75027  1.0000
  H   H946      1.0  0.31176  0.93716  0.92593  1.0000
  H   H947      1.0  0.29074  0.90588  0.92497  1.0000
  H   H948      1.0  0.15520  0.93703  0.55984  1.0000
  H   H949      1.0  0.10502  0.99406  0.95565  1.0000
  H   H950      1.0  0.30233  0.90256  0.97263  1.0000
  H   H951      1.0  0.11929  0.95701  0.56584  1.0000
  H   H952      1.0  0.26595  0.98986  0.71787  1.0000
  H   H953      1.0  0.14015  0.93095  0.61901  1.0000
  H   H954      1.0  0.05342  0.79200  0.62441  1.0000
  H   H955      1.0  0.13726  0.92875  0.59070  1.0000
  H   H956      1.0  0.12602  0.77734  0.60555  1.0000
  H   H957      1.0  0.32868  0.87353  0.91446  1.0000
  H   H958      1.0  0.18594  0.97795  0.55671  1.0000
  N   N44       1.0  0.12870  0.97930  0.94045  1.0000
  H   H959      1.0  0.10549  0.98363  0.57786  1.0000
  S   S159      1.0  0.01461  0.88211  0.98887  1.0000
  H   H960      1.0  0.10514  0.78081  0.66246  1.0000
  C   C572      1.0  0.05907  0.75883  0.78721  1.0000
  H   H961      1.0  0.09322  0.94751  0.94036  1.0000
  C   C573      1.0  0.03480  0.94925  0.53689  1.0000
  H   H962      1.0  0.09786  0.75775  0.66651  1.0000
  H   H963      1.0  0.13232  0.97187  0.54843  1.0000
  H   H964      1.0  0.08851  0.79945  0.60717  1.0000
  H   H965      1.0  0.22201  0.87222  0.77538  1.0000
  H   H966      1.0  0.26910  0.86525  0.78064  1.0000
  H   H967      1.0  0.01520  0.75116  0.74684  1.0000
  C   C574      1.0  0.14369  0.94382  0.55080  1.0000
  H   H968      1.0  0.06873  0.76559  0.58863  1.0000
  C   C575      1.0  0.15612  0.96630  0.91659  1.0000
  H   H969      1.0  0.13348  0.93300  0.54865  1.0000
  H   H970      1.0  0.12630  0.97346  0.97519  1.0000
  C   C576      1.0  0.28823  0.90468  0.94278  1.0000
  H   H971      1.0  0.12437  0.95133  0.93021  1.0000
  C   C577      1.0  0.05072  0.89032  0.99488  1.0000
  H   H972      1.0  0.14878  0.95640  0.90688  1.0000
  H   H973      1.0  0.16905  0.97559  0.59319  1.0000
  S   S160      1.0  0.08319  0.85449  0.52556  1.0000
  H   H974      1.0  0.13979  0.95662  0.96084  1.0000
  H   H975      1.0  0.16460  0.97617  0.54316  1.0000
  H   H976      1.0  0.27670  0.91506  0.94612  1.0000
  H   H977      1.0  0.03065  0.95390  0.55346  1.0000
  H   H978      1.0  0.06643  0.76704  0.77441  1.0000
  H   H979      1.0  0.31971  0.87607  0.96354  1.0000
  H   H980      1.0  0.10153  0.95894  0.96317  1.0000
  C   C578      1.0  0.11245  0.94110  0.50701  1.0000
  C   C579      1.0  0.10978  0.96011  0.51137  1.0000
  C   C580      1.0  0.04059  0.75196  0.77961  1.0000
  H   H981      1.0  0.17037  0.95538  0.57810  1.0000
  H   H982      1.0  0.31867  0.90443  0.91283  1.0000
  C   C581      1.0  0.14421  0.93693  0.60273  1.0000
  H   H983      1.0  0.32536  0.90813  0.99481  1.0000
  H   H984      1.0  0.14236  0.99504  0.59701  1.0000
  H   H985      1.0  0.28622  0.99600  0.74531  1.0000
  C   C582      1.0  0.17065  0.98039  0.55845  1.0000
  H   H986      1.0  0.15948  0.93487  0.60109  1.0000
  H   H987      1.0  0.07965  0.89443  0.00034  1.0000
  H   H988      1.0  0.03129  0.76449  0.77690  1.0000
  C   C583      1.0  0.13374  0.96087  0.56155  1.0000
  H   H989      1.0  0.14892  0.94771  0.53413  1.0000
  H   H990      1.0  0.02267  0.94300  0.52992  1.0000
  H   H991      1.0  0.09597  0.78458  0.58582  1.0000
  H   H992      1.0  0.16208  0.95885  0.93095  1.0000
  H   H993      1.0  0.24505  0.99840  0.73078  1.0000
  H   H994      1.0  0.03214  0.97801  0.52677  1.0000
  N   N45       1.0  0.14253  0.96852  0.58108  1.0000
  S   S161      1.0  0.10558  0.90403  0.51278  1.0000
  C   C584      1.0  0.32782  0.91032  0.92465  1.0000
  H   H995      1.0  0.11053  0.98650  0.60630  1.0000
  C   C585      1.0  0.21494  0.99846  0.78938  1.0000
  H   H996      1.0  0.25613  0.98728  0.76231  1.0000
  H   H997      1.0  0.15231  0.99438  0.92696  1.0000
  H   H998      1.0  0.13658  0.98847  0.90766  1.0000
  C   C586      1.0  0.32578  0.93157  0.92103  1.0000
  H   H999      1.0  0.05606  0.76843  0.80078  1.0000
  H   H1000     1.0  0.05979  0.75794  0.61457  1.0000
  H   H1001     1.0  0.23913  0.99796  0.69356  1.0000
  H   H1002     1.0  0.11429  0.76345  0.64506  1.0000
  C   C587      1.0  0.26308  0.99952  0.76813  1.0000
  S   S162      1.0  0.10948  0.93566  0.00074  1.0000
  H   H1003     1.0  0.06842  0.94592  0.50338  1.0000
  S   S163      1.0  0.09363  0.98680  0.00020  1.0000
  H   H1004     1.0  0.06567  0.75217  0.74378  1.0000
  H   H1005     1.0  0.11198  0.75209  0.61418  1.0000
  C   C588      1.0  0.09717  0.75207  0.61019  1.0000
  C   C589      1.0  0.00039  0.79742  0.78738  1.0000
  H   H1006     1.0  0.04811  0.93308  0.50248  1.0000
  H   H1007     1.0  0.64286  0.17334  0.08767  1.0000
  Fe  Fe85      1.0  0.61884  0.13780  0.14336  1.0000
  S   S164      1.0  0.60022  0.11912  0.12574  1.0000
  S   S165      1.0  0.60422  0.16512  0.15510  1.0000
  Fe  Fe86      1.0  0.65293  0.11037  0.13711  1.0000
  S   S166      1.0  0.63599  0.09067  0.11923  1.0000
  Fe  Fe87      1.0  0.62389  0.11568  0.10065  1.0000
  S   S167      1.0  0.62499  0.12230  0.06308  1.0000
  Fe  Fe88      1.0  0.61361  0.09531  0.14568  1.0000
  S   S168      1.0  0.60277  0.06864  0.16372  1.0000
  S   S169      1.0  0.64171  0.13530  0.11771  1.0000
  S   S170      1.0  0.63120  0.11417  0.16423  1.0000
  Fe  Fe89      1.0  0.39639  0.13564  0.39138  1.0000
  S   S171      1.0  0.41711  0.11592  0.40819  1.0000
  S   S172      1.0  0.40713  0.16549  0.38793  1.0000
  Fe  Fe90      1.0  0.36901  0.10426  0.38694  1.0000
  S   S173      1.0  0.38878  0.08322  0.40322  1.0000
  H   H1008     1.0  0.51149  0.00226  0.40515  1.0000
  Fe  Fe91      1.0  0.39279  0.10510  0.42822  1.0000
  S   S174      1.0  0.38956  0.09594  0.46510  1.0000
  Fe  Fe92      1.0  0.41165  0.09553  0.38208  1.0000
  S   S175      1.0  0.43700  0.08309  0.36174  1.0000
  S   S176      1.0  0.37219  0.12564  0.41263  1.0000
  S   S177      1.0  0.39178  0.11568  0.36466  1.0000
  H   H1009     1.0  0.49764  0.00245  0.38226  1.0000
  H   H1010     1.0  0.57672  0.22195  0.11249  1.0000
  S   S178      1.0  0.53456  0.03311  0.22041  1.0000
  H   H1011     1.0  0.63639  0.04057  0.22996  1.0000
  S   S179      1.0  0.47275  0.01363  0.30783  1.0000
  H   H1012     1.0  0.48381  0.01209  0.18457  1.0000
  C   C590      1.0  0.43476  0.16571  0.33411  1.0000
  C   C591      1.0  0.44624  0.06368  0.34631  1.0000
  C   C592      1.0  0.43834  0.04624  0.34719  1.0000
  C   C593      1.0  0.44659  0.03127  0.33532  1.0000
  C   C594      1.0  0.46274  0.03342  0.32200  1.0000
  C   C595      1.0  0.47047  0.05092  0.32082  1.0000
  C   C596      1.0  0.46242  0.06580  0.33301  1.0000
  H   H1013     1.0  0.42598  0.04422  0.35728  1.0000
  H   H1014     1.0  0.44035  0.01792  0.33650  1.0000
  H   H1015     1.0  0.48280  0.05300  0.31070  1.0000
  H   H1016     1.0  0.46877  0.07911  0.33209  1.0000
  C   C597      1.0  0.40597  0.18716  0.37257  1.0000
  C   C598      1.0  0.41850  0.20091  0.37693  1.0000
  C   C599      1.0  0.41883  0.21788  0.36460  1.0000
  C   C600      1.0  0.40657  0.22141  0.34759  1.0000
  C   C601      1.0  0.39403  0.20766  0.34325  1.0000
  C   C602      1.0  0.39368  0.19072  0.35560  1.0000
  H   H1017     1.0  0.42813  0.19841  0.38993  1.0000
  H   H1018     1.0  0.42858  0.22820  0.36823  1.0000
  H   H1019     1.0  0.38445  0.21014  0.33020  1.0000
  H   H1020     1.0  0.38395  0.18039  0.35191  1.0000
  H   H1021     1.0  0.60398  0.20746  0.09822  1.0000
  C   C603      1.0  0.40054  0.11833  0.49904  1.0000
  H   H1022     1.0  0.62912  0.19188  0.07509  1.0000
  C   C604      1.0  0.58355  0.05918  0.17952  1.0000
  C   C605      1.0  0.56691  0.06936  0.18405  1.0000
  C   C606      1.0  0.55225  0.06117  0.19645  1.0000
  C   C607      1.0  0.55387  0.04271  0.20491  1.0000
  C   C608      1.0  0.57056  0.03255  0.20046  1.0000
  C   C609      1.0  0.58511  0.04065  0.18779  1.0000
  H   H1023     1.0  0.56526  0.08356  0.17793  1.0000
  H   H1024     1.0  0.53953  0.06930  0.19963  1.0000
  H   H1025     1.0  0.57220  0.01837  0.20663  1.0000
  H   H1026     1.0  0.59770  0.03242  0.18432  1.0000
  C   C610      1.0  0.62797  0.12779  0.01796  1.0000
  C   C611      1.0  0.62179  0.11598  0.03526  1.0000
  C   C612      1.0  0.61367  0.09950  0.02987  1.0000
  H   H1027     1.0  0.63430  0.14057  0.02166  1.0000
  H   H1028     1.0  0.60882  0.09015  0.04274  1.0000
  C   C613      1.0  0.61650  0.22445  0.17709  1.0000
  C   C614      1.0  0.59830  0.21868  0.17592  1.0000
  C   C615      1.0  0.59491  0.20054  0.16929  1.0000
  C   C616      1.0  0.60959  0.18781  0.16366  1.0000
  C   C617      1.0  0.62779  0.19364  0.16455  1.0000
  C   C618      1.0  0.63118  0.21176  0.17126  1.0000
  H   H1029     1.0  0.58681  0.22812  0.18035  1.0000
  H   H1030     1.0  0.58076  0.19630  0.16869  1.0000
  H   H1031     1.0  0.63928  0.18417  0.16024  1.0000
  H   H1032     1.0  0.64533  0.21595  0.17197  1.0000
  C   C619      1.0  0.57777  0.14972  0.08597  1.0000
  C   C620      1.0  0.34533  0.08411  0.44607  1.0000
  H   H1033     1.0  0.59100  0.14140  0.08456  1.0000
  C   C621      1.0  0.43148  0.11557  0.31595  1.0000
  C   C622      1.0  0.66059  0.06827  0.06773  1.0000
  H   H1034     1.0  0.44547  0.10876  0.31665  1.0000
  H   H1035     1.0  0.33471  0.10975  0.41727  1.0000
  H   H1036     1.0  0.43601  0.14127  0.29825  1.0000
  C   C623      1.0  0.63018  0.18254  0.08972  1.0000
  C   C624      1.0  0.45231  0.14378  0.37193  1.0000
  H   H1037     1.0  0.45037  0.13481  0.38681  1.0000
  H   H1038     1.0  0.42025  0.16532  0.34075  1.0000
  H   H1039     1.0  0.66557  0.08342  0.17304  1.0000
  N   N46       1.0  0.59456  0.18044  0.08989  1.0000
  H   H1040     1.0  0.59717  0.20075  0.06307  1.0000
  C   C625      1.0  0.61312  0.17052  0.09330  1.0000
  H   H1041     1.0  0.52817  0.03693  0.34051  1.0000
  C   C626      1.0  0.63006  0.04075  0.21384  1.0000
  H   H1042     1.0  0.54947  0.01461  0.34497  1.0000
  H   H1043     1.0  0.44761  0.15801  0.37651  1.0000
  H   H1044     1.0  0.57673  0.18817  0.06306  1.0000
  H   H1045     1.0  0.48925  0.13161  0.32539  1.0000
  C   C627      1.0  0.43150  0.13698  0.31510  1.0000
  N   N47       1.0  0.44278  0.14614  0.33168  1.0000
  H   H1046     1.0  0.65541  0.23363  0.20927  1.0000
  C   C628      1.0  0.59356  0.19731  0.10392  1.0000
  C   C629      1.0  0.39212  0.10216  0.49314  1.0000
  H   H1047     1.0  0.35671  0.09194  0.43788  1.0000
  C   C630      1.0  0.59181  0.18665  0.06643  1.0000
  C   C631      1.0  0.57475  0.20840  0.10497  1.0000
  H   H1048     1.0  0.59712  0.19333  0.12098  1.0000
  C   C632      1.0  0.43415  0.17813  0.31316  1.0000
  H   H1049     1.0  0.56907  0.21135  0.08863  1.0000
  H   H1050     1.0  0.56555  0.17505  0.09704  1.0000
  C   C633      1.0  0.46275  0.14722  0.32396  1.0000
  H   H1051     1.0  0.61373  0.16458  0.11020  1.0000
  H   H1052     1.0  0.61635  0.17499  0.04811  1.0000
  Fe  Fe93      1.0  0.52319  0.00922  0.24301  1.0000
  C   C634      1.0  0.33915  0.10848  0.48508  1.0000
  H   H1053     1.0  0.57189  0.15246  0.06968  1.0000
  Fe  Fe94      1.0  0.49505  0.00355  0.28204  1.0000
  H   H1054     1.0  0.56785  0.14089  0.09528  1.0000
  H   H1055     1.0  0.50371  0.04029  0.34331  1.0000
  H   H1056     1.0  0.64359  0.10511  0.22187  1.0000
  C   C635      1.0  0.64377  0.04541  0.19480  1.0000
  H   H1057     1.0  0.47099  0.11863  0.33634  1.0000
  H   H1058     1.0  0.35778  0.05978  0.43069  1.0000
  H   H1059     1.0  0.65708  0.10331  0.19735  1.0000
  C   C636      1.0  0.61174  0.09505  0.00774  1.0000
  H   H1060     1.0  0.65208  0.08955  0.02451  1.0000
  S   S180      1.0  0.40645  0.24241  0.33097  1.0000
  H   H1061     1.0  0.60536  0.08230  0.00401  1.0000
  C   C637      1.0  0.66684  0.09223  0.02060  1.0000
  C   C638      1.0  0.44075  0.13638  0.35369  1.0000
  H   H1062     1.0  0.66677  0.03830  0.23207  1.0000
  H   H1063     1.0  0.42737  0.19181  0.31722  1.0000
  H   H1064     1.0  0.63026  0.08126  0.20049  1.0000
  H   H1065     1.0  0.61780  0.05068  0.21379  1.0000
  H   H1066     1.0  0.66238  0.04369  0.15678  1.0000
  H   H1067     1.0  0.46362  0.15337  0.30714  1.0000
  H   H1068     1.0  0.41655  0.14163  0.31675  1.0000
  S   S181      1.0  0.52572  0.00872  0.27968  1.0000
  H   H1069     1.0  0.59756  0.15949  0.05047  1.0000
  C   C639      1.0  0.51261  0.01114  0.34263  1.0000
  H   H1070     1.0  0.44250  0.17344  0.34594  1.0000
  H   H1071     1.0  0.61531  0.15836  0.08282  1.0000
  S   S182      1.0  0.34228  0.09061  0.37657  1.0000
  H   H1072     1.0  0.63932  0.07226  0.22527  1.0000
  H   H1073     1.0  0.58123  0.16411  0.11564  1.0000
  C   C640      1.0  0.57947  0.16788  0.09805  1.0000
  H   H1074     1.0  0.47328  0.12223  0.30715  1.0000
  H   H1075     1.0  0.35278  0.10087  0.48557  1.0000
  H   H1076     1.0  0.42594  0.13702  0.35944  1.0000
  C   C641      1.0  0.47445  0.12878  0.32312  1.0000
  H   H1077     1.0  0.44447  0.12135  0.35307  1.0000
  H   H1078     1.0  0.56448  0.20115  0.11565  1.0000
  C   C642      1.0  0.51567  0.03130  0.34883  1.0000
  H   H1079     1.0  0.42283  0.11054  0.33001  1.0000
  C   C643      1.0  0.60103  0.17425  0.04866  1.0000
  H   H1080     1.0  0.62472  0.02675  0.21162  1.0000
  H   H1081     1.0  0.64411  0.07459  0.16590  1.0000
  S   S183      1.0  0.62184  0.24709  0.18583  1.0000
  H   H1082     1.0  0.59621  0.17934  0.03246  1.0000
  H   H1083     1.0  0.63215  0.19096  0.10422  1.0000
  H   H1084     1.0  0.46737  0.14322  0.36774  1.0000
  H   H1085     1.0  0.47025  0.15714  0.33360  1.0000
  H   H1086     1.0  0.40585  0.12767  0.48643  1.0000
  H   H1087     1.0  0.65631  0.06742  0.05074  1.0000
  H   H1088     1.0  0.42576  0.17231  0.30047  1.0000
  H   H1089     1.0  0.42500  0.11079  0.30112  1.0000
  H   H1090     1.0  0.65333  0.03299  0.19259  1.0000
  H   H1091     1.0  0.44823  0.18102  0.30652  1.0000
  C   C644      1.0  0.49918  0.01099  0.18399  1.0000
  H   H1092     1.0  0.63501  0.04607  0.18016  1.0000
  H   H1093     1.0  0.34450  0.12057  0.45296  1.0000
  H   H1094     1.0  0.64844  0.24061  0.24458  1.0000
  C   C645      1.0  0.64352  0.07749  0.20875  1.0000
  H   H1095     1.0  0.35065  0.07935  0.46215  1.0000
  C   C646      1.0  0.34364  0.06620  0.43351  1.0000
  H   H1096     1.0  0.50371  0.01871  0.19805  1.0000
  H   H1097     1.0  0.51623  0.03279  0.36667  1.0000
  H   H1098     1.0  0.53510  0.00935  0.38056  1.0000
  H   H1099     1.0  0.50477  0.01821  0.16914  1.0000
  H   H1100     1.0  0.64808  0.06587  0.07832  1.0000
  N   N48       1.0  0.65460  0.06287  0.19617  1.0000
  C   C647      1.0  0.65767  0.07058  0.17326  1.0000
  H   H1101     1.0  0.65591  0.09729  0.07367  1.0000
  H   H1102     1.0  0.66622  0.06220  0.24060  1.0000
  H   H1103     1.0  0.34092  0.12174  0.49334  1.0000
  H   H1104     1.0  0.66324  0.11424  0.04274  1.0000
  H   H1105     1.0  0.49815  0.00839  0.34794  1.0000
  S   S184      1.0  0.49191  0.00565  0.24548  1.0000
  C   C648      1.0  0.65331  0.09566  0.21260  1.0000
  H   H1106     1.0  0.51246  0.01089  0.32455  1.0000
  H   H1107     1.0  0.33773  0.06866  0.41724  1.0000
  H   H1108     1.0  0.33571  0.05585  0.44325  1.0000
  H   H1109     1.0  0.66580  0.09325  0.22252  1.0000
  H   H1110     1.0  0.53055  0.00225  0.13022  1.0000
  C   C649      1.0  0.57520  0.01512  0.73821  1.0000
  Fe  Fe95      1.0  0.65005  0.10639  0.88710  1.0000
  S   S185      1.0  0.62990  0.08615  0.90247  1.0000
  Fe  Fe96      1.0  0.62056  0.13862  0.88804  1.0000
  S   S186      1.0  0.59918  0.11993  0.90356  1.0000
  S   S187      1.0  0.60815  0.16872  0.88360  1.0000
  Fe  Fe97      1.0  0.62151  0.10881  0.92611  1.0000
  S   S188      1.0  0.61488  0.10027  0.96261  1.0000
  Fe  Fe98      1.0  0.60879  0.09846  0.87913  1.0000
  S   S189      1.0  0.58654  0.08428  0.85911  1.0000
  S   S190      1.0  0.64256  0.12846  0.91187  1.0000
  S   S191      1.0  0.62925  0.11770  0.86252  1.0000
  Fe  Fe99      1.0  0.36324  0.10216  0.64117  1.0000
  S   S192      1.0  0.38520  0.08495  0.62273  1.0000
  H   H1111     1.0  0.54696  0.22511  0.74018  1.0000
  Fe  Fe100     1.0  0.38988  0.13408  0.64636  1.0000
  S   S193      1.0  0.41344  0.11873  0.62832  1.0000
  S   S194      1.0  0.38558  0.16463  0.65680  1.0000
  Fe  Fe101     1.0  0.39247  0.11112  0.60368  1.0000
  S   S195      1.0  0.39883  0.11631  0.56635  1.0000
  Fe  Fe102     1.0  0.40499  0.09316  0.64841  1.0000
  S   S196      1.0  0.42525  0.06892  0.66023  1.0000
  S   S197      1.0  0.36958  0.12780  0.62077  1.0000
  S   S198      1.0  0.38238  0.10899  0.66774  1.0000
  H   H1112     1.0  0.52405  0.07085  0.95699  1.0000
  H   H1113     1.0  0.58487  0.23300  0.75865  1.0000
  S   S199      1.0  0.54646  0.01699  0.81413  1.0000
  H   H1114     1.0  0.54611  0.04467  0.88102  1.0000
  S   S200      1.0  0.47800  0.03509  0.73672  1.0000
  H   H1115     1.0  0.43960  0.02067  0.73256  1.0000
  S   S201      1.0  0.43053  0.23090  0.69517  1.0000
  C   C650      1.0  0.43993  0.05999  0.68178  1.0000
  C   C651      1.0  0.44270  0.06970  0.70071  1.0000
  C   C652      1.0  0.45453  0.06203  0.71704  1.0000
  C   C653      1.0  0.46384  0.04448  0.71491  1.0000
  C   C654      1.0  0.46096  0.03471  0.69606  1.0000
  C   C655      1.0  0.44918  0.04240  0.67972  1.0000
  H   H1116     1.0  0.43581  0.08320  0.70274  1.0000
  H   H1117     1.0  0.45648  0.06980  0.73146  1.0000
  H   H1118     1.0  0.46783  0.02120  0.69402  1.0000
  H   H1119     1.0  0.44725  0.03464  0.66529  1.0000
  C   C656      1.0  0.39539  0.11069  0.53831  1.0000
  C   C657      1.0  0.38682  0.09459  0.53242  1.0000
  C   C658      1.0  0.44131  0.02481  0.80048  1.0000
  H   H1120     1.0  0.36404  0.14197  0.69115  1.0000
  C   C659      1.0  0.40226  0.12244  0.52132  1.0000
  H   H1121     1.0  0.38145  0.08530  0.54503  1.0000
  H   H1122     1.0  0.40896  0.13492  0.52541  1.0000
  C   C660      1.0  0.39850  0.18282  0.66735  1.0000
  C   C661      1.0  0.41708  0.18027  0.67311  1.0000
  C   C662      1.0  0.42648  0.19505  0.68174  1.0000
  C   C663      1.0  0.41758  0.21266  0.68469  1.0000
  C   C664      1.0  0.39903  0.21525  0.67878  1.0000
  C   C665      1.0  0.38962  0.20046  0.67021  1.0000
  H   H1123     1.0  0.42417  0.16686  0.67112  1.0000
  H   H1124     1.0  0.44079  0.19278  0.68622  1.0000
  H   H1125     1.0  0.39183  0.22855  0.68113  1.0000
  H   H1126     1.0  0.37527  0.20269  0.66589  1.0000
  C   C666      1.0  0.57592  0.06540  0.84620  1.0000
  C   C667      1.0  0.56049  0.06917  0.83295  1.0000
  C   C668      1.0  0.55141  0.05475  0.82296  1.0000
  C   C669      1.0  0.55740  0.03609  0.82621  1.0000
  C   C670      1.0  0.57278  0.03231  0.83954  1.0000
  C   C671      1.0  0.58202  0.04674  0.84926  1.0000
  H   H1127     1.0  0.55551  0.08343  0.83032  1.0000
  H   H1128     1.0  0.53967  0.05810  0.81284  1.0000
  H   H1129     1.0  0.57765  0.01804  0.84234  1.0000
  H   H1130     1.0  0.59379  0.04340  0.85932  1.0000
  H   H1131     1.0  0.33902  0.12689  0.66959  1.0000
  H   H1132     1.0  0.39964  0.03237  0.74808  1.0000
  H   H1133     1.0  0.42892  0.02177  0.81093  1.0000
  H   H1134     1.0  0.63103  0.13257  0.98292  1.0000
  H   H1135     1.0  0.56480  0.02698  0.73815  1.0000
  C   C672      1.0  0.61474  0.22289  0.84150  1.0000
  C   C673      1.0  0.62843  0.20834  0.84038  1.0000
  C   C674      1.0  0.62658  0.19156  0.85275  1.0000
  C   C675      1.0  0.61096  0.18906  0.86648  1.0000
  C   C676      1.0  0.59715  0.20354  0.86736  1.0000
  C   C677      1.0  0.59898  0.22029  0.85497  1.0000
  H   H1136     1.0  0.64064  0.21005  0.82991  1.0000
  H   H1137     1.0  0.63735  0.18063  0.85182  1.0000
  H   H1138     1.0  0.58495  0.20179  0.87781  1.0000
  H   H1139     1.0  0.58816  0.23115  0.85584  1.0000
  H   H1140     1.0  0.60143  0.20093  0.80632  1.0000
  H   H1141     1.0  0.64784  0.23152  0.90847  1.0000
  H   H1142     1.0  0.54114  0.09053  0.90410  1.0000
  H   H1143     1.0  0.55678  0.05449  0.94845  1.0000
  H   H1144     1.0  0.59099  0.19808  0.78093  1.0000
  N   N49       1.0  0.56484  0.22946  0.78547  1.0000
  S   S202      1.0  0.52767  0.01007  0.75424  1.0000
  H   H1145     1.0  0.54500  0.06928  0.87820  1.0000
  C   C678      1.0  0.55587  0.21510  0.77254  1.0000
  H   H1146     1.0  0.54506  0.22440  0.82780  1.0000
  C   C679      1.0  0.55501  0.09159  0.91098  1.0000
  H   H1147     1.0  0.56315  0.04412  0.91372  1.0000
  C   C680      1.0  0.54077  0.22198  0.75661  1.0000
  H   H1148     1.0  0.45113  0.21510  0.61905  1.0000
  H   H1149     1.0  0.63801  0.22937  0.88172  1.0000
  C   C681      1.0  0.43623  0.02786  0.77647  1.0000
  H   H1150     1.0  0.56651  0.20740  0.76242  1.0000
  H   H1151     1.0  0.54998  0.20398  0.78337  1.0000
  H   H1152     1.0  0.61053  0.03804  0.78516  1.0000
  H   H1153     1.0  0.34782  0.14783  0.65917  1.0000
  H   H1154     1.0  0.53219  0.23415  0.76203  1.0000
  H   H1155     1.0  0.44669  0.03790  0.80631  1.0000
  C   C682      1.0  0.58221  0.07585  0.92647  1.0000
  H   H1156     1.0  0.45556  0.21229  0.64747  1.0000
  H   H1157     1.0  0.60758  0.06214  0.93806  1.0000
  H   H1158     1.0  0.57203  0.00568  0.72502  1.0000
  H   H1159     1.0  0.41908  0.04715  0.74200  1.0000
  C   C683      1.0  0.34885  0.14440  0.69398  1.0000
  H   H1160     1.0  0.54805  0.12070  0.91671  1.0000
  C   C684      1.0  0.62615  0.12326  0.99583  1.0000
  C   C685      1.0  0.44006  0.23805  0.63955  1.0000
  H   H1161     1.0  0.63653  0.21113  0.90168  1.0000
  H   H1162     1.0  0.40322  0.01505  0.78039  1.0000
  H   H1163     1.0  0.61241  0.01576  0.75504  1.0000
  Fe  Fe103     1.0  0.52444  0.00646  0.79078  1.0000
  H   H1164     1.0  0.59392  0.04700  0.92363  1.0000
  H   H1165     1.0  0.56708  0.01387  0.77270  1.0000
  C   C686      1.0  0.45470  0.22261  0.63364  1.0000
  C   C687      1.0  0.59308  0.05840  0.93533  1.0000
  H   H1166     1.0  0.57420  0.05839  0.89371  1.0000
  C   C688      1.0  0.33883  0.14208  0.67249  1.0000
  C   C689      1.0  0.60627  0.01127  0.77109  1.0000
  H   H1167     1.0  0.52737  0.24141  0.82094  1.0000
  H   H1168     1.0  0.55485  0.07784  0.95529  1.0000
  H   H1169     1.0  0.58343  0.08658  0.93883  1.0000
  C   C690      1.0  0.57704  0.21935  0.80195  1.0000
  H   H1170     1.0  0.34653  0.15852  0.70041  1.0000
  H   H1171     1.0  0.37884  0.07776  0.50606  1.0000
  H   H1172     1.0  0.59263  0.02556  0.79904  1.0000
  C   C691      1.0  0.53054  0.06730  0.94092  1.0000
  Fe  Fe104     1.0  0.49623  0.01123  0.75308  1.0000
  C   C692      1.0  0.55085  0.24145  0.79801  1.0000
  H   H1173     1.0  0.56652  0.11176  0.93291  1.0000
  N   N50       1.0  0.56220  0.07341  0.92117  1.0000
  H   H1174     1.0  0.46870  0.22825  0.63125  1.0000
  C   C693      1.0  0.38537  0.09033  0.51015  1.0000
  N   N51       1.0  0.44218  0.07148  0.57222  1.0000
  C   C694      1.0  0.42153  0.07031  0.57649  1.0000
  C   C695      1.0  0.44560  0.09004  0.56100  1.0000
  C   C696      1.0  0.45253  0.07004  0.59312  1.0000
  C   C697      1.0  0.44885  0.05559  0.55828  1.0000
  C   C698      1.0  0.41521  0.05337  0.59041  1.0000
  C   C699      1.0  0.44101  0.09166  0.53665  1.0000
  C   C700      1.0  0.44653  0.08456  0.61006  1.0000
  C   C701      1.0  0.46972  0.05500  0.55154  1.0000
  H   H1175     1.0  0.41568  0.08290  0.58468  1.0000
  H   H1176     1.0  0.41412  0.07018  0.56093  1.0000
  H   H1177     1.0  0.46022  0.09398  0.56242  1.0000
  H   H1178     1.0  0.43731  0.10140  0.56917  1.0000
  H   H1179     1.0  0.45145  0.05602  0.60111  1.0000
  H   H1180     1.0  0.46766  0.07156  0.58985  1.0000
  H   H1181     1.0  0.44657  0.04207  0.56697  1.0000
  H   H1182     1.0  0.44052  0.05490  0.54342  1.0000
  H   H1183     1.0  0.39981  0.05415  0.59196  1.0000
  H   H1184     1.0  0.41911  0.04000  0.58278  1.0000
  H   H1185     1.0  0.42035  0.05335  0.60722  1.0000
  H   H1186     1.0  0.42708  0.08673  0.53353  1.0000
  H   H1187     1.0  0.44112  0.10650  0.53111  1.0000
  H   H1188     1.0  0.45151  0.08393  0.52645  1.0000
  H   H1189     1.0  0.44865  0.09895  0.60384  1.0000
  H   H1190     1.0  0.45505  0.08222  0.62471  1.0000
  H   H1191     1.0  0.43189  0.08321  0.61560  1.0000
  H   H1192     1.0  0.47785  0.04602  0.56316  1.0000
  H   H1193     1.0  0.47578  0.06883  0.55060  1.0000
  H   H1194     1.0  0.47166  0.04934  0.53499  1.0000
  H   H1195     1.0  0.58872  0.02119  0.73420  1.0000
  H   H1196     1.0  0.53072  0.21090  0.75511  1.0000
  C   C702      1.0  0.56191  0.05795  0.90515  1.0000
  H   H1197     1.0  0.44831  0.03410  0.76771  1.0000
  H   H1198     1.0  0.45905  0.00337  0.75662  1.0000
  H   H1199     1.0  0.60692  0.22778  0.89802  1.0000
  C   C703      1.0  0.55313  0.10821  0.92622  1.0000
  H   H1200     1.0  0.54286  0.10586  0.93974  1.0000
  H   H1201     1.0  0.34437  0.13396  0.70653  1.0000
  C   C704      1.0  0.59441  0.20859  0.79270  1.0000
  H   H1202     1.0  0.56407  0.09566  0.89672  1.0000
  S   S203      1.0  0.61779  0.24373  0.82533  1.0000
  C   C705      1.0  0.63610  0.22653  0.89949  1.0000
  C   C706      1.0  0.57703  0.24151  0.77098  1.0000
  H   H1203     1.0  0.58203  0.22929  0.81369  1.0000
  H   H1204     1.0  0.40908  0.03519  0.72087  1.0000
  C   C707      1.0  0.53763  0.23110  0.81391  1.0000
  H   H1205     1.0  0.58738  0.05343  0.95133  1.0000
  C   C708      1.0  0.61794  0.10683  0.99041  1.0000
  H   H1206     1.0  0.59010  0.08085  0.91170  1.0000
  H   H1207     1.0  0.60469  0.21810  0.78524  1.0000
  C   C709      1.0  0.54503  0.05759  0.89045  1.0000
  H   H1208     1.0  0.56915  0.20903  0.81193  1.0000
  H   H1209     1.0  0.42499  0.03893  0.77666  1.0000
  C   C710      1.0  0.41298  0.00348  0.77524  1.0000
  H   H1210     1.0  0.52968  0.22079  0.80560  1.0000
  C   C711      1.0  0.55178  0.06837  0.94203  1.0000
  H   H1211     1.0  0.53162  0.05765  0.89963  1.0000
  H   H1212     1.0  0.52412  0.07741  0.92922  1.0000
  C   C712      1.0  0.59886  0.02888  0.78274  1.0000
  H   H1213     1.0  0.58855  0.03706  0.77293  1.0000
  H   H1214     1.0  0.52672  0.05306  0.93703  1.0000
  C   C713      1.0  0.41270  0.03393  0.73832  1.0000
  C   C714      1.0  0.42516  0.24095  0.60311  1.0000
  H   H1215     1.0  0.61486  0.22849  0.92490  1.0000
  N   N52       1.0  0.43041  0.01110  0.76478  1.0000
  S   S204      1.0  0.49299  0.00933  0.78995  1.0000
  C   C715      1.0  0.42653  0.01717  0.74152  1.0000
  H   H1216     1.0  0.42826  0.23103  0.64749  1.0000
  C   C716      1.0  0.33475  0.18165  0.66184  1.0000
  H   H1217     1.0  0.57789  0.23645  0.90493  1.0000
  C   C717      1.0  0.41244  0.22486  0.61009  1.0000
  C   C718      1.0  0.61712  0.23431  0.90804  1.0000
  H   H1218     1.0  0.40621  0.22538  0.62673  1.0000
  H   H1219     1.0  0.40067  0.22493  0.59890  1.0000
  H   H1220     1.0  0.43613  0.23469  0.59207  1.0000
  H   H1221     1.0  0.42096  0.00564  0.73249  1.0000
  H   H1222     1.0  0.41993  0.21118  0.60807  1.0000
  H   H1223     1.0  0.33801  0.17764  0.64490  1.0000
  H   H1224     1.0  0.33396  0.14647  0.62829  1.0000
  H   H1225     1.0  0.34753  0.17956  0.67131  1.0000
  H   H1226     1.0  0.58779  0.24772  0.78075  1.0000
  C   C719      1.0  0.57430  0.00468  0.76059  1.0000
  H   H1227     1.0  0.45246  0.01396  0.80295  1.0000
  H   H1228     1.0  0.61837  0.00565  0.78042  1.0000
  H   H1229     1.0  0.44581  0.24607  0.65274  1.0000
  H   H1230     1.0  0.54187  0.25016  0.78715  1.0000
  H   H1231     1.0  0.46111  0.24948  0.60443  1.0000
  N   N53       1.0  0.43403  0.25092  0.62102  1.0000
  H   H1232     1.0  0.41693  0.25101  0.59272  1.0000
  H   H1233     1.0  0.45364  0.45290  0.00634  1.0000
  H   H1234     1.0  0.35997  0.36678  0.37422  1.0000
  C   C720      1.0  0.63220  0.36667  0.07580  1.0000
  H   H1235     1.0  0.41403  0.36073  0.34792  1.0000
  H   H1236     1.0  0.53331  0.36489  0.15705  1.0000
  Fe  Fe105     1.0  0.59475  0.31387  0.17938  1.0000
  S   S205      1.0  0.62133  0.30062  0.19218  1.0000
  S   S206      1.0  0.59323  0.33696  0.15298  1.0000
  Fe  Fe106     1.0  0.57072  0.29511  0.21496  1.0000
  S   S207      1.0  0.59561  0.28040  0.23029  1.0000
  S   S208      1.0  0.53920  0.29471  0.22165  1.0000
  Fe  Fe107     1.0  0.60993  0.30781  0.22560  1.0000
  S   S209      1.0  0.62639  0.31851  0.25413  1.0000
  Fe  Fe108     1.0  0.60554  0.27408  0.19588  1.0000
  S   S210      1.0  0.58427  0.32262  0.21258  1.0000
  S   S211      1.0  0.57989  0.28716  0.18076  1.0000
  Fe  Fe109     1.0  0.55670  0.35940  0.03396  1.0000
  H   H1237     1.0  0.51388  0.42164  0.02874  1.0000
  S   S212      1.0  0.55889  0.33524  0.05885  1.0000
  H   H1238     1.0  0.51838  0.29881  0.16189  1.0000
  H   H1239     1.0  0.39996  0.37843  0.37459  1.0000
  S   S213      1.0  0.53705  0.38447  0.03696  1.0000
  Fe  Fe110     1.0  0.37535  0.44659  0.04294  1.0000
  C   C721      1.0  0.62193  0.39996  0.03254  1.0000
  S   S214      1.0  0.35360  0.45243  0.07002  1.0000
  Fe  Fe111     1.0  0.40645  0.42225  0.02280  1.0000
  H   H1240     1.0  0.63698  0.36371  0.09260  1.0000
  C   C722      1.0  0.53354  0.29920  0.15865  1.0000
  C   C723      1.0  0.66170  0.36205  0.24742  1.0000
  C   C724      1.0  0.40920  0.35950  0.33120  1.0000
  S   S215      1.0  0.40611  0.44444  0.04763  1.0000
  H   H1241     1.0  0.54329  0.31696  0.18262  1.0000
  S   S216      1.0  0.47001  0.38689  0.48195  1.0000
  H   H1242     1.0  0.65118  0.47386  0.22527  1.0000
  S   S217      1.0  0.47120  0.33253  0.46594  1.0000
  H   H1243     1.0  0.35034  0.32865  0.35697  1.0000
  Fe  Fe112     1.0  0.43022  0.30625  0.35133  1.0000
  S   S218      1.0  0.40477  0.29748  0.33476  1.0000
  S   S219      1.0  0.42682  0.32731  0.37837  1.0000
  Fe  Fe113     1.0  0.45666  0.29041  0.31529  1.0000
  S   S220      1.0  0.43293  0.28089  0.29617  1.0000
  S   S221      1.0  0.48827  0.28844  0.30898  1.0000
  Fe  Fe114     1.0  0.41806  0.30850  0.30362  1.0000
  S   S222      1.0  0.40661  0.33104  0.27933  1.0000
  Fe  Fe115     1.0  0.42116  0.27035  0.32888  1.0000
  S   S223      1.0  0.44279  0.31839  0.32050  1.0000
  S   S224      1.0  0.44571  0.27859  0.34766  1.0000
  C   C725      1.0  0.35060  0.36256  0.26535  1.0000
  C   C726      1.0  0.36755  0.37033  0.25945  1.0000
  C   C727      1.0  0.38447  0.36049  0.26392  1.0000
  C   C728      1.0  0.38477  0.34291  0.27472  1.0000
  C   C729      1.0  0.36783  0.33529  0.28096  1.0000
  H   H1244     1.0  0.38399  0.33278  0.14666  1.0000
  H   H1245     1.0  0.36761  0.38393  0.25147  1.0000
  H   H1246     1.0  0.39746  0.36658  0.25906  1.0000
  H   H1247     1.0  0.36776  0.32176  0.28915  1.0000
  C   C730      1.0  0.37402  0.34874  0.17441  1.0000
  C   C731      1.0  0.45795  0.33121  0.44224  1.0000
  C   C732      1.0  0.45761  0.31415  0.43182  1.0000
  C   C733      1.0  0.44795  0.31264  0.41243  1.0000
  C   C734      1.0  0.43877  0.32827  0.40306  1.0000
  C   C735      1.0  0.43889  0.34527  0.41362  1.0000
  C   C736      1.0  0.44843  0.34676  0.43310  1.0000
  H   H1248     1.0  0.46475  0.30200  0.43889  1.0000
  H   H1249     1.0  0.44741  0.29935  0.40488  1.0000
  H   H1250     1.0  0.43165  0.35741  0.40665  1.0000
  H   H1251     1.0  0.44856  0.35997  0.44094  1.0000
  H   H1252     1.0  0.36847  0.34203  0.23011  1.0000
  C   C737      1.0  0.35217  0.43992  0.09536  1.0000
  C   C738      1.0  0.54082  0.35194  0.16282  1.0000
  C   C739      1.0  0.37400  0.33121  0.16069  1.0000
  C   C740      1.0  0.36075  0.41363  0.11940  1.0000
  C   C741      1.0  0.36280  0.42352  0.09934  1.0000
  C   C742      1.0  0.46121  0.38415  0.02888  1.0000
  H   H1253     1.0  0.36887  0.40083  0.12216  1.0000
  H   H1254     1.0  0.37246  0.41836  0.08687  1.0000
  H   H1255     1.0  0.36018  0.38431  0.30885  1.0000
  H   H1256     1.0  0.35002  0.39157  0.33481  1.0000
  H   H1257     1.0  0.48788  0.46414  0.04399  1.0000
  H   H1258     1.0  0.62133  0.38465  0.03186  1.0000
  N   N54       1.0  0.53040  0.33503  0.15769  1.0000
  C   C743      1.0  0.35066  0.38053  0.32268  1.0000
  C   C744      1.0  0.54428  0.35499  0.18696  1.0000
  H   H1259     1.0  0.48282  0.27294  0.37774  1.0000
  H   H1260     1.0  0.53000  0.36367  0.12113  1.0000
  C   C745      1.0  0.34523  0.33895  0.19401  1.0000
  C   C746      1.0  0.52539  0.29317  0.24623  1.0000
  C   C747      1.0  0.53317  0.29029  0.26667  1.0000
  C   C748      1.0  0.52160  0.28883  0.28560  1.0000
  C   C749      1.0  0.50211  0.29039  0.28444  1.0000
  C   C750      1.0  0.49433  0.29340  0.26401  1.0000
  C   C751      1.0  0.50590  0.29471  0.24506  1.0000
  H   H1261     1.0  0.54809  0.28897  0.26787  1.0000
  H   H1262     1.0  0.52782  0.28629  0.30121  1.0000
  H   H1263     1.0  0.47939  0.29456  0.26280  1.0000
  H   H1264     1.0  0.64098  0.42295  0.26829  1.0000
  C   C752      1.0  0.58408  0.33591  0.12666  1.0000
  C   C753      1.0  0.57972  0.31915  0.11767  1.0000
  C   C754      1.0  0.57217  0.31916  0.09680  1.0000
  C   C755      1.0  0.56898  0.33586  0.08470  1.0000
  C   C756      1.0  0.57332  0.35260  0.09371  1.0000
  C   C757      1.0  0.58082  0.35260  0.11459  1.0000
  H   H1265     1.0  0.58217  0.30621  0.12677  1.0000
  H   H1266     1.0  0.56880  0.30614  0.08997  1.0000
  H   H1267     1.0  0.57065  0.36550  0.08465  1.0000
  H   H1268     1.0  0.58395  0.36560  0.12160  1.0000
  C   C758      1.0  0.64216  0.33643  0.25911  1.0000
  H   H1269     1.0  0.62418  0.25297  0.26793  1.0000
  H   H1270     1.0  0.39304  0.31612  0.20279  1.0000
  S   S225      1.0  0.37792  0.46834  0.01583  1.0000
  N   N55       1.0  0.61200  0.40109  0.43678  1.0000
  H   H1271     1.0  0.61559  0.43846  0.44721  1.0000
  H   H1272     1.0  0.64371  0.37191  0.06541  1.0000
  S   S226      1.0  0.42471  0.39676  0.03118  1.0000
  H   H1273     1.0  0.57363  0.38856  0.44847  1.0000
  H   H1274     1.0  0.50404  0.31432  0.19228  1.0000
  C   C759      1.0  0.52924  0.33456  0.13321  1.0000
  H   H1275     1.0  0.62420  0.49013  0.40920  1.0000
  H   H1276     1.0  0.38170  0.38313  0.18551  1.0000
  C   C760      1.0  0.47895  0.38184  0.01878  1.0000
  H   H1277     1.0  0.64657  0.45592  0.26693  1.0000
  H   H1278     1.0  0.55342  0.36690  0.18805  1.0000
  H   H1279     1.0  0.64572  0.39172  0.39531  1.0000
  C   C761      1.0  0.63536  0.26255  0.26318  1.0000
  H   H1280     1.0  0.38881  0.35176  0.17678  1.0000
  H   H1281     1.0  0.34421  0.35780  0.34454  1.0000
  H   H1282     1.0  0.59462  0.48790  0.03622  1.0000
  H   H1283     1.0  0.57343  0.46433  0.05162  1.0000
  H   H1284     1.0  0.63426  0.41167  0.45503  1.0000
  C   C762      1.0  0.54147  0.31777  0.16485  1.0000
  H   H1285     1.0  0.59580  0.38255  0.41894  1.0000
  C   C763      1.0  0.50852  0.32887  0.19158  1.0000
  C   C764      1.0  0.59566  0.49278  0.47384  1.0000
  H   H1286     1.0  0.51803  0.34885  0.10451  1.0000
  H   H1287     1.0  0.65597  0.28991  0.25379  1.0000
  C   C765      1.0  0.58642  0.38017  0.45251  1.0000
  C   C766      1.0  0.62296  0.40174  0.45726  1.0000
  H   H1288     1.0  0.53119  0.35878  0.19605  1.0000
  H   H1289     1.0  0.48651  0.43246  0.04640  1.0000
  H   H1290     1.0  0.64737  0.41189  0.22463  1.0000
  H   H1291     1.0  0.61418  0.40737  0.47096  1.0000
  N   N56       1.0  0.49701  0.31820  0.37034  1.0000
  C   C767      1.0  0.49264  0.33135  0.35130  1.0000
  C   C768      1.0  0.51706  0.31159  0.36746  1.0000
  C   C769      1.0  0.49429  0.32898  0.39095  1.0000
  C   C770      1.0  0.48384  0.30256  0.37006  1.0000
  C   C771      1.0  0.47414  0.34294  0.35321  1.0000
  C   C772      1.0  0.52177  0.30027  0.34701  1.0000
  C   C773      1.0  0.50344  0.32071  0.41164  1.0000
  C   C774      1.0  0.48748  0.28555  0.38551  1.0000
  H   H1292     1.0  0.50377  0.34145  0.34845  1.0000
  H   H1293     1.0  0.49210  0.32367  0.33590  1.0000
  H   H1294     1.0  0.52191  0.30287  0.38148  1.0000
  H   H1295     1.0  0.52619  0.32367  0.36689  1.0000
  H   H1296     1.0  0.49985  0.34310  0.38850  1.0000
  H   H1297     1.0  0.47925  0.33131  0.39510  1.0000
  H   H1298     1.0  0.46940  0.30772  0.37388  1.0000
  H   H1299     1.0  0.48284  0.29726  0.35339  1.0000
  H   H1300     1.0  0.47445  0.35354  0.36585  1.0000
  H   H1301     1.0  0.47162  0.35050  0.33746  1.0000
  H   H1302     1.0  0.46217  0.33416  0.35666  1.0000
  H   H1303     1.0  0.51967  0.30866  0.33177  1.0000
  H   H1304     1.0  0.53667  0.29565  0.34696  1.0000
  H   H1305     1.0  0.51368  0.28757  0.34678  1.0000
  H   H1306     1.0  0.49875  0.32928  0.42567  1.0000
  H   H1307     1.0  0.51878  0.32130  0.41045  1.0000
  H   H1308     1.0  0.49944  0.30641  0.41583  1.0000
  H   H1309     1.0  0.60192  0.48991  0.42344  1.0000
  H   H1310     1.0  0.50222  0.28238  0.38885  1.0000
  C   C775      1.0  0.59088  0.44086  0.00792  1.0000
  C   C776      1.0  0.35091  0.34504  0.27625  1.0000
  H   H1311     1.0  0.35158  0.36908  0.21808  1.0000
  C   C777      1.0  0.62434  0.40390  0.41669  1.0000
  C   C778      1.0  0.64901  0.34841  0.24261  1.0000
  C   C779      1.0  0.63849  0.38802  0.41102  1.0000
  H   H1312     1.0  0.49012  0.37465  0.02739  1.0000
  C   C780      1.0  0.33964  0.44640  0.11175  1.0000
  Fe  Fe116     1.0  0.40868  0.46416  0.01879  1.0000
  H   H1313     1.0  0.49703  0.33710  0.19968  1.0000
  H   H1314     1.0  0.61574  0.40651  0.40207  1.0000
  H   H1315     1.0  0.63200  0.37464  0.40868  1.0000
  H   H1316     1.0  0.64466  0.26282  0.27703  1.0000
  H   H1317     1.0  0.41852  0.36757  0.32011  1.0000
  H   H1318     1.0  0.34847  0.37471  0.19011  1.0000
  C   C781      1.0  0.51096  0.33606  0.16765  1.0000
  C   C782      1.0  0.62859  0.40599  0.05467  1.0000
  C   C783      1.0  0.44668  0.39373  0.01797  1.0000
  C   C784      1.0  0.51600  0.43554  0.02097  1.0000
  H   H1319     1.0  0.47702  0.41952  0.02585  1.0000
  H   H1320     1.0  0.58862  0.41632  0.45213  1.0000
  C   C785      1.0  0.47656  0.43350  0.03292  1.0000
  C   C786      1.0  0.45716  0.43663  0.04391  1.0000
  H   H1321     1.0  0.58776  0.41567  0.42327  1.0000
  H   H1322     1.0  0.36937  0.39539  0.20644  1.0000
  H   H1323     1.0  0.66220  0.41761  0.28277  1.0000
  C   C787      1.0  0.52044  0.35202  0.12173  1.0000
  S   S227      1.0  0.61103  0.44487  0.49439  1.0000
  H   H1324     1.0  0.62939  0.42142  0.05373  1.0000
  H   H1325     1.0  0.33663  0.38018  0.31578  1.0000
  C   C788      1.0  0.38929  0.36837  0.37959  1.0000
  H   H1326     1.0  0.52105  0.32273  0.12840  1.0000
  H   H1327     1.0  0.38226  0.31289  0.22942  1.0000
  H   H1328     1.0  0.59705  0.48295  0.46045  1.0000
  H   H1329     1.0  0.45460  0.45104  0.04941  1.0000
  H   H1330     1.0  0.44606  0.43305  0.03294  1.0000
  H   H1331     1.0  0.45589  0.42708  0.05841  1.0000
  H   H1332     1.0  0.62898  0.35324  0.06871  1.0000
  H   H1333     1.0  0.50501  0.35058  0.16665  1.0000
  H   H1334     1.0  0.65193  0.39114  0.09436  1.0000
  C   C789      1.0  0.65903  0.44666  0.26978  1.0000
  S   S228      1.0  0.65080  0.45381  0.45234  1.0000
  H   H1335     1.0  0.52072  0.32983  0.20177  1.0000
  H   H1336     1.0  0.63194  0.40445  0.01949  1.0000
  S   S229      1.0  0.37522  0.42294  0.01990  1.0000
  H   H1337     1.0  0.34735  0.32465  0.18808  1.0000
  N   N57       1.0  0.61687  0.40020  0.07433  1.0000
  H   H1338     1.0  0.59889  0.42449  0.06690  1.0000
  C   C790      1.0  0.62483  0.40713  0.09481  1.0000
  C   C791      1.0  0.61450  0.37950  0.07603  1.0000
  H   H1339     1.0  0.47952  0.28707  0.40115  1.0000
  C   C792      1.0  0.38003  0.31863  0.21263  1.0000
  H   H1340     1.0  0.60399  0.48740  0.48770  1.0000
  H   H1341     1.0  0.36888  0.31044  0.20647  1.0000
  H   H1342     1.0  0.50687  0.35643  0.12933  1.0000
  H   H1343     1.0  0.60533  0.37481  0.06327  1.0000
  H   H1344     1.0  0.61862  0.40001  0.10951  1.0000
  H   H1345     1.0  0.60685  0.37574  0.09141  1.0000
  H   H1346     1.0  0.62110  0.37403  0.47348  1.0000
  C   C793      1.0  0.34819  0.42007  0.13574  1.0000
  C   C794      1.0  0.37498  0.33958  0.21380  1.0000
  H   H1347     1.0  0.64460  0.34713  0.22612  1.0000
  H   H1348     1.0  0.64963  0.40911  0.11353  1.0000
  C   C795      1.0  0.66509  0.26242  0.21006  1.0000
  H   H1349     1.0  0.64717  0.29158  0.22752  1.0000
  H   H1350     1.0  0.36924  0.31417  0.36646  1.0000
  S   S230      1.0  0.34508  0.40627  0.15992  1.0000
  C   C796      1.0  0.58167  0.46144  0.03699  1.0000
  Fe  Fe117     1.0  0.56106  0.40045  0.02308  1.0000
  H   H1351     1.0  0.50169  0.32768  0.15813  1.0000
  H   H1352     1.0  0.33661  0.34646  0.18150  1.0000
  H   H1353     1.0  0.63266  0.41643  0.41797  1.0000
  H   H1354     1.0  0.57077  0.41503  0.08731  1.0000
  H   H1355     1.0  0.38882  0.38220  0.32863  1.0000
  H   H1356     1.0  0.58214  0.39436  0.09783  1.0000
  H   H1357     1.0  0.55592  0.31804  0.15789  1.0000
  H   H1358     1.0  0.64319  0.40070  0.05572  1.0000
  N   N58       1.0  0.37431  0.35912  0.34381  1.0000
  C   C797      1.0  0.35582  0.36117  0.33290  1.0000
  C   C798      1.0  0.37824  0.33863  0.34824  1.0000
  C   C799      1.0  0.37272  0.37000  0.36436  1.0000
  C   C800      1.0  0.50027  0.44099  0.00526  1.0000
  C   C801      1.0  0.36432  0.32890  0.36386  1.0000
  S   S231      1.0  0.33387  0.42124  0.22108  1.0000
  C   C802      1.0  0.64827  0.33842  0.28044  1.0000
  C   C803      1.0  0.64526  0.25578  0.24206  1.0000
  H   H1359     1.0  0.39208  0.33567  0.35517  1.0000
  H   H1360     1.0  0.37882  0.33113  0.33263  1.0000
  H   H1361     1.0  0.37069  0.38509  0.36033  1.0000
  H   H1362     1.0  0.36347  0.33520  0.38009  1.0000
  H   H1363     1.0  0.64093  0.38621  0.47976  1.0000
  Fe  Fe118     1.0  0.47012  0.35617  0.48990  1.0000
  C   C804      1.0  0.33772  0.43660  0.13189  1.0000
  H   H1364     1.0  0.59325  0.44690  0.43871  1.0000
  H   H1365     1.0  0.64652  0.44278  0.23110  1.0000
  C   C805      1.0  0.65126  0.42842  0.27915  1.0000
  C   C806      1.0  0.35854  0.36827  0.20174  1.0000
  H   H1366     1.0  0.54011  0.28767  0.16854  1.0000
  N   N59       1.0  0.36333  0.34837  0.19599  1.0000
  H   H1367     1.0  0.37830  0.31836  0.16982  1.0000
  H   H1368     1.0  0.60831  0.40672  0.02849  1.0000
  H   H1369     1.0  0.62300  0.48134  0.43608  1.0000
  H   H1370     1.0  0.64317  0.32930  0.29340  1.0000
  H   H1371     1.0  0.64951  0.38642  0.42305  1.0000
  H   H1372     1.0  0.33419  0.47878  0.29863  1.0000
  H   H1373     1.0  0.58278  0.36535  0.45305  1.0000
  H   H1374     1.0  0.46980  0.47373  0.02795  1.0000
  H   H1375     1.0  0.59046  0.40316  0.05850  1.0000
  H   H1376     1.0  0.38846  0.34638  0.21442  1.0000
  H   H1377     1.0  0.51726  0.44577  0.03383  1.0000
  C   C807      1.0  0.48366  0.46629  0.02679  1.0000
  H   H1378     1.0  0.38530  0.37688  0.21401  1.0000
  C   C808      1.0  0.66122  0.43735  0.23102  1.0000
  C   C809      1.0  0.66086  0.35214  0.28527  1.0000
  H   H1379     1.0  0.38430  0.37133  0.39647  1.0000
  H   H1380     1.0  0.33791  0.33890  0.28102  1.0000
  C   C810      1.0  0.37490  0.38136  0.20185  1.0000
  H   H1381     1.0  0.36845  0.36026  0.16352  1.0000
  H   H1382     1.0  0.61185  0.37092  0.43630  1.0000
  H   H1383     1.0  0.55457  0.35164  0.15404  1.0000
  H   H1384     1.0  0.55161  0.34298  0.19503  1.0000
  C   C811      1.0  0.60481  0.43662  0.43522  1.0000
  H   H1385     1.0  0.53683  0.29628  0.14130  1.0000
  H   H1386     1.0  0.59058  0.38363  0.46900  1.0000
  H   H1387     1.0  0.62116  0.42224  0.09649  1.0000
  H   H1388     1.0  0.64035  0.37549  0.45418  1.0000
  H   H1389     1.0  0.45877  0.37871  0.04530  1.0000
  S   S232      1.0  0.58120  0.37565  0.02230  1.0000
  H   H1390     1.0  0.64379  0.43125  0.29488  1.0000
  C   C812      1.0  0.59784  0.40951  0.07177  1.0000
  H   H1391     1.0  0.58929  0.41698  0.10541  1.0000
  C   C813      1.0  0.38897  0.36676  0.32825  1.0000
  H   H1392     1.0  0.38597  0.36350  0.31120  1.0000
  H   H1393     1.0  0.54327  0.33216  0.12551  1.0000
  S   S233      1.0  0.56497  0.42808  0.03846  1.0000
  C   C814      1.0  0.58017  0.44446  0.02681  1.0000
  C   C815      1.0  0.59369  0.47482  0.02830  1.0000
  H   H1394     1.0  0.61044  0.44003  0.41861  1.0000
  H   H1395     1.0  0.41103  0.34483  0.32638  1.0000
  C   C816      1.0  0.58450  0.40875  0.09194  1.0000
  H   H1396     1.0  0.66325  0.49380  0.46785  1.0000
  N   N60       1.0  0.48221  0.44794  0.01589  1.0000
  C   C817      1.0  0.64610  0.40536  0.09683  1.0000
  H   H1397     1.0  0.52945  0.43450  0.01164  1.0000
  C   C818      1.0  0.63175  0.38322  0.46629  1.0000
  H   H1398     1.0  0.36018  0.32961  0.15373  1.0000
  Fe  Fe119     1.0  0.64172  0.44589  0.48720  1.0000
  C   C819      1.0  0.59742  0.41686  0.43688  1.0000
  H   H1399     1.0  0.65251  0.48326  0.25227  1.0000
  C   C820      1.0  0.60208  0.38325  0.43520  1.0000
  C   C821      1.0  0.60440  0.47126  0.00940  1.0000
  H   H1400     1.0  0.35521  0.35107  0.31969  1.0000
  H   H1401     1.0  0.49967  0.29680  0.22938  1.0000
  H   H1402     1.0  0.39580  0.35425  0.38091  1.0000
  H   H1403     1.0  0.65531  0.49948  0.44127  1.0000
  H   H1404     1.0  0.47656  0.48719  0.49187  1.0000
  H   H1405     1.0  0.51202  0.47524  0.01860  1.0000
  C   C822      1.0  0.66306  0.43881  0.43396  1.0000
  C   C823      1.0  0.66107  0.41588  0.23024  1.0000
  C   C824      1.0  0.49739  0.48010  0.01634  1.0000
  H   H1406     1.0  0.63086  0.48811  0.46795  1.0000
  H   H1407     1.0  0.66662  0.45300  0.28301  1.0000
  S   S234      1.0  0.43150  0.48490  0.01581  1.0000
  H   H1408     1.0  0.62842  0.27649  0.26063  1.0000
  H   H1409     1.0  0.58095  0.49301  0.47983  1.0000
  H   H1410     1.0  0.63442  0.25694  0.22951  1.0000
  C   C825      1.0  0.66054  0.47897  0.23743  1.0000
  H   H1411     1.0  0.34044  0.32932  0.22829  1.0000
  H   H1412     1.0  0.66656  0.49183  0.23029  1.0000
  H   H1413     1.0  0.66530  0.35338  0.30176  1.0000
  C   C826      1.0  0.66567  0.44473  0.41207  1.0000
  C   C827      1.0  0.61689  0.49227  0.42518  1.0000
  H   H1414     1.0  0.49543  0.49356  0.02461  1.0000
  H   H1415     1.0  0.65322  0.26893  0.20092  1.0000
  C   C828      1.0  0.65946  0.28631  0.23673  1.0000
  H   H1416     1.0  0.65314  0.41527  0.08545  1.0000
  N   N61       1.0  0.66240  0.26564  0.23414  1.0000
  H   H1417     1.0  0.66051  0.45842  0.40683  1.0000
  H   H1418     1.0  0.66321  0.40828  0.24587  1.0000
  H   H1419     1.0  0.66691  0.37106  0.23443  1.0000
  Fe  Fe120     1.0  0.53052  0.38011  0.00210  1.0000
  Fe  Fe121     1.0  0.61583  0.46122  0.52390  1.0000
  S   S235      1.0  0.62097  0.43608  0.54586  1.0000
  S   S236      1.0  0.59404  0.48266  0.53521  1.0000
  S   S237      1.0  0.34191  0.40038  0.88389  1.0000
  Fe  Fe122     1.0  0.61824  0.41994  0.51560  1.0000
  Fe  Fe123     1.0  0.65090  0.43834  0.53521  1.0000
  H   H1420     1.0  0.48310  0.46893  0.53729  1.0000
  C   C829      1.0  0.57704  0.39851  0.51076  1.0000
  S   S238      1.0  0.34467  0.38115  0.77406  1.0000
  H   H1421     1.0  0.64641  0.41555  0.62648  1.0000
  H   H1422     1.0  0.66186  0.47373  0.64506  1.0000
  S   S239      1.0  0.58980  0.36716  0.95834  1.0000
  C   C830      1.0  0.34992  0.44491  0.92156  1.0000
  Fe  Fe124     1.0  0.58483  0.30249  0.85422  1.0000
  S   S240      1.0  0.61341  0.29782  0.83887  1.0000
  S   S241      1.0  0.57693  0.30455  0.89035  1.0000
  Fe  Fe125     1.0  0.56516  0.29306  0.81217  1.0000
  S   S242      1.0  0.59250  0.28746  0.79408  1.0000
  S   S243      1.0  0.53540  0.28665  0.80364  1.0000
  Fe  Fe126     1.0  0.60192  0.27220  0.82492  1.0000
  Fe  Fe127     1.0  0.60199  0.31351  0.80934  1.0000
  S   S244      1.0  0.61412  0.33857  0.78997  1.0000
  S   S245      1.0  0.57427  0.27615  0.84169  1.0000
  S   S246      1.0  0.57381  0.31974  0.82598  1.0000
  H   H1423     1.0  0.35894  0.34979  0.80197  1.0000
  S   S247      1.0  0.36448  0.45108  0.96134  1.0000
  H   H1424     1.0  0.62346  0.45567  0.93587  1.0000
  H   H1425     1.0  0.46966  0.40287  0.96979  1.0000
  Fe  Fe128     1.0  0.45597  0.29280  0.71195  1.0000
  S   S248      1.0  0.43621  0.27536  0.73170  1.0000
  S   S249      1.0  0.48563  0.30009  0.71972  1.0000
  Fe  Fe129     1.0  0.42760  0.30080  0.67616  1.0000
  S   S250      1.0  0.40568  0.28412  0.69411  1.0000
  S   S251      1.0  0.42029  0.31356  0.64278  1.0000
  Fe  Fe130     1.0  0.41451  0.29827  0.72418  1.0000
  S   S252      1.0  0.39672  0.30852  0.75372  1.0000
  Fe  Fe131     1.0  0.42885  0.26265  0.70008  1.0000
  S   S253      1.0  0.43475  0.31628  0.70573  1.0000
  S   S254      1.0  0.45028  0.27880  0.68076  1.0000
  Fe  Fe132     1.0  0.47194  0.36149  0.53918  1.0000
  S   S255      1.0  0.44826  0.35859  0.51694  1.0000
  S   S256      1.0  0.47693  0.34977  0.57352  1.0000
  C   C831      1.0  0.42114  0.26617  0.62978  1.0000
  C   C832      1.0  0.65868  0.42117  0.61865  1.0000
  H   H1426     1.0  0.63590  0.46729  0.95553  1.0000
  H   H1427     1.0  0.43023  0.49010  0.95969  1.0000
  S   S257      1.0  0.47191  0.39252  0.53487  1.0000
  H   H1428     1.0  0.39368  0.25401  0.63031  1.0000
  H   H1429     1.0  0.61716  0.46242  0.62345  1.0000
  H   H1430     1.0  0.49806  0.42845  0.99567  1.0000
  C   C833      1.0  0.42462  0.43181  0.51731  1.0000
  C   C834      1.0  0.42354  0.46849  0.53231  1.0000
  C   C835      1.0  0.43828  0.45587  0.53748  1.0000
  C   C836      1.0  0.43901  0.43773  0.52969  1.0000
  C   C837      1.0  0.60215  0.46290  0.59448  1.0000
  H   H1431     1.0  0.63811  0.39930  0.78185  1.0000
  S   S258      1.0  0.55315  0.39789  0.98858  1.0000
  H   H1432     1.0  0.44918  0.46014  0.54760  1.0000
  C   C838      1.0  0.43638  0.32308  0.62352  1.0000
  C   C839      1.0  0.43049  0.32818  0.60247  1.0000
  C   C840      1.0  0.44274  0.33619  0.58684  1.0000
  C   C841      1.0  0.46101  0.33924  0.59219  1.0000
  C   C842      1.0  0.46694  0.33396  0.61315  1.0000
  C   C843      1.0  0.45473  0.32587  0.62873  1.0000
  H   H1433     1.0  0.41635  0.32591  0.59825  1.0000
  H   H1434     1.0  0.43807  0.33995  0.57068  1.0000
  H   H1435     1.0  0.48107  0.33617  0.61743  1.0000
  H   H1436     1.0  0.45946  0.32197  0.64483  1.0000
  C   C844      1.0  0.36003  0.36138  0.76927  1.0000
  C   C845      1.0  0.36440  0.34797  0.78554  1.0000
  C   C846      1.0  0.37557  0.33194  0.78043  1.0000
  C   C847      1.0  0.38270  0.32911  0.75910  1.0000
  C   C848      1.0  0.37862  0.34268  0.74294  1.0000
  C   C849      1.0  0.36727  0.35859  0.74798  1.0000
  C   C850      1.0  0.62435  0.28460  0.92576  1.0000
  H   H1437     1.0  0.37863  0.32160  0.79312  1.0000
  H   H1438     1.0  0.38396  0.34080  0.72647  1.0000
  H   H1439     1.0  0.36397  0.36877  0.73521  1.0000
  C   C851      1.0  0.35872  0.43669  0.93983  1.0000
  C   C852      1.0  0.36243  0.41747  0.94051  1.0000
  C   C853      1.0  0.35736  0.40664  0.92314  1.0000
  H   H1440     1.0  0.64183  0.36815  0.82961  1.0000
  H   H1441     1.0  0.65494  0.49091  0.54973  1.0000
  H   H1442     1.0  0.36916  0.41093  0.95444  1.0000
  H   H1443     1.0  0.62806  0.44885  0.60267  1.0000
  C   C854      1.0  0.52214  0.29013  0.77981  1.0000
  C   C855      1.0  0.52834  0.30053  0.76161  1.0000
  C   C856      1.0  0.51703  0.30329  0.74337  1.0000
  C   C857      1.0  0.49944  0.29562  0.74299  1.0000
  C   C858      1.0  0.49336  0.28497  0.76108  1.0000
  C   C859      1.0  0.50461  0.28233  0.77938  1.0000
  H   H1444     1.0  0.54177  0.30663  0.76164  1.0000
  H   H1445     1.0  0.52193  0.31149  0.72946  1.0000
  H   H1446     1.0  0.48001  0.27876  0.76096  1.0000
  Fe  Fe133     1.0  0.57107  0.37157  0.98850  1.0000
  C   C860      1.0  0.63568  0.34536  0.77736  1.0000
  C   C861      1.0  0.63585  0.36165  0.76396  1.0000
  C   C862      1.0  0.65254  0.36800  0.75414  1.0000
  H   H1447     1.0  0.63871  0.28235  0.87696  1.0000
  C   C863      1.0  0.65258  0.33552  0.78077  1.0000
  H   H1448     1.0  0.62292  0.36937  0.76105  1.0000
  H   H1449     1.0  0.65230  0.38047  0.74384  1.0000
  C   C864      1.0  0.34863  0.41486  0.90484  1.0000
  C   C865      1.0  0.58634  0.34958  0.93960  1.0000
  C   C866      1.0  0.59403  0.35119  0.91832  1.0000
  C   C867      1.0  0.59132  0.33757  0.90293  1.0000
  C   C868      1.0  0.58114  0.32205  0.90886  1.0000
  C   C869      1.0  0.57371  0.32030  0.93022  1.0000
  C   C870      1.0  0.57612  0.33406  0.94546  1.0000
  H   H1450     1.0  0.60202  0.36312  0.91367  1.0000
  H   H1451     1.0  0.59715  0.33905  0.88655  1.0000
  H   H1452     1.0  0.56589  0.30829  0.93499  1.0000
  H   H1453     1.0  0.57027  0.33257  0.96182  1.0000
  S   S259      1.0  0.42413  0.40857  0.50909  1.0000
  H   H1454     1.0  0.43866  0.40765  0.98803  1.0000
  C   C871      1.0  0.61627  0.26325  0.88465  1.0000
  H   H1455     1.0  0.44170  0.28818  0.60090  1.0000
  C   C872      1.0  0.54646  0.38656  0.50516  1.0000
  H   H1456     1.0  0.52370  0.41350  0.57252  1.0000
  C   C873      1.0  0.54977  0.41948  0.50918  1.0000
  H   H1457     1.0  0.64605  0.49569  0.96385  1.0000
  C   C874      1.0  0.40576  0.40989  0.59042  1.0000
  C   C875      1.0  0.63914  0.47681  0.57574  1.0000
  H   H1458     1.0  0.34037  0.47362  0.68342  1.0000
  S   S260      1.0  0.34424  0.41852  0.82094  1.0000
  H   H1459     1.0  0.45674  0.38556  0.58638  1.0000
  C   C876      1.0  0.62678  0.26334  0.92324  1.0000
  H   H1460     1.0  0.61028  0.25406  0.87280  1.0000
  H   H1461     1.0  0.65282  0.32300  0.79098  1.0000
  H   H1462     1.0  0.43431  0.37642  0.56522  1.0000
  H   H1463     1.0  0.43967  0.27070  0.58062  1.0000
  H   H1464     1.0  0.46177  0.27912  0.58672  1.0000
  C   C877      1.0  0.66501  0.41804  0.81912  1.0000
  H   H1465     1.0  0.56522  0.25795  0.90863  1.0000
  C   C878      1.0  0.43048  0.39087  0.57013  1.0000
  H   H1466     1.0  0.39271  0.36311  0.55385  1.0000
  H   H1467     1.0  0.41720  0.48684  0.93546  1.0000
  C   C879      1.0  0.57875  0.25172  0.90266  1.0000
  H   H1468     1.0  0.62323  0.29234  0.90995  1.0000
  H   H1469     1.0  0.53783  0.37502  0.50249  1.0000
  C   C880      1.0  0.63625  0.26728  0.87632  1.0000
  H   H1470     1.0  0.45875  0.48303  0.51183  1.0000
  C   C881      1.0  0.63330  0.48228  0.92366  1.0000
  C   C882      1.0  0.62087  0.46256  0.60575  1.0000
  H   H1471     1.0  0.64328  0.45882  0.64225  1.0000
  C   C883      1.0  0.59439  0.25936  0.91586  1.0000
  H   H1472     1.0  0.59134  0.27459  0.91624  1.0000
  H   H1473     1.0  0.45046  0.42821  0.53371  1.0000
  H   H1474     1.0  0.64503  0.47434  0.91576  1.0000
  H   H1475     1.0  0.61232  0.47484  0.94926  1.0000
  C   C884      1.0  0.62457  0.49677  0.60510  1.0000
  C   C885      1.0  0.64448  0.41151  0.78879  1.0000
  C   C886      1.0  0.65921  0.42464  0.59595  1.0000
  C   C887      1.0  0.65965  0.38608  0.81000  1.0000
  H   H1476     1.0  0.64159  0.26024  0.91895  1.0000
  C   C888      1.0  0.64823  0.47278  0.63736  1.0000
  H   H1477     1.0  0.57746  0.42809  0.51428  1.0000
  C   C889      1.0  0.39806  0.39259  0.55907  1.0000
  H   H1478     1.0  0.59534  0.44965  0.59854  1.0000
  H   H1479     1.0  0.61196  0.28829  0.93621  1.0000
  H   H1480     1.0  0.44082  0.39907  0.60259  1.0000
  H   H1481     1.0  0.49968  0.27419  0.79332  1.0000
  H   H1482     1.0  0.63769  0.26398  0.85880  1.0000
  H   H1483     1.0  0.41313  0.41040  0.60582  1.0000
  H   H1484     1.0  0.60813  0.27672  0.88316  1.0000
  N   N62       1.0  0.63357  0.47808  0.59954  1.0000
  Fe  Fe134     1.0  0.44997  0.38952  0.51060  1.0000
  C   C890      1.0  0.48205  0.38866  0.99747  1.0000
  Fe  Fe135     1.0  0.37991  0.44444  0.99290  1.0000
  H   H1485     1.0  0.48239  0.45792  0.51189  1.0000
  H   H1486     1.0  0.46440  0.33350  0.73091  1.0000
  H   H1487     1.0  0.34695  0.45975  0.92085  1.0000
  H   H1488     1.0  0.62900  0.38519  0.81415  1.0000
  H   H1489     1.0  0.40291  0.48980  0.98328  1.0000
  H   H1490     1.0  0.34010  0.47426  0.72739  1.0000
  H   H1491     1.0  0.61128  0.45129  0.98473  1.0000
  H   H1492     1.0  0.33824  0.44063  0.89019  1.0000
  H   H1493     1.0  0.45220  0.40932  0.57900  1.0000
  C   C891      1.0  0.47010  0.46348  0.98009  1.0000
  H   H1494     1.0  0.58006  0.25558  0.88511  1.0000
  H   H1495     1.0  0.59247  0.25411  0.93302  1.0000
  H   H1496     1.0  0.46765  0.47785  0.98579  1.0000
  N   N63       1.0  0.41053  0.39230  0.57838  1.0000
  H   H1497     1.0  0.65164  0.49177  0.88481  1.0000
  H   H1498     1.0  0.65510  0.43715  0.77200  1.0000
  C   C892      1.0  0.40587  0.37563  0.59271  1.0000
  C   C893      1.0  0.39914  0.37508  0.54523  1.0000
  C   C894      1.0  0.41598  0.37301  0.61435  1.0000
  H   H1499     1.0  0.38323  0.39500  0.56433  1.0000
  H   H1500     1.0  0.39079  0.41049  0.59559  1.0000
  H   H1501     1.0  0.39068  0.37589  0.59677  1.0000
  H   H1502     1.0  0.40909  0.36254  0.58401  1.0000
  H   H1503     1.0  0.41964  0.46864  0.95582  1.0000
  H   H1504     1.0  0.63240  0.43111  0.76484  1.0000
  H   H1505     1.0  0.41347  0.38479  0.62530  1.0000
  H   H1506     1.0  0.43105  0.36989  0.61162  1.0000
  H   H1507     1.0  0.41058  0.36063  0.62332  1.0000
  C   C895      1.0  0.44553  0.39665  0.58564  1.0000
  H   H1508     1.0  0.64745  0.42164  0.58642  1.0000
  H   H1509     1.0  0.57787  0.26461  0.74731  1.0000
  C   C896      1.0  0.45122  0.25996  0.61182  1.0000
  C   C897      1.0  0.53841  0.40456  0.50615  1.0000
  C   C898      1.0  0.34494  0.43409  0.90413  1.0000
  H   H1510     1.0  0.40120  0.40430  0.54752  1.0000
  H   H1511     1.0  0.58980  0.42782  0.99993  1.0000
  H   H1512     1.0  0.57188  0.36959  0.50690  1.0000
  H   H1513     1.0  0.54601  0.39829  0.55206  1.0000
  H   H1514     1.0  0.40731  0.44004  0.58873  1.0000
  N   N64       1.0  0.61404  0.25516  0.90752  1.0000
  H   H1515     1.0  0.50578  0.45128  0.99320  1.0000
  C   C899      1.0  0.46739  0.39775  0.98637  1.0000
  C   C900      1.0  0.56748  0.25809  0.75855  1.0000
  S   S261      1.0  0.50395  0.38626  0.98402  1.0000
  C   C901      1.0  0.40961  0.42821  0.57767  1.0000
  S   S262      1.0  0.64586  0.46473  0.51500  1.0000
  H   H1516     1.0  0.62253  0.48364  0.91106  1.0000
  H   H1517     1.0  0.40004  0.43094  0.56406  1.0000
  C   C902      1.0  0.40939  0.46275  0.51946  1.0000
  H   H1518     1.0  0.62482  0.25677  0.93979  1.0000
  S   S263      1.0  0.42314  0.49099  0.54291  1.0000
  H   H1519     1.0  0.36024  0.39178  0.92389  1.0000
  H   H1520     1.0  0.33446  0.32904  0.76123  1.0000
  H   H1521     1.0  0.42413  0.42856  0.57137  1.0000
  H   H1522     1.0  0.39122  0.37804  0.53022  1.0000
  H   H1523     1.0  0.43221  0.39958  0.55494  1.0000
  N   N65       1.0  0.44727  0.33506  0.77612  1.0000
  C   C903      1.0  0.42692  0.33955  0.78091  1.0000
  C   C904      1.0  0.44890  0.31568  0.76747  1.0000
  C   C905      1.0  0.45395  0.34915  0.75907  1.0000
  C   C906      1.0  0.45751  0.33644  0.79694  1.0000
  C   C907      1.0  0.42191  0.35924  0.78905  1.0000
  C   C908      1.0  0.44262  0.29987  0.78324  1.0000
  C   C909      1.0  0.46972  0.34281  0.74303  1.0000
  C   C910      1.0  0.47816  0.33000  0.79615  1.0000
  H   H1524     1.0  0.41889  0.33793  0.76600  1.0000
  H   H1525     1.0  0.42107  0.32978  0.79343  1.0000
  H   H1526     1.0  0.46335  0.31176  0.76227  1.0000
  H   H1527     1.0  0.44068  0.31502  0.75254  1.0000
  H   H1528     1.0  0.44243  0.35405  0.74832  1.0000
  H   H1529     1.0  0.45843  0.36187  0.76683  1.0000
  H   H1530     1.0  0.45705  0.35103  0.80235  1.0000
  H   H1531     1.0  0.45056  0.32839  0.81039  1.0000
  H   H1532     1.0  0.42701  0.36110  0.80561  1.0000
  H   H1533     1.0  0.42698  0.37033  0.77775  1.0000
  H   H1534     1.0  0.40653  0.36119  0.79020  1.0000
  H   H1535     1.0  0.44604  0.28636  0.77559  1.0000
  H   H1536     1.0  0.44995  0.29943  0.79878  1.0000
  H   H1537     1.0  0.42738  0.30047  0.78633  1.0000
  H   H1538     1.0  0.48172  0.33566  0.75092  1.0000
  H   H1539     1.0  0.47494  0.35509  0.73374  1.0000
  H   H1540     1.0  0.41660  0.27607  0.61655  1.0000
  H   H1541     1.0  0.48033  0.31531  0.79154  1.0000
  H   H1542     1.0  0.48381  0.33093  0.81264  1.0000
  H   H1543     1.0  0.48647  0.33904  0.78512  1.0000
  C   C911      1.0  0.56897  0.41648  0.51155  1.0000
  H   H1544     1.0  0.63375  0.41748  0.80033  1.0000
  H   H1545     1.0  0.56756  0.38531  0.55629  1.0000
  H   H1546     1.0  0.60358  0.46391  0.57654  1.0000
  H   H1547     1.0  0.54364  0.43344  0.50996  1.0000
  H   H1548     1.0  0.64387  0.46231  0.57198  1.0000
  H   H1549     1.0  0.39792  0.47233  0.51546  1.0000
  S   S264      1.0  0.41110  0.44179  0.99415  1.0000
  C   C912      1.0  0.48575  0.47107  0.51954  1.0000
  H   H1550     1.0  0.36241  0.48953  0.97754  1.0000
  H   H1551     1.0  0.41353  0.37121  0.53980  1.0000
  H   H1552     1.0  0.49528  0.48305  0.99884  1.0000
  S   S265      1.0  0.64885  0.41974  0.50657  1.0000
  H   H1553     1.0  0.65250  0.41893  0.83014  1.0000
  H   H1554     1.0  0.65214  0.41798  0.75475  1.0000
  C   C913      1.0  0.64637  0.42533  0.76918  1.0000
  H   H1555     1.0  0.36961  0.48722  0.93840  1.0000
  C   C914      1.0  0.41779  0.48393  0.95323  1.0000
  C   C915      1.0  0.62586  0.46954  0.94233  1.0000
  H   H1556     1.0  0.63655  0.28964  0.93398  1.0000
  H   H1557     1.0  0.56156  0.40512  0.57166  1.0000
  N   N66       1.0  0.52168  0.35525  0.91736  1.0000
  C   C916      1.0  0.52018  0.34848  0.89452  1.0000
  C   C917      1.0  0.50465  0.36759  0.92215  1.0000
  C   C918      1.0  0.52210  0.33842  0.93277  1.0000
  C   C919      1.0  0.53941  0.36545  0.91818  1.0000
  C   C920      1.0  0.53550  0.33420  0.88694  1.0000
  C   C921      1.0  0.50257  0.38553  0.90788  1.0000
  C   C922      1.0  0.51559  0.34141  0.95660  1.0000
  C   C923      1.0  0.54274  0.37576  0.93911  1.0000
  H   H1558     1.0  0.50659  0.34204  0.89265  1.0000
  H   H1559     1.0  0.52063  0.36021  0.88232  1.0000
  H   H1560     1.0  0.50396  0.37212  0.93922  1.0000
  H   H1561     1.0  0.49186  0.35969  0.92061  1.0000
  H   H1562     1.0  0.51314  0.32752  0.92697  1.0000
  H   H1563     1.0  0.53632  0.33181  0.93323  1.0000
  H   H1564     1.0  0.55163  0.35564  0.91617  1.0000
  H   H1565     1.0  0.54111  0.37540  0.90408  1.0000
  H   H1566     1.0  0.53237  0.32962  0.87043  1.0000
  H   H1567     1.0  0.54931  0.34035  0.88545  1.0000
  H   H1568     1.0  0.53631  0.32151  0.89763  1.0000
  H   H1569     1.0  0.51474  0.39428  0.90880  1.0000
  H   H1570     1.0  0.49995  0.38262  0.89070  1.0000
  H   H1571     1.0  0.49031  0.39392  0.91407  1.0000
  H   H1572     1.0  0.50028  0.34375  0.95803  1.0000
  H   H1573     1.0  0.52222  0.35309  0.96386  1.0000
  H   H1574     1.0  0.51921  0.32873  0.96663  1.0000
  H   H1575     1.0  0.54867  0.36614  0.95176  1.0000
  H   H1576     1.0  0.53026  0.38326  0.94582  1.0000
  H   H1577     1.0  0.55278  0.38675  0.93538  1.0000
  N   N67       1.0  0.52839  0.37268  0.57897  1.0000
  C   C924      1.0  0.52587  0.35594  0.59412  1.0000
  C   C925      1.0  0.52670  0.36613  0.55611  1.0000
  C   C926      1.0  0.51276  0.38670  0.58394  1.0000
  C   C927      1.0  0.54703  0.38045  0.58292  1.0000
  C   C928      1.0  0.52430  0.35969  0.61869  1.0000
  C   C929      1.0  0.54118  0.35096  0.54888  1.0000
  C   C930      1.0  0.51189  0.40469  0.56969  1.0000
  C   C931      1.0  0.55564  0.39284  0.56450  1.0000
  H   H1578     1.0  0.51324  0.34855  0.59013  1.0000
  H   H1579     1.0  0.53764  0.34555  0.59208  1.0000
  H   H1580     1.0  0.52735  0.37758  0.54378  1.0000
  H   H1581     1.0  0.51275  0.36054  0.55417  1.0000
  H   H1582     1.0  0.49913  0.38021  0.58283  1.0000
  H   H1583     1.0  0.51338  0.39145  0.60089  1.0000
  H   H1584     1.0  0.54630  0.38862  0.59800  1.0000
  H   H1585     1.0  0.55752  0.36891  0.58602  1.0000
  H   H1586     1.0  0.52516  0.34620  0.62799  1.0000
  H   H1587     1.0  0.53568  0.36809  0.62408  1.0000
  H   H1588     1.0  0.51061  0.36640  0.62322  1.0000
  H   H1589     1.0  0.53858  0.33737  0.55714  1.0000
  H   H1590     1.0  0.53993  0.34890  0.53117  1.0000
  H   H1591     1.0  0.55560  0.35484  0.55146  1.0000
  H   H1592     1.0  0.49911  0.41299  0.57438  1.0000
  H   H1593     1.0  0.51086  0.40215  0.55214  1.0000
  C   C932      1.0  0.44985  0.40055  0.99669  1.0000
  C   C933      1.0  0.40981  0.44439  0.51226  1.0000
  H   H1594     1.0  0.38950  0.48045  0.96355  1.0000
  H   H1595     1.0  0.62723  0.47992  0.56507  1.0000
  C   C934      1.0  0.64168  0.38293  0.82377  1.0000
  N   N68       1.0  0.66198  0.40551  0.80053  1.0000
  C   C935      1.0  0.37765  0.49572  0.92654  1.0000
  C   C936      1.0  0.65099  0.47489  0.61241  1.0000
  H   H1596     1.0  0.65900  0.46226  0.60697  1.0000
  H   H1597     1.0  0.42855  0.27447  0.64140  1.0000
  S   S266      1.0  0.49399  0.35696  0.51278  1.0000
  C   C937      1.0  0.56572  0.38354  0.50756  1.0000
  S   S267      1.0  0.61960  0.48779  0.99796  1.0000
  H   H1598     1.0  0.63868  0.48378  0.64411  1.0000
  H   H1599     1.0  0.64754  0.25921  0.88444  1.0000
  H   H1600     1.0  0.39862  0.43992  0.50270  1.0000
  C   C938      1.0  0.47344  0.48713  0.50971  1.0000
  H   H1601     1.0  0.48376  0.46178  0.97146  1.0000
  H   H1602     1.0  0.64064  0.39154  0.83837  1.0000
  C   C939      1.0  0.44811  0.27530  0.59400  1.0000
  H   H1603     1.0  0.45884  0.26625  0.62505  1.0000
  H   H1604     1.0  0.35843  0.49364  0.70183  1.0000
  H   H1605     1.0  0.56236  0.26907  0.76978  1.0000
  H   H1606     1.0  0.66049  0.48651  0.60947  1.0000
  Fe  Fe136     1.0  0.49211  0.38785  0.50685  1.0000
  S   S268      1.0  0.60116  0.39446  0.51379  1.0000
  H   H1607     1.0  0.50072  0.47300  0.51608  1.0000
  S   S269      1.0  0.54799  0.35351  0.99993  1.0000
  H   H1608     1.0  0.45936  0.46149  0.96796  1.0000
  H   H1609     1.0  0.59261  0.47418  0.60062  1.0000
  C   C940      1.0  0.65249  0.50033  0.94801  1.0000
  C   C941      1.0  0.39999  0.49087  0.96560  1.0000
  H   H1610     1.0  0.38787  0.48659  0.91757  1.0000
  H   H1611     1.0  0.46203  0.49429  0.54773  1.0000
  H   H1612     1.0  0.66011  0.37586  0.79684  1.0000
  S   S270      1.0  0.51431  0.40921  0.50401  1.0000
  C   C942      1.0  0.40310  0.26029  0.64153  1.0000
  C   C943      1.0  0.46749  0.44921  0.99898  1.0000
  C   C944      1.0  0.60301  0.45420  0.99930  1.0000
  H   H1613     1.0  0.55598  0.25411  0.74856  1.0000
  H   H1614     1.0  0.46610  0.43545  0.99172  1.0000
  H   H1615     1.0  0.65799  0.44587  0.80494  1.0000
  H   H1616     1.0  0.39554  0.27295  0.64763  1.0000
  H   H1617     1.0  0.61545  0.49547  0.62001  1.0000
  C   C945      1.0  0.65486  0.48945  0.56776  1.0000
  H   H1618     1.0  0.60218  0.49851  0.58083  1.0000
  H   H1619     1.0  0.55812  0.25162  0.80756  1.0000
  H   H1620     1.0  0.40572  0.25112  0.65601  1.0000
  H   H1621     1.0  0.48566  0.49890  0.55105  1.0000
  Fe  Fe137     1.0  0.60242  0.54981  0.03329  1.0000
  S   S271      1.0  0.61476  0.52328  0.04833  1.0000
  S   S272      1.0  0.57613  0.56459  0.04628  1.0000
  Fe  Fe138     1.0  0.64168  0.53798  0.04663  1.0000
  C   C946      1.0  0.50406  0.74108  0.24712  1.0000
  S   S273      1.0  0.62892  0.56507  0.03403  1.0000
  H   H1622     1.0  0.36334  0.50930  0.23859  1.0000
  C   C947      1.0  0.36701  0.70361  0.26103  1.0000
  S   S274      1.0  0.54796  0.63908  0.46187  1.0000
  Fe  Fe139     1.0  0.56488  0.69319  0.31200  1.0000
  S   S275      1.0  0.58658  0.71206  0.29779  1.0000
  S   S276      1.0  0.53374  0.69223  0.30481  1.0000
  Fe  Fe140     1.0  0.59113  0.67770  0.34769  1.0000
  S   S277      1.0  0.61450  0.69540  0.33563  1.0000
  S   S278      1.0  0.59695  0.65731  0.37611  1.0000
  Fe  Fe141     1.0  0.59285  0.71894  0.33246  1.0000
  H   H1623     1.0  0.39328  0.54201  0.02890  1.0000
  Fe  Fe142     1.0  0.60678  0.68694  0.30211  1.0000
  S   S279      1.0  0.62837  0.67832  0.27525  1.0000
  S   S280      1.0  0.56995  0.70126  0.34642  1.0000
  S   S281      1.0  0.58460  0.66795  0.31446  1.0000
  C   C948      1.0  0.40647  0.55649  0.44576  1.0000
  H   H1624     1.0  0.42937  0.58737  0.41131  1.0000
  Fe  Fe143     1.0  0.46284  0.61982  0.03711  1.0000
  S   S282      1.0  0.43533  0.62162  0.02123  1.0000
  S   S283      1.0  0.47030  0.63274  0.06882  1.0000
  H   H1625     1.0  0.35185  0.57367  0.22297  1.0000
  H   H1626     1.0  0.34538  0.62309  0.23903  1.0000
  C   C949      1.0  0.52080  0.64375  0.30805  1.0000
  S   S284      1.0  0.46759  0.58915  0.03224  1.0000
  C   C950      1.0  0.44203  0.52085  0.01337  1.0000
  S   S285      1.0  0.36673  0.52645  0.46259  1.0000
  H   H1627     1.0  0.51559  0.59448  0.02972  1.0000
  C   C951      1.0  0.59677  0.70326  0.40227  1.0000
  Fe  Fe144     1.0  0.42649  0.67581  0.17973  1.0000
  S   S286      1.0  0.40169  0.68775  0.19887  1.0000
  S   S287      1.0  0.41895  0.66228  0.14819  1.0000
  Fe  Fe145     1.0  0.45347  0.68716  0.21392  1.0000
  S   S288      1.0  0.43046  0.69940  0.23507  1.0000
  S   S289      1.0  0.48461  0.68925  0.21989  1.0000
  Fe  Fe146     1.0  0.41457  0.67389  0.22834  1.0000
  S   S290      1.0  0.39918  0.65963  0.25764  1.0000
  Fe  Fe147     1.0  0.41900  0.71242  0.20408  1.0000
  S   S291      1.0  0.40520  0.74197  0.20540  1.0000
  S   S292      1.0  0.43866  0.66067  0.20908  1.0000
  S   S293      1.0  0.44283  0.70141  0.18296  1.0000
  C   C952      1.0  0.35020  0.62099  0.27347  1.0000
  C   C953      1.0  0.35415  0.62710  0.25183  1.0000
  C   C954      1.0  0.36932  0.63840  0.24653  1.0000
  C   C955      1.0  0.38057  0.64422  0.26290  1.0000
  C   C956      1.0  0.37664  0.63804  0.28451  1.0000
  C   C957      1.0  0.36174  0.62640  0.28975  1.0000
  H   H1628     1.0  0.64405  0.69806  0.40043  1.0000
  H   H1629     1.0  0.37215  0.64277  0.22979  1.0000
  H   H1630     1.0  0.38519  0.64236  0.29737  1.0000
  H   H1631     1.0  0.35896  0.62194  0.30647  1.0000
  C   C958      1.0  0.35649  0.54167  0.44258  1.0000
  C   C959      1.0  0.66113  0.57619  0.11545  1.0000
  N   N69       1.0  0.61592  0.71003  0.40587  1.0000
  C   C960      1.0  0.35079  0.56002  0.44694  1.0000
  Fe  Fe148     1.0  0.44106  0.59143  0.01407  1.0000
  Fe  Fe149     1.0  0.62174  0.51559  0.01377  1.0000
  C   C961      1.0  0.45575  0.64070  0.09078  1.0000
  C   C962      1.0  0.43643  0.63999  0.09060  1.0000
  C   C963      1.0  0.42542  0.64668  0.10830  1.0000
  C   C964      1.0  0.43357  0.65416  0.12636  1.0000
  C   C965      1.0  0.45290  0.65489  0.12650  1.0000
  C   C966      1.0  0.46390  0.64817  0.10880  1.0000
  H   H1632     1.0  0.42995  0.63429  0.07687  1.0000
  H   H1633     1.0  0.41048  0.64608  0.10805  1.0000
  H   H1634     1.0  0.45936  0.66057  0.14027  1.0000
  H   H1635     1.0  0.47885  0.64879  0.10911  1.0000
  H   H1636     1.0  0.54677  0.65470  0.31680  1.0000
  C   C967      1.0  0.40986  0.51670  0.02401  1.0000
  C   C968      1.0  0.40690  0.53612  0.02449  1.0000
  C   C969      1.0  0.42151  0.54794  0.01949  1.0000
  H   H1637     1.0  0.51178  0.66371  0.34279  1.0000
  H   H1638     1.0  0.38277  0.57143  0.29635  1.0000
  C   C970      1.0  0.52481  0.66150  0.35178  1.0000
  C   C971      1.0  0.37399  0.57415  0.28200  1.0000
  H   H1639     1.0  0.41811  0.54168  0.12723  1.0000
  C   C972      1.0  0.52044  0.69153  0.28086  1.0000
  C   C973      1.0  0.52856  0.69157  0.25987  1.0000
  C   C974      1.0  0.51737  0.69078  0.24151  1.0000
  C   C975      1.0  0.49794  0.68983  0.24380  1.0000
  C   C976      1.0  0.48979  0.68984  0.26479  1.0000
  C   C977      1.0  0.50097  0.69073  0.28314  1.0000
  H   H1640     1.0  0.54347  0.69219  0.25776  1.0000
  H   H1641     1.0  0.52386  0.69083  0.22539  1.0000
  H   H1642     1.0  0.47490  0.68913  0.26690  1.0000
  H   H1643     1.0  0.49448  0.69073  0.29926  1.0000
  C   C978      1.0  0.64141  0.65694  0.27046  1.0000
  C   C979      1.0  0.63831  0.64053  0.28264  1.0000
  C   C980      1.0  0.64875  0.62394  0.27799  1.0000
  C   C981      1.0  0.44419  0.57177  0.43599  1.0000
  C   C982      1.0  0.66114  0.63853  0.19035  1.0000
  C   C983      1.0  0.43910  0.54025  0.01397  1.0000
  H   H1644     1.0  0.62787  0.64063  0.29569  1.0000
  H   H1645     1.0  0.65783  0.66895  0.24412  1.0000
  H   H1646     1.0  0.38499  0.56489  0.21510  1.0000
  C   C984      1.0  0.34079  0.56515  0.40939  1.0000
  H   H1647     1.0  0.42934  0.56312  0.40836  1.0000
  C   C985      1.0  0.56234  0.64460  0.43877  1.0000
  C   C986      1.0  0.55646  0.65900  0.42419  1.0000
  C   C987      1.0  0.56706  0.66336  0.40516  1.0000
  C   C988      1.0  0.58347  0.65305  0.40028  1.0000
  C   C989      1.0  0.58946  0.63881  0.41495  1.0000
  C   C990      1.0  0.57902  0.63465  0.43416  1.0000
  H   H1648     1.0  0.54361  0.66683  0.42770  1.0000
  H   H1649     1.0  0.56243  0.67451  0.39416  1.0000
  H   H1650     1.0  0.60223  0.63086  0.41140  1.0000
  H   H1651     1.0  0.58373  0.62357  0.44523  1.0000
  H   H1652     1.0  0.59712  0.54976  0.46292  1.0000
  C   C991      1.0  0.41010  0.53789  0.43429  1.0000
  C   C992      1.0  0.63593  0.71854  0.43842  1.0000
  H   H1653     1.0  0.41896  0.66267  0.01378  1.0000
  H   H1654     1.0  0.52547  0.64256  0.29071  1.0000
  C   C993      1.0  0.46231  0.52218  0.48406  1.0000
  H   H1655     1.0  0.45140  0.53270  0.47913  1.0000
  H   H1656     1.0  0.58034  0.72811  0.39074  1.0000
  C   C994      1.0  0.63417  0.50296  0.46784  1.0000
  C   C995      1.0  0.55635  0.56828  0.03024  1.0000
  C   C996      1.0  0.54193  0.58063  0.03728  1.0000
  C   C997      1.0  0.52648  0.58472  0.02430  1.0000
  H   H1657     1.0  0.38046  0.58534  0.27200  1.0000
  H   H1658     1.0  0.54283  0.58727  0.05271  1.0000
  H   H1659     1.0  0.59610  0.69740  0.38578  1.0000
  H   H1660     1.0  0.63709  0.73297  0.44390  1.0000
  N   N70       1.0  0.63628  0.61341  0.18963  1.0000
  C   C998      1.0  0.63064  0.59905  0.17404  1.0000
  C   C999      1.0  0.64720  0.60316  0.20710  1.0000
  H   H1661     1.0  0.43983  0.73251  0.03392  1.0000
  C   C1000     1.0  0.61882  0.62318  0.19850  1.0000
  C   C1001     1.0  0.62229  0.60664  0.15253  1.0000
  C   C1002     1.0  0.63652  0.58886  0.22121  1.0000
  C   C1003     1.0  0.61011  0.55043  0.45278  1.0000
  C   C1004     1.0  0.62066  0.63630  0.21757  1.0000
  C   C1005     1.0  0.62859  0.67705  0.41707  1.0000
  H   H1662     1.0  0.62017  0.58987  0.18180  1.0000
  H   H1663     1.0  0.65300  0.61270  0.21852  1.0000
  H   H1664     1.0  0.63262  0.61400  0.14209  1.0000
  H   H1665     1.0  0.61524  0.60700  0.01795  1.0000
  H   H1666     1.0  0.50143  0.59096  0.49884  1.0000
  H   H1667     1.0  0.61203  0.63182  0.18545  1.0000
  H   H1668     1.0  0.60811  0.61310  0.20353  1.0000
  H   H1669     1.0  0.40626  0.65602  0.03791  1.0000
  H   H1670     1.0  0.65381  0.58952  0.11716  1.0000
  H   H1671     1.0  0.60973  0.61578  0.15533  1.0000
  H   H1672     1.0  0.64574  0.58298  0.23407  1.0000
  H   H1673     1.0  0.62417  0.59534  0.22966  1.0000
  H   H1674     1.0  0.63256  0.57696  0.21169  1.0000
  H   H1675     1.0  0.39975  0.53582  0.42177  1.0000
  H   H1676     1.0  0.39795  0.60464  0.40690  1.0000
  H   H1677     1.0  0.46706  0.66958  0.05317  1.0000
  H   H1678     1.0  0.62289  0.65076  0.21158  1.0000
  H   H1679     1.0  0.63157  0.63186  0.22900  1.0000
  H   H1680     1.0  0.60765  0.63646  0.22779  1.0000
  C   C1006     1.0  0.38621  0.59526  0.45431  1.0000
  H   H1681     1.0  0.64271  0.58961  0.16946  1.0000
  H   H1682     1.0  0.38639  0.60678  0.46584  1.0000
  H   H1683     1.0  0.37721  0.60011  0.44080  1.0000
  C   C1007     1.0  0.55500  0.55966  0.01035  1.0000
  H   H1684     1.0  0.45734  0.57236  0.42612  1.0000
  H   H1685     1.0  0.57698  0.62326  0.36380  1.0000
  C   C1008     1.0  0.43491  0.70298  0.03423  1.0000
  C   C1009     1.0  0.47180  0.74499  0.18564  1.0000
  H   H1686     1.0  0.34335  0.51950  0.25189  1.0000
  H   H1687     1.0  0.53092  0.66309  0.38670  1.0000
  C   C1010     1.0  0.37280  0.55599  0.26955  1.0000
  H   H1688     1.0  0.51280  0.65719  0.30891  1.0000
  H   H1689     1.0  0.39676  0.56253  0.40351  1.0000
  H   H1690     1.0  0.40360  0.56209  0.12992  1.0000
  H   H1691     1.0  0.59640  0.59758  0.03294  1.0000
  H   H1692     1.0  0.36545  0.51850  0.26496  1.0000
  C   C1011     1.0  0.38091  0.57616  0.22637  1.0000
  H   H1693     1.0  0.41555  0.55631  0.46002  1.0000
  H   H1694     1.0  0.41455  0.58806  0.46116  1.0000
  H   H1695     1.0  0.33696  0.56952  0.27056  1.0000
  H   H1696     1.0  0.38434  0.72806  0.25623  1.0000
  C   C1012     1.0  0.49309  0.74176  0.22597  1.0000
  C   C1013     1.0  0.42765  0.57405  0.42072  1.0000
  C   C1014     1.0  0.47340  0.58171  0.49716  1.0000
  H   H1697     1.0  0.51903  0.73840  0.24295  1.0000
  H   H1698     1.0  0.46825  0.68985  0.08449  1.0000
  H   H1699     1.0  0.55836  0.61178  0.35221  1.0000
  C   C1015     1.0  0.60075  0.51272  0.46690  1.0000
  H   H1700     1.0  0.56241  0.61217  0.01688  1.0000
  H   H1701     1.0  0.49864  0.50975  0.49528  1.0000
  N   N71       1.0  0.61979  0.51531  0.45648  1.0000
  C   C1016     1.0  0.35597  0.68367  0.21965  1.0000
  C   C1017     1.0  0.63817  0.73475  0.38959  1.0000
  H   H1702     1.0  0.37992  0.58344  0.46328  1.0000
  C   C1018     1.0  0.35391  0.53505  0.42167  1.0000
  C   C1019     1.0  0.61917  0.72584  0.38967  1.0000
  N   N72       1.0  0.35928  0.55653  0.25129  1.0000
  H   H1703     1.0  0.50785  0.65545  0.38135  1.0000
  H   H1704     1.0  0.53372  0.67314  0.34635  1.0000
  H   H1705     1.0  0.35810  0.52081  0.41820  1.0000
  H   H1706     1.0  0.63442  0.50630  0.48537  1.0000
  N   N73       1.0  0.43281  0.57415  0.08995  1.0000
  C   C1020     1.0  0.44527  0.59047  0.08989  1.0000
  C   C1021     1.0  0.41482  0.58128  0.08019  1.0000
  C   C1022     1.0  0.44190  0.55969  0.07539  1.0000
  C   C1023     1.0  0.43047  0.56667  0.11307  1.0000
  C   C1024     1.0  0.46547  0.58623  0.09676  1.0000
  C   C1025     1.0  0.40357  0.59611  0.09328  1.0000
  C   C1026     1.0  0.43206  0.54127  0.07403  1.0000
  C   C1027     1.0  0.41346  0.55475  0.11851  1.0000
  H   H1707     1.0  0.44602  0.59753  0.07349  1.0000
  H   H1708     1.0  0.43954  0.60122  0.10113  1.0000
  H   H1709     1.0  0.40538  0.57004  0.07725  1.0000
  H   H1710     1.0  0.41752  0.58752  0.06361  1.0000
  H   H1711     1.0  0.44359  0.56549  0.05846  1.0000
  H   H1712     1.0  0.45607  0.55549  0.08073  1.0000
  H   H1713     1.0  0.44308  0.55817  0.11777  1.0000
  H   H1714     1.0  0.42948  0.57832  0.12459  1.0000
  H   H1715     1.0  0.46635  0.57777  0.11209  1.0000
  H   H1716     1.0  0.47396  0.57949  0.08360  1.0000
  H   H1717     1.0  0.47202  0.59955  0.09963  1.0000
  H   H1718     1.0  0.38982  0.59868  0.08588  1.0000
  H   H1719     1.0  0.40103  0.59173  0.11051  1.0000
  H   H1720     1.0  0.41039  0.60957  0.09255  1.0000
  H   H1721     1.0  0.43974  0.53250  0.06190  1.0000
  H   H1722     1.0  0.41770  0.54320  0.06833  1.0000
  H   H1723     1.0  0.43234  0.53319  0.08968  1.0000
  H   H1724     1.0  0.64670  0.56957  0.08656  1.0000
  H   H1725     1.0  0.40572  0.55062  0.10442  1.0000
  H   H1726     1.0  0.56719  0.71042  0.40359  1.0000
  N   N74       1.0  0.53450  0.64308  0.34666  1.0000
  C   C1028     1.0  0.39382  0.59193  0.39911  1.0000
  C   C1029     1.0  0.55313  0.64196  0.35716  1.0000
  H   H1727     1.0  0.44418  0.58317  0.44768  1.0000
  C   C1030     1.0  0.52260  0.62705  0.35340  1.0000
  H   H1728     1.0  0.47093  0.74194  0.26279  1.0000
  C   C1031     1.0  0.56586  0.62484  0.35171  1.0000
  N   N75       1.0  0.47263  0.74739  0.22761  1.0000
  C   C1032     1.0  0.52360  0.61975  0.37737  1.0000
  C   C1033     1.0  0.61973  0.51222  0.43235  1.0000
  N   N76       1.0  0.44487  0.68419  0.03603  1.0000
  H   H1729     1.0  0.55175  0.64216  0.37509  1.0000
  H   H1730     1.0  0.56102  0.65452  0.35260  1.0000
  H   H1731     1.0  0.33879  0.58590  0.43393  1.0000
  H   H1732     1.0  0.43830  0.65658  0.04778  1.0000
  H   H1733     1.0  0.50777  0.63069  0.35006  1.0000
  H   H1734     1.0  0.52660  0.61485  0.34331  1.0000
  C   C1034     1.0  0.39442  0.57447  0.41441  1.0000
  H   H1735     1.0  0.57297  0.62679  0.33554  1.0000
  H   H1736     1.0  0.35725  0.58640  0.24585  1.0000
  C   C1035     1.0  0.34303  0.57169  0.43041  1.0000
  C   C1036     1.0  0.42742  0.50903  0.01827  1.0000
  H   H1737     1.0  0.42438  0.53631  0.42722  1.0000
  H   H1738     1.0  0.40847  0.52632  0.44649  1.0000
  H   H1739     1.0  0.50980  0.61476  0.38276  1.0000
  H   H1740     1.0  0.52720  0.63000  0.38930  1.0000
  H   H1741     1.0  0.53331  0.60738  0.37868  1.0000
  H   H1742     1.0  0.49997  0.72934  0.25812  1.0000
  H   H1743     1.0  0.36174  0.68276  0.20273  1.0000
  H   H1744     1.0  0.36261  0.71266  0.21597  1.0000
  H   H1745     1.0  0.43405  0.74044  0.23930  1.0000
  C   C1037     1.0  0.44674  0.71963  0.02752  1.0000
  H   H1746     1.0  0.60850  0.52098  0.42468  1.0000
  H   H1747     1.0  0.46062  0.71896  0.03463  1.0000
  C   C1038     1.0  0.35849  0.52081  0.24925  1.0000
  C   C1039     1.0  0.58038  0.71770  0.40443  1.0000
  H   H1748     1.0  0.63078  0.68074  0.43410  1.0000
  S   S294      1.0  0.47858  0.62799  0.00622  1.0000
  H   H1749     1.0  0.63777  0.53849  0.45023  1.0000
  H   H1750     1.0  0.61806  0.59473  0.14310  1.0000
  H   H1751     1.0  0.38824  0.71066  0.23578  1.0000
  C   C1040     1.0  0.36138  0.57365  0.23680  1.0000
  H   H1752     1.0  0.59343  0.69174  0.41401  1.0000
  S   S295      1.0  0.41114  0.52578  0.49515  1.0000
  C   C1041     1.0  0.34612  0.54670  0.40515  1.0000
  H   H1753     1.0  0.63995  0.63677  0.16691  1.0000
  H   H1754     1.0  0.64618  0.61142  0.28761  1.0000
  C   C1042     1.0  0.34667  0.72975  0.24965  1.0000
  C   C1043     1.0  0.64847  0.62683  0.17710  1.0000
  H   H1755     1.0  0.44820  0.72116  0.00951  1.0000
  S   S296      1.0  0.43791  0.56997  0.49453  1.0000
  H   H1756     1.0  0.46496  0.72326  0.24721  1.0000
  H   H1757     1.0  0.65359  0.64635  0.20325  1.0000
  S   S297      1.0  0.64973  0.52829  0.01286  1.0000
  H   H1758     1.0  0.37028  0.68845  0.26106  1.0000
  C   C1044     1.0  0.33984  0.55684  0.26111  1.0000
  H   H1759     1.0  0.35227  0.56516  0.46309  1.0000
  H   H1760     1.0  0.45278  0.66236  0.01353  1.0000
  H   H1761     1.0  0.39662  0.70671  0.26259  1.0000
  C   C1045     1.0  0.38490  0.71297  0.25319  1.0000
  C   C1046     1.0  0.45546  0.69035  0.07487  1.0000
  H   H1762     1.0  0.47580  0.52783  0.47868  1.0000
  C   C1047     1.0  0.46347  0.73965  0.20835  1.0000
  H   H1763     1.0  0.40287  0.58971  0.38437  1.0000
  C   C1048     1.0  0.43112  0.67040  0.04480  1.0000
  H   H1764     1.0  0.34312  0.67576  0.22091  1.0000
  C   C1049     1.0  0.51908  0.66463  0.37574  1.0000
  H   H1765     1.0  0.51339  0.67914  0.37721  1.0000
  H   H1766     1.0  0.61567  0.56425  0.45557  1.0000
  H   H1767     1.0  0.35545  0.54074  0.22242  1.0000
  H   H1768     1.0  0.35787  0.73711  0.24045  1.0000
  H   H1769     1.0  0.54613  0.63013  0.31748  1.0000
  H   H1770     1.0  0.41188  0.60309  0.43830  1.0000
  H   H1771     1.0  0.60880  0.73006  0.43052  1.0000
  S   S298      1.0  0.33903  0.56746  0.32551  1.0000
  H   H1772     1.0  0.38712  0.55205  0.26354  1.0000
  C   C1050     1.0  0.52538  0.57647  0.00415  1.0000
  H   H1773     1.0  0.36680  0.67691  0.22984  1.0000
  H   H1774     1.0  0.63977  0.66667  0.41246  1.0000
  H   H1775     1.0  0.45565  0.51499  0.00888  1.0000
  H   H1776     1.0  0.47208  0.69247  0.04565  1.0000
  H   H1777     1.0  0.60696  0.55013  0.43530  1.0000
  H   H1778     1.0  0.59898  0.52075  0.48203  1.0000
  C   C1051     1.0  0.60001  0.60543  0.01764  1.0000
  Fe  Fe150     1.0  0.38067  0.53368  0.49396  1.0000
  N   N77       1.0  0.34983  0.70892  0.24852  1.0000
  H   H1779     1.0  0.42404  0.70293  0.02183  1.0000
  H   H1780     1.0  0.44455  0.55820  0.44504  1.0000
  C   C1052     1.0  0.44311  0.74446  0.25234  1.0000
  H   H1781     1.0  0.40508  0.67978  0.02895  1.0000
  H   H1782     1.0  0.34441  0.54143  0.38911  1.0000
  H   H1783     1.0  0.37930  0.59492  0.39402  1.0000
  H   H1784     1.0  0.63764  0.70927  0.45310  1.0000
  H   H1785     1.0  0.49517  0.72756  0.21941  1.0000
  H   H1786     1.0  0.33811  0.54518  0.27324  1.0000
  C   C1053     1.0  0.40627  0.59036  0.44627  1.0000
  H   H1787     1.0  0.63256  0.51719  0.42389  1.0000
  H   H1788     1.0  0.39218  0.55616  0.45301  1.0000
  C   C1054     1.0  0.61653  0.71641  0.42894  1.0000
  H   H1789     1.0  0.44974  0.70489  0.07483  1.0000
  S   S299      1.0  0.41738  0.57218  0.02074  1.0000
  H   H1790     1.0  0.57998  0.72473  0.42019  1.0000
  H   H1791     1.0  0.38030  0.57240  0.42146  1.0000
  H   H1792     1.0  0.61540  0.66992  0.41625  1.0000
  N   N78       1.0  0.40870  0.57388  0.43176  1.0000
  H   H1793     1.0  0.37800  0.53822  0.23277  1.0000
  H   H1794     1.0  0.64785  0.71562  0.42716  1.0000
  H   H1795     1.0  0.62765  0.53750  0.47689  1.0000
  H   H1796     1.0  0.65807  0.61918  0.16555  1.0000
  C   C1055     1.0  0.46057  0.68384  0.05167  1.0000
  Fe  Fe151     1.0  0.55580  0.62083  0.49164  1.0000
  C   C1056     1.0  0.53809  0.64295  0.32228  1.0000
  H   H1797     1.0  0.59276  0.61916  0.01887  1.0000
  H   H1798     1.0  0.39173  0.57695  0.23860  1.0000
  C   C1057     1.0  0.62948  0.69398  0.40106  1.0000
  H   H1799     1.0  0.51155  0.63216  0.31195  1.0000
  H   H1800     1.0  0.60902  0.70671  0.44027  1.0000
  C   C1058     1.0  0.62478  0.53520  0.45954  1.0000
  H   H1801     1.0  0.56580  0.54980  0.00504  1.0000
  S   S300      1.0  0.55109  0.59010  0.49600  1.0000
  C   C1059     1.0  0.35201  0.70423  0.22482  1.0000
  H   H1802     1.0  0.39856  0.50768  0.02795  1.0000
  C   C1060     1.0  0.65516  0.65638  0.25359  1.0000
  H   H1803     1.0  0.47259  0.58472  0.47986  1.0000
  H   H1804     1.0  0.62739  0.68886  0.38442  1.0000
  H   H1805     1.0  0.36923  0.54503  0.28201  1.0000
  H   H1806     1.0  0.38081  0.58947  0.21668  1.0000
  H   H1807     1.0  0.45974  0.50944  0.47525  1.0000
  H   H1808     1.0  0.42685  0.70634  0.04948  1.0000
  S   S301      1.0  0.59160  0.74729  0.34945  1.0000
  H   H1809     1.0  0.61714  0.72126  0.37282  1.0000
  H   H1810     1.0  0.60890  0.73757  0.39241  1.0000
  H   H1811     1.0  0.34320  0.67009  0.25742  1.0000
  H   H1812     1.0  0.58971  0.51846  0.45602  1.0000
  H   H1813     1.0  0.65966  0.59583  0.19967  1.0000
  H   H1814     1.0  0.48231  0.67650  0.01503  1.0000
  C   C1061     1.0  0.36308  0.53955  0.23789  1.0000
  H   H1815     1.0  0.36465  0.70686  0.27853  1.0000
  H   H1816     1.0  0.36030  0.57948  0.28817  1.0000
  H   H1817     1.0  0.34454  0.67982  0.28386  1.0000
  H   H1818     1.0  0.63863  0.74544  0.37617  1.0000
  H   H1819     1.0  0.46393  0.72420  0.20964  1.0000
  C   C1062     1.0  0.41455  0.66727  0.03028  1.0000
  H   H1820     1.0  0.44575  0.68111  0.08378  1.0000
  C   C1063     1.0  0.65708  0.56492  0.09805  1.0000
  H   H1821     1.0  0.42490  0.67459  0.06079  1.0000
  H   H1822     1.0  0.43820  0.73715  0.26751  1.0000
  H   H1823     1.0  0.65001  0.72484  0.38628  1.0000
  C   C1064     1.0  0.46373  0.73873  0.24784  1.0000
  C   C1065     1.0  0.66569  0.63980  0.24903  1.0000
  H   H1824     1.0  0.45045  0.54924  0.01012  1.0000
  C   C1066     1.0  0.33633  0.67986  0.26891  1.0000
  H   H1825     1.0  0.34718  0.73417  0.26683  1.0000
  H   H1826     1.0  0.58563  0.58301  0.00414  1.0000
  C   C1067     1.0  0.66251  0.62338  0.26114  1.0000
  C   C1068     1.0  0.45185  0.67784  0.01389  1.0000
  H   H1827     1.0  0.65994  0.51769  0.45992  1.0000
  C   C1069     1.0  0.47114  0.68390  0.00570  1.0000
  H   H1828     1.0  0.44851  0.74408  0.20794  1.0000
  H   H1829     1.0  0.46419  0.73793  0.17312  1.0000
  H   H1830     1.0  0.33907  0.70821  0.21619  1.0000
  H   H1831     1.0  0.48658  0.74028  0.18361  1.0000
  C   C1070     1.0  0.65421  0.50381  0.45842  1.0000
  S   S302      1.0  0.66323  0.53361  0.07291  1.0000
  H   H1832     1.0  0.64006  0.74227  0.40470  1.0000
  H   H1833     1.0  0.66037  0.59744  0.03495  1.0000
  H   H1834     1.0  0.47263  0.69906  0.00611  1.0000
  H   H1835     1.0  0.66482  0.60010  0.06305  1.0000
  C   C1071     1.0  0.66665  0.54776  0.09546  1.0000
  H   H1836     1.0  0.53872  0.55725  0.98184  1.0000
  H   H1837     1.0  0.64189  0.60566  0.67083  1.0000
  S   S303      1.0  0.64342  0.57428  0.97296  1.0000
  H   H1838     1.0  0.34918  0.60864  0.64934  1.0000
  S   S304      1.0  0.58306  0.61930  0.50832  1.0000
  H   H1839     1.0  0.60534  0.63635  0.64075  1.0000
  Fe  Fe152     1.0  0.57060  0.69464  0.72988  1.0000
  S   S305      1.0  0.59891  0.70715  0.72957  1.0000
  S   S306      1.0  0.55035  0.70276  0.75789  1.0000
  Fe  Fe153     1.0  0.57957  0.67420  0.68753  1.0000
  S   S307      1.0  0.60798  0.68554  0.68444  1.0000
  S   S308      1.0  0.56890  0.65188  0.66605  1.0000
  Fe  Fe154     1.0  0.61025  0.67849  0.72048  1.0000
  S   S309      1.0  0.63748  0.66242  0.72977  1.0000
  Fe  Fe155     1.0  0.59450  0.71319  0.69383  1.0000
  H   H1840     1.0  0.35900  0.64105  0.67372  1.0000
  S   S310      1.0  0.58234  0.66582  0.72307  1.0000
  S   S311      1.0  0.56567  0.70203  0.69465  1.0000
  Fe  Fe156     1.0  0.56675  0.62426  0.53969  1.0000
  S   S312      1.0  0.53974  0.62808  0.52252  1.0000
  S   S313      1.0  0.57581  0.64631  0.56261  1.0000
  H   H1841     1.0  0.53629  0.74147  0.74155  1.0000
  C   C1072     1.0  0.37388  0.57230  0.69379  1.0000
  Fe  Fe157     1.0  0.53710  0.59738  0.52810  1.0000
  S   S314      1.0  0.51117  0.58564  0.54448  1.0000
  H   H1842     1.0  0.37223  0.60793  0.70251  1.0000
  S   S315      1.0  0.56322  0.59396  0.54732  1.0000
  H   H1843     1.0  0.41747  0.59321  0.64604  1.0000
  S   S316      1.0  0.44119  0.65257  0.96859  1.0000
  H   H1844     1.0  0.34748  0.63015  0.84151  1.0000
  Fe  Fe158     1.0  0.41499  0.72037  0.82528  1.0000
  S   S317      1.0  0.44359  0.70658  0.82995  1.0000
  H   H1845     1.0  0.36581  0.57777  0.70806  1.0000
  Fe  Fe159     1.0  0.39994  0.68537  0.80409  1.0000
  S   S318      1.0  0.42732  0.66987  0.80753  1.0000
  S   S319      1.0  0.37296  0.67369  0.79164  1.0000
  Fe  Fe160     1.0  0.42801  0.68122  0.84117  1.0000
  S   S320      1.0  0.43724  0.65752  0.86470  1.0000
  Fe  Fe161     1.0  0.44104  0.69602  0.79610  1.0000
  S   S321      1.0  0.46301  0.69179  0.76858  1.0000
  S   S322      1.0  0.39968  0.69547  0.83857  1.0000
  S   S323      1.0  0.41341  0.71112  0.79053  1.0000
  C   C1073     1.0  0.45813  0.57433  0.50869  1.0000
  S   S324      1.0  0.41060  0.54273  0.54418  1.0000
  H   H1846     1.0  0.53824  0.63155  0.57465  1.0000
  H   H1847     1.0  0.34609  0.67629  0.86904  1.0000
  S   S325      1.0  0.37451  0.52074  0.52738  1.0000
  Fe  Fe162     1.0  0.38002  0.54899  0.53996  1.0000
  S   S326      1.0  0.36094  0.56553  0.56348  1.0000
  Fe  Fe163     1.0  0.40548  0.51532  0.52927  1.0000
  C   C1074     1.0  0.59577  0.62265  0.97368  1.0000
  C   C1075     1.0  0.38722  0.51233  0.93601  1.0000
  C   C1076     1.0  0.65845  0.63451  0.68386  1.0000
  C   C1077     1.0  0.35692  0.54031  0.62401  1.0000
  C   C1078     1.0  0.36226  0.54418  0.60210  1.0000
  C   C1079     1.0  0.35426  0.55956  0.59084  1.0000
  C   C1080     1.0  0.62260  0.60073  0.64597  1.0000
  H   H1848     1.0  0.36324  0.52841  0.63254  1.0000
  H   H1849     1.0  0.37260  0.53532  0.59392  1.0000
  C   C1081     1.0  0.52602  0.60936  0.59330  1.0000
  C   C1082     1.0  0.35262  0.62468  0.75250  1.0000
  C   C1083     1.0  0.47278  0.50448  0.54324  1.0000
  C   C1084     1.0  0.34672  0.65323  0.77246  1.0000
  C   C1085     1.0  0.36578  0.65479  0.77605  1.0000
  C   C1086     1.0  0.37825  0.64108  0.76779  1.0000
  H   H1850     1.0  0.36741  0.62432  0.64516  1.0000
  S   S327      1.0  0.66536  0.61085  0.81080  1.0000
  C   C1087     1.0  0.66656  0.62371  0.76710  1.0000
  H   H1851     1.0  0.39293  0.64195  0.77037  1.0000
  H   H1852     1.0  0.49355  0.62736  0.60948  1.0000
  C   C1088     1.0  0.44011  0.65364  0.93967  1.0000
  C   C1089     1.0  0.43365  0.67026  0.92919  1.0000
  C   C1090     1.0  0.43263  0.67174  0.90629  1.0000
  C   C1091     1.0  0.43808  0.65657  0.89360  1.0000
  C   C1092     1.0  0.44447  0.63994  0.90408  1.0000
  C   C1093     1.0  0.44551  0.63847  0.92695  1.0000
  H   H1853     1.0  0.42941  0.68208  0.93884  1.0000
  H   H1854     1.0  0.42766  0.68462  0.89850  1.0000
  H   H1855     1.0  0.44868  0.62809  0.89446  1.0000
  H   H1856     1.0  0.45049  0.62560  0.93476  1.0000
  C   C1094     1.0  0.49091  0.58156  0.53027  1.0000
  C   C1095     1.0  0.47562  0.57422  0.54181  1.0000
  C   C1096     1.0  0.45931  0.57056  0.53108  1.0000
  C   C1097     1.0  0.37711  0.51592  0.97486  1.0000
  S   S328      1.0  0.33770  0.54642  0.66267  1.0000
  N   N79       1.0  0.58693  0.60436  0.97862  1.0000
  H   H1857     1.0  0.47640  0.57134  0.55914  1.0000
  H   H1858     1.0  0.44761  0.56499  0.54015  1.0000
  C   C1098     1.0  0.39425  0.60292  0.66693  1.0000
  H   H1859     1.0  0.41685  0.55173  0.95998  1.0000
  H   H1860     1.0  0.54504  0.73685  0.68329  1.0000
  C   C1099     1.0  0.53960  0.56381  0.99732  1.0000
  H   H1861     1.0  0.47207  0.65359  0.57775  1.0000
  H   H1862     1.0  0.50088  0.66370  0.62964  1.0000
  H   H1863     1.0  0.35248  0.50131  0.74087  1.0000
  C   C1100     1.0  0.52605  0.69969  0.76040  1.0000
  C   C1101     1.0  0.51588  0.70759  0.77799  1.0000
  C   C1102     1.0  0.49660  0.70537  0.78079  1.0000
  C   C1103     1.0  0.48725  0.69523  0.76594  1.0000
  C   C1104     1.0  0.49739  0.68753  0.74821  1.0000
  C   C1105     1.0  0.51667  0.68970  0.74544  1.0000
  H   H1864     1.0  0.52298  0.71549  0.78956  1.0000
  H   H1865     1.0  0.48894  0.71170  0.79423  1.0000
  H   H1866     1.0  0.49028  0.67975  0.73655  1.0000
  H   H1867     1.0  0.52427  0.68359  0.73179  1.0000
  C   C1106     1.0  0.57084  0.65067  0.63726  1.0000
  C   C1107     1.0  0.57669  0.66559  0.62405  1.0000
  C   C1108     1.0  0.57828  0.66391  0.60127  1.0000
  C   C1109     1.0  0.57424  0.64729  0.59144  1.0000
  C   C1110     1.0  0.56884  0.63220  0.60471  1.0000
  C   C1111     1.0  0.56695  0.63397  0.62747  1.0000
  H   H1868     1.0  0.57990  0.67847  0.63134  1.0000
  H   H1869     1.0  0.58261  0.67562  0.59116  1.0000
  H   H1870     1.0  0.56611  0.61921  0.59740  1.0000
  H   H1871     1.0  0.56267  0.62226  0.63758  1.0000
  H   H1872     1.0  0.62285  0.58693  0.65461  1.0000
  H   H1873     1.0  0.64447  0.64867  0.62629  1.0000
  C   C1112     1.0  0.63441  0.64689  0.77213  1.0000
  C   C1113     1.0  0.64412  0.64713  0.75203  1.0000
  H   H1874     1.0  0.35214  0.50714  0.95918  1.0000
  H   H1875     1.0  0.38549  0.60363  0.62170  1.0000
  H   H1876     1.0  0.62207  0.65582  0.77433  1.0000
  H   H1877     1.0  0.36480  0.63988  0.70160  1.0000
  H   H1878     1.0  0.49932  0.66854  0.57332  1.0000
  H   H1879     1.0  0.46390  0.64128  0.60150  1.0000
  S   S329      1.0  0.34530  0.60544  0.73756  1.0000
  N   N80       1.0  0.51160  0.64271  0.58717  1.0000
  H   H1880     1.0  0.50437  0.53295  0.53477  1.0000
  H   H1881     1.0  0.58631  0.60083  0.94366  1.0000
  C   C1114     1.0  0.33550  0.56709  0.62369  1.0000
  C   C1115     1.0  0.46639  0.52226  0.55516  1.0000
  H   H1882     1.0  0.33687  0.66366  0.77873  1.0000
  C   C1116     1.0  0.63575  0.61372  0.65696  1.0000
  C   C1117     1.0  0.59028  0.59274  0.95871  1.0000
  C   C1118     1.0  0.52065  0.64993  0.60676  1.0000
  C   C1119     1.0  0.36849  0.63393  0.68547  1.0000
  H   H1883     1.0  0.50689  0.73000  0.73444  1.0000
  C   C1120     1.0  0.58015  0.57436  0.95865  1.0000
  C   C1121     1.0  0.37098  0.60037  0.62631  1.0000
  C   C1122     1.0  0.65711  0.62384  0.78739  1.0000
  H   H1884     1.0  0.37789  0.52493  0.93366  1.0000
  H   H1885     1.0  0.35432  0.61100  0.81106  1.0000
  H   H1886     1.0  0.60532  0.58879  0.95640  1.0000
  H   H1887     1.0  0.33756  0.65784  0.85433  1.0000
  H   H1888     1.0  0.46039  0.53294  0.51595  1.0000
  H   H1889     1.0  0.61998  0.61575  0.95202  1.0000
  H   H1890     1.0  0.48937  0.62431  0.58151  1.0000
  H   H1891     1.0  0.53796  0.65744  0.55431  1.0000
  C   C1123     1.0  0.47598  0.64863  0.59435  1.0000
  H   H1892     1.0  0.56511  0.57682  0.95575  1.0000
  H   H1893     1.0  0.66472  0.51214  0.88206  1.0000
  H   H1894     1.0  0.53231  0.61211  0.60898  1.0000
  C   C1124     1.0  0.63032  0.64398  0.62386  1.0000
  H   H1895     1.0  0.58594  0.56588  0.94506  1.0000
  H   H1896     1.0  0.41202  0.57726  0.66755  1.0000
  H   H1897     1.0  0.55927  0.59436  0.98460  1.0000
  C   C1125     1.0  0.59653  0.50656  0.52963  1.0000
  C   C1126     1.0  0.34885  0.66149  0.86499  1.0000
  C   C1127     1.0  0.36574  0.61281  0.68706  1.0000
  H   H1898     1.0  0.64783  0.61601  0.64558  1.0000
  H   H1899     1.0  0.63232  0.53359  0.95759  1.0000
  H   H1900     1.0  0.62338  0.65419  0.61248  1.0000
  H   H1901     1.0  0.33673  0.50206  0.78847  1.0000
  C   C1128     1.0  0.36739  0.58193  0.67241  1.0000
  H   H1902     1.0  0.42029  0.52031  0.95078  1.0000
  H   H1903     1.0  0.60922  0.53795  0.94900  1.0000
  H   H1904     1.0  0.46685  0.51943  0.57301  1.0000
  H   H1905     1.0  0.35197  0.58170  0.67276  1.0000
  Fe  Fe164     1.0  0.63475  0.55422  0.00045  1.0000
  H   H1906     1.0  0.36421  0.51921  0.72603  1.0000
  H   H1907     1.0  0.39806  0.57930  0.64370  1.0000
  H   H1908     1.0  0.60446  0.61775  0.71291  1.0000
  H   H1909     1.0  0.36220  0.60626  0.61302  1.0000
  C   C1129     1.0  0.61394  0.51372  0.52503  1.0000
  C   C1130     1.0  0.34355  0.55174  0.63493  1.0000
  H   H1910     1.0  0.52404  0.67790  0.54913  1.0000
  H   H1911     1.0  0.38888  0.57360  0.69623  1.0000
  H   H1912     1.0  0.50812  0.73602  0.70622  1.0000
  C   C1131     1.0  0.34671  0.50376  0.70563  1.0000
  C   C1132     1.0  0.37170  0.62618  0.75615  1.0000
  H   H1913     1.0  0.39973  0.60320  0.68365  1.0000
  Fe  Fe165     1.0  0.57745  0.58904  0.51481  1.0000
  H   H1914     1.0  0.63132  0.63053  0.61555  1.0000
  H   H1915     1.0  0.53937  0.72664  0.71964  1.0000
  H   H1916     1.0  0.52118  0.63918  0.62015  1.0000
  H   H1917     1.0  0.64920  0.59076  0.93002  1.0000
  C   C1133     1.0  0.49501  0.51202  0.51276  1.0000
  H   H1918     1.0  0.37005  0.60347  0.83175  1.0000
  C   C1134     1.0  0.52745  0.66707  0.56184  1.0000
  C   C1135     1.0  0.36632  0.61518  0.82036  1.0000
  H   H1919     1.0  0.64732  0.65402  0.66052  1.0000
  C   C1136     1.0  0.51161  0.66745  0.61708  1.0000
  H   H1920     1.0  0.53550  0.59909  0.58497  1.0000
  H   H1921     1.0  0.62458  0.61274  0.98065  1.0000
  H   H1922     1.0  0.45172  0.52634  0.55166  1.0000
  H   H1923     1.0  0.50547  0.50295  0.52140  1.0000
  H   H1924     1.0  0.62625  0.50460  0.52536  1.0000
  H   H1925     1.0  0.37180  0.57261  0.65909  1.0000
  C   C1137     1.0  0.59507  0.59388  0.99800  1.0000
  H   H1926     1.0  0.62740  0.59844  0.62886  1.0000
  H   H1927     1.0  0.60815  0.58616  0.99300  1.0000
  H   H1928     1.0  0.35057  0.61097  0.68965  1.0000
  C   C1138     1.0  0.36460  0.60939  0.64781  1.0000
  H   H1929     1.0  0.56749  0.73700  0.74372  1.0000
  H   H1930     1.0  0.65328  0.52444  0.91541  1.0000
  H   H1931     1.0  0.62889  0.53832  0.51645  1.0000
  H   H1932     1.0  0.34017  0.52269  0.73278  1.0000
  N   N81       1.0  0.63868  0.50127  0.93009  1.0000
  C   C1139     1.0  0.40859  0.52307  0.96267  1.0000
  C   C1140     1.0  0.49965  0.53205  0.51785  1.0000
  S   S330      1.0  0.60729  0.54100  0.99890  1.0000
  H   H1933     1.0  0.44187  0.68235  0.00109  1.0000
  C   C1141     1.0  0.40377  0.54413  0.96063  1.0000
  H   H1934     1.0  0.34817  0.65329  0.88054  1.0000
  H   H1935     1.0  0.56976  0.54673  0.52406  1.0000
  H   H1936     1.0  0.47799  0.66063  0.60456  1.0000
  S   S331      1.0  0.50703  0.58244  0.98660  1.0000
  C   C1142     1.0  0.64096  0.63547  0.78967  1.0000
  N   N82       1.0  0.37473  0.64014  0.84733  1.0000
  C   C1143     1.0  0.36067  0.63303  0.83239  1.0000
  C   C1144     1.0  0.39332  0.64198  0.83543  1.0000
  C   C1145     1.0  0.36809  0.65955  0.85334  1.0000
  C   C1146     1.0  0.37602  0.62770  0.86742  1.0000
  H   H1937     1.0  0.58905  0.63000  0.95955  1.0000
  C   C1147     1.0  0.40725  0.62505  0.83645  1.0000
  H   H1938     1.0  0.44688  0.51365  0.51316  1.0000
  C   C1148     1.0  0.38794  0.63483  0.88557  1.0000
  C   C1149     1.0  0.51227  0.74043  0.72238  1.0000
  H   H1939     1.0  0.35692  0.64378  0.81964  1.0000
  H   H1940     1.0  0.40099  0.65361  0.84174  1.0000
  H   H1941     1.0  0.39135  0.64594  0.81798  1.0000
  H   H1942     1.0  0.37810  0.66597  0.86388  1.0000
  H   H1943     1.0  0.36753  0.66885  0.83847  1.0000
  H   H1944     1.0  0.36198  0.62529  0.87472  1.0000
  H   H1945     1.0  0.38120  0.61342  0.86353  1.0000
  H   H1946     1.0  0.38152  0.61573  0.74992  1.0000
  C   C1150     1.0  0.46084  0.51897  0.50899  1.0000
  H   H1947     1.0  0.37769  0.61754  0.80812  1.0000
  H   H1948     1.0  0.41313  0.62313  0.85286  1.0000
  H   H1949     1.0  0.40134  0.61193  0.83186  1.0000
  H   H1950     1.0  0.41912  0.62771  0.82496  1.0000
  H   H1951     1.0  0.50564  0.67765  0.60517  1.0000
  C   C1151     1.0  0.61840  0.64260  0.64516  1.0000
  C   C1152     1.0  0.58210  0.53762  0.52449  1.0000
  H   H1952     1.0  0.37916  0.64265  0.89764  1.0000
  H   H1953     1.0  0.39892  0.64398  0.87915  1.0000
  H   H1954     1.0  0.39530  0.62294  0.89404  1.0000
  C   C1153     1.0  0.48976  0.58527  0.50788  1.0000
  H   H1955     1.0  0.39799  0.61633  0.65877  1.0000
  C   C1154     1.0  0.58068  0.51859  0.52978  1.0000
  H   H1956     1.0  0.62632  0.62796  0.71195  1.0000
  C   C1155     1.0  0.61180  0.62937  0.68100  1.0000
  H   H1957     1.0  0.60793  0.60583  0.64557  1.0000
  C   C1156     1.0  0.50960  0.65727  0.56906  1.0000
  Fe  Fe166     1.0  0.45122  0.62757  0.98967  1.0000
  N   N83       1.0  0.47566  0.50612  0.51877  1.0000
  H   H1958     1.0  0.41458  0.52042  0.97893  1.0000
  C   C1157     1.0  0.59945  0.54472  0.51928  1.0000
  H   H1959     1.0  0.39965  0.51454  0.92514  1.0000
  C   C1158     1.0  0.64147  0.64435  0.67312  1.0000
  H   H1960     1.0  0.38188  0.51540  0.99194  1.0000
  N   N84       1.0  0.49180  0.65432  0.82519  1.0000
  C   C1159     1.0  0.47862  0.64009  0.81820  1.0000
  C   C1160     1.0  0.50022  0.64675  0.84600  1.0000
  C   C1161     1.0  0.50675  0.65610  0.80754  1.0000
  C   C1162     1.0  0.48093  0.67254  0.82798  1.0000
  C   C1163     1.0  0.47087  0.64312  0.79520  1.0000
  C   C1164     1.0  0.48640  0.64398  0.86544  1.0000
  C   C1165     1.0  0.52326  0.66798  0.81226  1.0000
  C   C1166     1.0  0.48946  0.68729  0.84194  1.0000
  H   H1961     1.0  0.48537  0.62586  0.81876  1.0000
  H   H1962     1.0  0.46627  0.63949  0.82955  1.0000
  H   H1963     1.0  0.51107  0.65555  0.85174  1.0000
  H   H1964     1.0  0.50767  0.63310  0.84318  1.0000
  H   H1965     1.0  0.51267  0.64209  0.80323  1.0000
  H   H1966     1.0  0.50085  0.66239  0.79234  1.0000
  H   H1967     1.0  0.47795  0.67925  0.81185  1.0000
  H   H1968     1.0  0.46698  0.67005  0.83551  1.0000
  H   H1969     1.0  0.48161  0.64005  0.78231  1.0000
  H   H1970     1.0  0.45952  0.63349  0.79317  1.0000
  H   H1971     1.0  0.46493  0.65738  0.79254  1.0000
  H   H1972     1.0  0.49422  0.63968  0.88018  1.0000
  H   H1973     1.0  0.47831  0.65696  0.86929  1.0000
  H   H1974     1.0  0.47675  0.63281  0.86274  1.0000
  H   H1975     1.0  0.53152  0.66227  0.82600  1.0000
  H   H1976     1.0  0.51887  0.68268  0.81470  1.0000
  H   H1977     1.0  0.53285  0.66806  0.79771  1.0000
  H   H1978     1.0  0.48962  0.70076  0.83263  1.0000
  H   H1979     1.0  0.50375  0.68413  0.84715  1.0000
  H   H1980     1.0  0.48052  0.68982  0.85672  1.0000
  N   N85       1.0  0.39294  0.51030  0.95942  1.0000
  H   H1981     1.0  0.34984  0.50920  0.98791  1.0000
  C   C1167     1.0  0.65728  0.56691  0.95023  1.0000
  H   H1982     1.0  0.57046  0.74271  0.70486  1.0000
  H   H1983     1.0  0.37118  0.55726  0.69341  1.0000
  H   H1984     1.0  0.38306  0.63727  0.68143  1.0000
  N   N86       1.0  0.37342  0.60153  0.66824  1.0000
  C   C1168     1.0  0.40564  0.58714  0.65540  1.0000
  S   S332      1.0  0.59912  0.73952  0.67214  1.0000
  H   H1985     1.0  0.62175  0.51221  0.57355  1.0000
  H   H1986     1.0  0.62783  0.54061  0.92957  1.0000
  C   C1169     1.0  0.49299  0.63488  0.59337  1.0000
  H   H1987     1.0  0.53365  0.67418  0.57536  1.0000
  C   C1170     1.0  0.62307  0.53203  0.94381  1.0000
  H   H1988     1.0  0.60029  0.62171  0.67450  1.0000
  H   H1989     1.0  0.61404  0.65702  0.64981  1.0000
  H   H1990     1.0  0.60518  0.64308  0.68539  1.0000
  H   H1991     1.0  0.59353  0.63241  0.98711  1.0000
  H   H1992     1.0  0.36941  0.58519  0.62660  1.0000
  H   H1993     1.0  0.63489  0.65395  0.68518  1.0000
  H   H1994     1.0  0.63349  0.63576  0.80522  1.0000
  S   S333      1.0  0.45472  0.59744  0.98132  1.0000
  C   C1171     1.0  0.61723  0.61946  0.70256  1.0000
  H   H1995     1.0  0.58201  0.56601  0.97389  1.0000
  H   H1996     1.0  0.52252  0.67497  0.62506  1.0000
  H   H1997     1.0  0.50406  0.65103  0.55437  1.0000
  H   H1998     1.0  0.53553  0.65256  0.60322  1.0000
  H   H1999     1.0  0.60994  0.51091  0.92666  1.0000
  C   C1172     1.0  0.65749  0.57789  0.93089  1.0000
  H   H2000     1.0  0.60561  0.51944  0.59441  1.0000
  H   H2001     1.0  0.62363  0.60539  0.70025  1.0000
  C   C1173     1.0  0.53355  0.74066  0.72400  1.0000
  C   C1174     1.0  0.62123  0.51141  0.93854  1.0000
  C   C1175     1.0  0.52395  0.62700  0.57840  1.0000
  H   H2002     1.0  0.63418  0.51795  0.90049  1.0000
  N   N87       1.0  0.62721  0.63209  0.66410  1.0000
  H   H2003     1.0  0.51095  0.53669  0.50649  1.0000
  H   H2004     1.0  0.51268  0.60250  0.59619  1.0000
  H   H2005     1.0  0.51868  0.62238  0.56274  1.0000
  C   C1176     1.0  0.66023  0.63543  0.74970  1.0000
  C   C1177     1.0  0.61540  0.53279  0.52003  1.0000
  H   H2006     1.0  0.56017  0.61422  0.96678  1.0000
  Fe  Fe167     1.0  0.41444  0.55343  0.50976  1.0000
  H   H2007     1.0  0.63516  0.50670  0.60936  1.0000
  H   H2008     1.0  0.37211  0.53051  0.97145  1.0000
  H   H2009     1.0  0.47334  0.67984  0.98848  1.0000
  C   C1178     1.0  0.34018  0.63837  0.76078  1.0000
  H   H2010     1.0  0.39620  0.54800  0.94565  1.0000
  C   C1179     1.0  0.61292  0.50703  0.58735  1.0000
  C   C1180     1.0  0.56622  0.60768  0.98179  1.0000
  C   C1181     1.0  0.35957  0.50459  0.97456  1.0000
  H   H2011     1.0  0.39576  0.54910  0.97521  1.0000
  S   S334      1.0  0.60162  0.56800  0.51025  1.0000
  C   C1182     1.0  0.61686  0.62135  0.96841  1.0000
  H   H2012     1.0  0.65686  0.51444  0.95141  1.0000
  H   H2013     1.0  0.47527  0.53405  0.55122  1.0000
  C   C1183     1.0  0.34083  0.57094  0.60177  1.0000
  C   C1184     1.0  0.64590  0.51218  0.91038  1.0000
  H   H2014     1.0  0.62237  0.63550  0.96821  1.0000
  H   H2015     1.0  0.61582  0.50465  0.95385  1.0000
  C   C1185     1.0  0.35087  0.51211  0.72768  1.0000
  H   H2016     1.0  0.34788  0.51532  0.69326  1.0000
  H   H2017     1.0  0.65461  0.62400  0.69654  1.0000
  H   H2018     1.0  0.66638  0.64505  0.69194  1.0000
  H   H2019     1.0  0.65324  0.50355  0.57439  1.0000
  Fe  Fe168     1.0  0.48107  0.59741  0.00017  1.0000
  S   S335      1.0  0.38432  0.56216  0.50625  1.0000
  H   H2020     1.0  0.56718  0.51313  0.53355  1.0000
  H   H2021     1.0  0.48811  0.54234  0.51506  1.0000
  C   C1186     1.0  0.65911  0.50184  0.89415  1.0000
  H   H2022     1.0  0.34413  0.50312  0.66092  1.0000
  H   H2023     1.0  0.36770  0.50108  0.91418  1.0000
  H   H2024     1.0  0.56488  0.63357  0.00042  1.0000
  H   H2025     1.0  0.33453  0.58285  0.59320  1.0000
  S   S336      1.0  0.40421  0.75062  0.83115  1.0000
  C   C1187     1.0  0.55941  0.61946  0.00112  1.0000
  H   H2026     1.0  0.54403  0.62126  0.00075  1.0000
  Fe  Fe169     1.0  0.63263  0.84888  0.38804  1.0000
  S   S337      1.0  0.60785  0.86300  0.40508  1.0000
  S   S338      1.0  0.63548  0.81988  0.37236  1.0000
  H   H2027     1.0  0.35647  0.92967  0.12979  1.0000
  S   S339      1.0  0.63220  0.89973  0.40727  1.0000
  Fe  Fe170     1.0  0.62819  0.87389  0.42866  1.0000
  S   S340      1.0  0.62138  0.87840  0.46586  1.0000
  Fe  Fe171     1.0  0.61337  0.88818  0.38291  1.0000
  S   S341      1.0  0.58718  0.90287  0.36722  1.0000
  S   S342      1.0  0.65276  0.85823  0.41274  1.0000
  S   S343      1.0  0.63735  0.87355  0.36487  1.0000
  Fe  Fe172     1.0  0.36873  0.87808  0.14358  1.0000
  S   S344      1.0  0.38661  0.89976  0.12722  1.0000
  H   H2028     1.0  0.40788  0.81845  0.02161  1.0000
  Fe  Fe173     1.0  0.40211  0.84997  0.14678  1.0000
  S   S345      1.0  0.42157  0.87075  0.13087  1.0000
  S   S346      1.0  0.41572  0.82055  0.15374  1.0000
  Fe  Fe174     1.0  0.40771  0.89222  0.15294  1.0000
  S   S347      1.0  0.41829  0.91749  0.17163  1.0000
  Fe  Fe175     1.0  0.39906  0.87696  0.10626  1.0000
  S   S348      1.0  0.40697  0.88106  0.06912  1.0000
  S   S349      1.0  0.38925  0.87119  0.17001  1.0000
  S   S350      1.0  0.38030  0.85552  0.12135  1.0000
  Fe  Fe176     1.0  0.49833  0.97466  0.24522  1.0000
  S   S351      1.0  0.50001  0.97218  0.28194  1.0000
  S   S352      1.0  0.48369  0.95246  0.22564  1.0000
  Fe  Fe177     1.0  0.53048  0.97749  0.27769  1.0000
  S   S353      1.0  0.55552  0.96285  0.29518  1.0000
  S   S354      1.0  0.52937  0.97831  0.24083  1.0000
  C   C1188     1.0  0.43684  0.92675  0.18655  1.0000
  C   C1189     1.0  0.45351  0.91672  0.19095  1.0000
  C   C1190     1.0  0.46755  0.92471  0.20283  1.0000
  C   C1191     1.0  0.46533  0.94291  0.21064  1.0000
  C   C1192     1.0  0.44869  0.95297  0.20617  1.0000
  C   C1193     1.0  0.43467  0.94498  0.19432  1.0000
  H   H2029     1.0  0.45559  0.90273  0.18521  1.0000
  H   H2030     1.0  0.48023  0.91664  0.20602  1.0000
  H   H2031     1.0  0.44665  0.96703  0.21163  1.0000
  H   H2032     1.0  0.42202  0.95306  0.19101  1.0000
  C   C1194     1.0  0.41216  0.79876  0.16805  1.0000
  C   C1195     1.0  0.39771  0.79624  0.18354  1.0000
  C   C1196     1.0  0.39585  0.77886  0.19470  1.0000
  C   C1197     1.0  0.40819  0.76356  0.19043  1.0000
  C   C1198     1.0  0.42255  0.76601  0.17483  1.0000
  C   C1199     1.0  0.42458  0.78347  0.16391  1.0000
  H   H2033     1.0  0.38804  0.80775  0.18703  1.0000
  H   H2034     1.0  0.38467  0.77727  0.20667  1.0000
  H   H2035     1.0  0.47007  0.76011  0.18186  1.0000
  H   H2036     1.0  0.43578  0.78513  0.15196  1.0000
  H   H2037     1.0  0.53540  0.94229  0.18042  1.0000
  C   C1200     1.0  0.38089  0.87479  0.03704  1.0000
  C   C1201     1.0  0.39880  0.87998  0.04170  1.0000
  C   C1202     1.0  0.41088  0.88437  0.02387  1.0000
  H   H2038     1.0  0.42404  0.79279  0.00722  1.0000
  H   H2039     1.0  0.37134  0.87131  0.05035  1.0000
  H   H2040     1.0  0.42474  0.88848  0.02705  1.0000
  H   H2041     1.0  0.45248  0.93601  0.25435  1.0000
  C   C1203     1.0  0.57881  0.91965  0.34698  1.0000
  C   C1204     1.0  0.55948  0.92273  0.34475  1.0000
  C   C1205     1.0  0.55211  0.93546  0.32882  1.0000
  C   C1206     1.0  0.56395  0.94567  0.31493  1.0000
  C   C1207     1.0  0.58327  0.94269  0.31726  1.0000
  C   C1208     1.0  0.59064  0.92976  0.33299  1.0000
  H   H2042     1.0  0.55010  0.91512  0.35543  1.0000
  H   H2043     1.0  0.53726  0.93745  0.32742  1.0000
  H   H2044     1.0  0.59267  0.95047  0.30679  1.0000
  H   H2045     1.0  0.60550  0.92772  0.33437  1.0000
  C   C1209     1.0  0.37069  0.90609  0.20681  1.0000
  H   H2046     1.0  0.33597  0.93022  0.14660  1.0000
  H   H2047     1.0  0.62779  0.76163  0.33401  1.0000
  C   C1210     1.0  0.46963  0.76822  0.22638  1.0000
  C   C1211     1.0  0.60432  0.76719  0.35568  1.0000
  C   C1212     1.0  0.59666  0.77964  0.37114  1.0000
  C   C1213     1.0  0.60603  0.79556  0.37671  1.0000
  C   C1214     1.0  0.62321  0.79951  0.36671  1.0000
  C   C1215     1.0  0.63093  0.78697  0.35138  1.0000
  C   C1216     1.0  0.62161  0.77097  0.34589  1.0000
  H   H2048     1.0  0.58339  0.77688  0.37901  1.0000
  H   H2049     1.0  0.60007  0.80466  0.38895  1.0000
  H   H2050     1.0  0.64422  0.78972  0.34355  1.0000
  H   H2051     1.0  0.45852  0.96355  0.15412  1.0000
  H   H2052     1.0  0.45484  0.77243  0.22334  1.0000
  C   C1217     1.0  0.44300  0.99289  0.26055  1.0000
  H   H2053     1.0  0.50049  0.75108  0.21414  1.0000
  H   H2054     1.0  0.54459  0.00065  0.32279  1.0000
  C   C1218     1.0  0.37528  0.87403  0.01516  1.0000
  H   H2055     1.0  0.37582  0.96299  0.16117  1.0000
  H   H2056     1.0  0.49059  0.78289  0.24338  1.0000
  C   C1219     1.0  0.35026  0.93528  0.14512  1.0000
  H   H2057     1.0  0.58273  0.83214  0.38032  1.0000
  C   C1220     1.0  0.56917  0.83834  0.37529  1.0000
  H   H2058     1.0  0.42637  0.96779  0.33022  1.0000
  H   H2059     1.0  0.44106  0.75957  0.25492  1.0000
  C   C1221     1.0  0.36214  0.92811  0.16433  1.0000
  H   H2060     1.0  0.44605  0.97944  0.33867  1.0000
  H   H2061     1.0  0.56000  0.82764  0.36979  1.0000
  C   C1222     1.0  0.44154  0.96888  0.32742  1.0000
  C   C1223     1.0  0.56144  0.98713  0.34751  1.0000
  H   H2062     1.0  0.43800  0.96522  0.25100  1.0000
  H   H2063     1.0  0.54062  0.96537  0.17169  1.0000
  H   H2064     1.0  0.45617  0.91784  0.27414  1.0000
  H   H2065     1.0  0.56238  0.84411  0.39024  1.0000
  H   H2066     1.0  0.51110  0.95099  0.15643  1.0000
  H   H2067     1.0  0.36743  0.90250  0.22418  1.0000
  H   H2068     1.0  0.38613  0.83053  0.02549  1.0000
  H   H2069     1.0  0.53781  0.97861  0.13723  1.0000
  H   H2070     1.0  0.47786  0.94805  0.15904  1.0000
  H   H2071     1.0  0.50280  0.75418  0.25595  1.0000
  H   H2072     1.0  0.49353  0.97581  0.36029  1.0000
  C   C1224     1.0  0.50867  0.98622  0.14580  1.0000
  H   H2073     1.0  0.55576  0.83973  0.32573  1.0000
  H   H2074     1.0  0.33749  0.92131  0.22693  1.0000
  C   C1225     1.0  0.39892  0.82990  0.01488  1.0000
  C   C1226     1.0  0.36950  0.92745  0.20285  1.0000
  C   C1227     1.0  0.57424  0.81537  0.32959  1.0000
  H   H2075     1.0  0.47478  0.99072  0.16239  1.0000
  C   C1228     1.0  0.47394  0.96240  0.15324  1.0000
  H   H2076     1.0  0.40225  0.98247  0.27231  1.0000
  H   H2077     1.0  0.52190  0.99135  0.18843  1.0000
  H   H2078     1.0  0.56133  0.80816  0.32668  1.0000
  C   C1229     1.0  0.57122  0.85425  0.35821  1.0000
  H   H2079     1.0  0.50613  0.97633  0.13284  1.0000
  H   H2080     1.0  0.37005  0.98068  0.18008  1.0000
  C   C1230     1.0  0.37243  0.96543  0.17859  1.0000
  H   H2081     1.0  0.47591  0.97442  0.18455  1.0000
  H   H2082     1.0  0.53732  0.98513  0.38142  1.0000
  H   H2083     1.0  0.36665  0.93397  0.21884  1.0000
  H   H2084     1.0  0.46188  0.97641  0.30261  1.0000
  C   C1231     1.0  0.45045  0.94471  0.28863  1.0000
  H   H2085     1.0  0.40538  0.84339  0.01667  1.0000
  H   H2086     1.0  0.43306  0.92671  0.26999  1.0000
  H   H2087     1.0  0.50010  0.99883  0.14092  1.0000
  H   H2088     1.0  0.50698  0.98048  0.39324  1.0000
  C   C1232     1.0  0.44654  0.97535  0.30388  1.0000
  C   C1233     1.0  0.47592  0.77904  0.24583  1.0000
  H   H2089     1.0  0.55839  0.97236  0.34594  1.0000
  N   N88       1.0  0.58149  0.84969  0.33711  1.0000
  C   C1234     1.0  0.58326  0.86768  0.32400  1.0000
  C   C1235     1.0  0.60087  0.84243  0.34194  1.0000
  H   H2090     1.0  0.47827  0.96437  0.13589  1.0000
  C   C1236     1.0  0.61404  0.83944  0.32193  1.0000
  H   H2091     1.0  0.59224  0.87724  0.33235  1.0000
  H   H2092     1.0  0.59027  0.86521  0.30790  1.0000
  H   H2093     1.0  0.60088  0.82911  0.35126  1.0000
  H   H2094     1.0  0.60758  0.85196  0.35279  1.0000
  H   H2095     1.0  0.44634  0.93748  0.30419  1.0000
  H   H2096     1.0  0.57475  0.83819  0.30654  1.0000
  H   H2097     1.0  0.52855  0.96633  0.35445  1.0000
  H   H2098     1.0  0.60748  0.83207  0.30890  1.0000
  H   H2099     1.0  0.38377  0.93148  0.19784  1.0000
  H   H2100     1.0  0.62645  0.83086  0.32696  1.0000
  H   H2101     1.0  0.57816  0.86548  0.36637  1.0000
  H   H2102     1.0  0.47419  0.77158  0.26171  1.0000
  H   H2103     1.0  0.39363  0.97412  0.29850  1.0000
  H   H2104     1.0  0.55837  0.88470  0.33381  1.0000
  C   C1237     1.0  0.57096  0.83641  0.32419  1.0000
  H   H2105     1.0  0.55683  0.85965  0.35524  1.0000
  H   H2106     1.0  0.37683  0.93149  0.16055  1.0000
  H   H2107     1.0  0.49949  0.95819  0.34125  1.0000
  H   H2108     1.0  0.35161  0.96049  0.20352  1.0000
  C   C1238     1.0  0.56494  0.87862  0.31896  1.0000
  H   H2109     1.0  0.33578  0.91320  0.18779  1.0000
  H   H2110     1.0  0.57792  0.81172  0.34652  1.0000
  H   H2111     1.0  0.38513  0.90070  0.20330  1.0000
  H   H2112     1.0  0.58492  0.80909  0.31828  1.0000
  C   C1239     1.0  0.41968  0.96030  0.28784  1.0000
  H   H2113     1.0  0.64595  0.85263  0.49211  1.0000
  C   C1240     1.0  0.53035  0.95707  0.18092  1.0000
  H   H2114     1.0  0.41616  0.95086  0.30195  1.0000
  H   H2115     1.0  0.42883  0.99831  0.26476  1.0000
  H   H2116     1.0  0.55500  0.87003  0.31094  1.0000
  H   H2117     1.0  0.36145  0.86983  0.01210  1.0000
  H   H2118     1.0  0.50131  0.98473  0.20188  1.0000
  H   H2119     1.0  0.47718  0.77417  0.21188  1.0000
  N   N89       1.0  0.44021  0.96340  0.28613  1.0000
  H   H2120     1.0  0.44895  0.95561  0.33210  1.0000
  H   H2121     1.0  0.46571  0.94645  0.28931  1.0000
  H   H2122     1.0  0.46705  0.79198  0.24731  1.0000
  C   C1241     1.0  0.52927  0.99088  0.14277  1.0000
  H   H2123     1.0  0.38460  0.96125  0.18844  1.0000
  C   C1242     1.0  0.44766  0.93076  0.27061  1.0000
  H   H2124     1.0  0.56803  0.89055  0.30770  1.0000
  Fe  Fe178     1.0  0.65599  0.88355  0.39043  1.0000
  H   H2125     1.0  0.61919  0.85285  0.31537  1.0000
  H   H2126     1.0  0.36150  0.89826  0.19679  1.0000
  C   C1243     1.0  0.62488  0.87458  0.49483  1.0000
  N   N90       1.0  0.35573  0.93479  0.18641  1.0000
  H   H2127     1.0  0.52665  0.97498  0.32725  1.0000
  H   H2128     1.0  0.53004  0.96078  0.19829  1.0000
  H   H2129     1.0  0.46064  0.96851  0.26021  1.0000
  H   H2130     1.0  0.49344  0.98109  0.33132  1.0000
  H   H2131     1.0  0.36231  0.91270  0.16410  1.0000
  C   C1244     1.0  0.52150  0.97743  0.34427  1.0000
  C   C1245     1.0  0.48155  0.97723  0.16775  1.0000
  N   N91       1.0  0.50242  0.97837  0.16775  1.0000
  H   H2132     1.0  0.50187  0.95100  0.18353  1.0000
  C   C1246     1.0  0.51073  0.95895  0.17167  1.0000
  H   H2133     1.0  0.34979  0.95061  0.14313  1.0000
  C   C1247     1.0  0.50679  0.99068  0.18612  1.0000
  H   H2134     1.0  0.53530  0.99637  0.15739  1.0000
  C   C1248     1.0  0.50074  0.97314  0.34450  1.0000
  C   C1249     1.0  0.33657  0.92800  0.19164  1.0000
  H   H2135     1.0  0.43205  0.75446  0.17107  1.0000
  H   H2136     1.0  0.34302  0.96163  0.17696  1.0000
  C   C1250     1.0  0.50991  0.99527  0.38953  1.0000
  H   H2137     1.0  0.41189  0.98939  0.29738  1.0000
  S   S355      1.0  0.33756  0.88730  0.14613  1.0000
  C   C1251     1.0  0.35474  0.95572  0.18672  1.0000
  H   H2138     1.0  0.41535  0.95263  0.27359  1.0000
  C   C1252     1.0  0.40638  0.97767  0.28889  1.0000
  H   H2139     1.0  0.57368  0.98977  0.33655  1.0000
  H   H2140     1.0  0.44101  0.98991  0.30221  1.0000
  N   N92       1.0  0.52640  0.99651  0.35122  1.0000
  C   C1253     1.0  0.44564  0.97165  0.26402  1.0000
  H   H2141     1.0  0.56566  0.98940  0.36437  1.0000
  C   C1254     1.0  0.52797  0.99685  0.37559  1.0000
  C   C1255     1.0  0.54515  0.00058  0.34090  1.0000
  H   H2142     1.0  0.45319  0.00031  0.26976  1.0000
  H   H2143     1.0  0.44577  0.99654  0.24307  1.0000
  Fe  Fe179     1.0  0.62604  0.85063  0.65306  1.0000
  S   S356      1.0  0.60526  0.86545  0.63113  1.0000
  S   S357      1.0  0.61993  0.82537  0.67620  1.0000
  Fe  Fe180     1.0  0.65427  0.88177  0.64554  1.0000
  S   S358      1.0  0.63454  0.89844  0.62362  1.0000
  Fe  Fe181     1.0  0.61182  0.89157  0.64864  1.0000
  S   S359      1.0  0.58715  0.91142  0.66000  1.0000
  Fe  Fe182     1.0  0.62941  0.87139  0.60762  1.0000
  S   S360      1.0  0.63293  0.86605  0.57019  1.0000
  S   S361      1.0  0.63181  0.87660  0.67123  1.0000
  S   S362      1.0  0.64991  0.85494  0.62887  1.0000
  Fe  Fe183     1.0  0.36664  0.88314  0.88881  1.0000
  S   S363      1.0  0.38264  0.90226  0.90907  1.0000
  H   H2144     1.0  0.35261  0.90763  0.95482  1.0000
  Fe  Fe184     1.0  0.39611  0.85109  0.89419  1.0000
  S   S364      1.0  0.41346  0.86855  0.91470  1.0000
  S   S365      1.0  0.40957  0.82151  0.89151  1.0000
  Fe  Fe185     1.0  0.38702  0.87770  0.93258  1.0000
  S   S366      1.0  0.37950  0.87661  0.96988  1.0000
  Fe  Fe186     1.0  0.40810  0.89189  0.88969  1.0000
  S   S367      1.0  0.43392  0.90832  0.87820  1.0000
  S   S368      1.0  0.36972  0.85912  0.91317  1.0000
  S   S369      1.0  0.39199  0.87394  0.86842  1.0000
  Fe  Fe187     1.0  0.49263  0.97818  0.78633  1.0000
  S   S370      1.0  0.49528  0.98010  0.74938  1.0000
  S   S371      1.0  0.46814  0.96081  0.80049  1.0000
  Fe  Fe188     1.0  0.52658  0.97870  0.75295  1.0000
  S   S372      1.0  0.55165  0.96076  0.73859  1.0000
  S   S373      1.0  0.52369  0.97506  0.78960  1.0000
  C   C1256     1.0  0.44286  0.92333  0.85656  1.0000
  C   C1257     1.0  0.46103  0.92962  0.85773  1.0000
  C   C1258     1.0  0.46896  0.94103  0.84094  1.0000
  C   C1259     1.0  0.45890  0.94637  0.82246  1.0000
  C   C1260     1.0  0.44077  0.93996  0.82121  1.0000
  C   C1261     1.0  0.43281  0.92860  0.83804  1.0000
  H   H2145     1.0  0.46907  0.92570  0.87182  1.0000
  H   H2146     1.0  0.48287  0.94573  0.84234  1.0000
  H   H2147     1.0  0.43276  0.94386  0.80709  1.0000
  H   H2148     1.0  0.41887  0.92395  0.83667  1.0000
  H   H2149     1.0  0.34154  0.87766  0.94956  1.0000
  H   H2150     1.0  0.64962  0.84807  0.53213  1.0000
  C   C1262     1.0  0.40767  0.80195  0.87455  1.0000
  C   C1263     1.0  0.41923  0.78592  0.87828  1.0000
  C   C1264     1.0  0.41839  0.77012  0.86534  1.0000
  C   C1265     1.0  0.40596  0.77008  0.84832  1.0000
  C   C1266     1.0  0.39445  0.78615  0.84456  1.0000
  C   C1267     1.0  0.39523  0.80192  0.85757  1.0000
  H   H2151     1.0  0.42893  0.78568  0.89133  1.0000
  H   H2152     1.0  0.41861  0.86824  0.83047  1.0000
  H   H2153     1.0  0.38474  0.78635  0.83152  1.0000
  H   H2154     1.0  0.38612  0.81399  0.85446  1.0000
  C   C1268     1.0  0.57788  0.92548  0.68194  1.0000
  C   C1269     1.0  0.55995  0.93400  0.68032  1.0000
  C   C1270     1.0  0.55171  0.94474  0.69731  1.0000
  C   C1271     1.0  0.56126  0.94724  0.71639  1.0000
  C   C1272     1.0  0.57919  0.93866  0.71807  1.0000
  C   C1273     1.0  0.58743  0.92793  0.70106  1.0000
  H   H2155     1.0  0.55233  0.93231  0.66572  1.0000
  H   H2156     1.0  0.53798  0.95116  0.69555  1.0000
  H   H2157     1.0  0.58680  0.94033  0.73266  1.0000
  H   H2158     1.0  0.60122  0.92162  0.70272  1.0000
  C   C1274     1.0  0.62925  0.86948  0.54122  1.0000
  C   C1275     1.0  0.61659  0.88302  0.53279  1.0000
  H   H2159     1.0  0.40764  0.79499  0.97616  1.0000
  C   C1276     1.0  0.63978  0.85862  0.52612  1.0000
  H   H2160     1.0  0.60836  0.89162  0.54388  1.0000
  S   S374      1.0  0.34027  0.89685  0.87374  1.0000
  C   C1277     1.0  0.60528  0.76327  0.67375  1.0000
  C   C1278     1.0  0.60893  0.77139  0.69345  1.0000
  C   C1279     1.0  0.61331  0.79033  0.69380  1.0000
  C   C1280     1.0  0.61434  0.80147  0.67451  1.0000
  C   C1281     1.0  0.61062  0.79336  0.65483  1.0000
  C   C1282     1.0  0.60608  0.77447  0.65451  1.0000
  H   H2161     1.0  0.44781  0.82641  0.96256  1.0000
  H   H2162     1.0  0.61624  0.79633  0.70912  1.0000
  H   H2163     1.0  0.61132  0.80162  0.63982  1.0000
  H   H2164     1.0  0.60332  0.76845  0.63914  1.0000
  C   C1283     1.0  0.41812  0.80586  0.97525  1.0000
  H   H2165     1.0  0.60443  0.89588  0.50392  1.0000
  H   H2166     1.0  0.43529  0.84053  0.94248  1.0000
  N   N93       1.0  0.44687  0.85938  0.83776  1.0000
  H   H2167     1.0  0.56368  0.76144  0.74892  1.0000
  H   H2168     1.0  0.43109  0.86752  0.86679  1.0000
  C   C1284     1.0  0.39987  0.82744  0.95211  1.0000
  H   H2169     1.0  0.45804  0.84935  0.79569  1.0000
  C   C1285     1.0  0.45879  0.86072  0.87705  1.0000
  H   H2170     1.0  0.38818  0.79976  0.94909  1.0000
  H   H2171     1.0  0.45577  0.82578  0.80634  1.0000
  H   H2172     1.0  0.46023  0.83214  0.84191  1.0000
  C   C1286     1.0  0.41963  0.83834  0.83153  1.0000
  C   C1287     1.0  0.38737  0.87843  0.99736  1.0000
  H   H2173     1.0  0.40919  0.83609  0.81912  1.0000
  H   H2174     1.0  0.54430  0.77866  0.66997  1.0000
  C   C1288     1.0  0.45295  0.87889  0.83303  1.0000
  N   N94       1.0  0.54301  0.75549  0.71036  1.0000
  H   H2175     1.0  0.43781  0.84349  0.86658  1.0000
  H   H2176     1.0  0.46540  0.88182  0.84227  1.0000
  H   H2177     1.0  0.62203  0.96178  0.74607  1.0000
  H   H2178     1.0  0.41195  0.83881  0.84744  1.0000
  H   H2179     1.0  0.41483  0.88722  0.98876  1.0000
  H   H2180     1.0  0.58484  0.95808  0.78274  1.0000
  C   C1289     1.0  0.38386  0.81469  0.94781  1.0000
  C   C1290     1.0  0.61438  0.88544  0.50995  1.0000
  H   H2181     1.0  0.44362  0.79327  0.98843  1.0000
  H   H2182     1.0  0.66118  0.91962  0.56754  1.0000
  H   H2183     1.0  0.60861  0.76304  0.70837  1.0000
  C   C1291     1.0  0.44322  0.97959  0.75059  1.0000
  H   H2184     1.0  0.66286  0.88572  0.54796  1.0000
  H   H2185     1.0  0.46201  0.87562  0.87739  1.0000
  H   H2186     1.0  0.37151  0.81770  0.95856  1.0000
  C   C1292     1.0  0.42900  0.85686  0.82635  1.0000
  H   H2187     1.0  0.44182  0.88905  0.83846  1.0000
  H   H2188     1.0  0.44789  0.85118  0.96265  1.0000
  H   H2189     1.0  0.47083  0.87655  0.80347  1.0000
  H   H2190     1.0  0.52125  0.79079  0.74022  1.0000
  H   H2191     1.0  0.57528  0.96487  0.80858  1.0000
  C   C1293     1.0  0.46308  0.83889  0.80789  1.0000
  C   C1294     1.0  0.43111  0.80138  0.99439  1.0000
  H   H2192     1.0  0.43077  0.85814  0.80843  1.0000
  H   H2193     1.0  0.41471  0.85408  0.97262  1.0000
  N   N95       1.0  0.59241  0.99647  0.76875  1.0000
  H   H2194     1.0  0.39428  0.84198  0.94957  1.0000
  C   C1295     1.0  0.42202  0.84033  0.97555  1.0000
  C   C1296     1.0  0.58887  0.98736  0.79088  1.0000
  H   H2195     1.0  0.52087  0.77688  0.70736  1.0000
  N   N96       1.0  0.40866  0.82495  0.97406  1.0000
  C   C1297     1.0  0.46200  0.84512  0.83177  1.0000
  C   C1298     1.0  0.39332  0.82688  0.99130  1.0000
  H   H2196     1.0  0.56522  0.76382  0.67137  1.0000
  H   H2197     1.0  0.44647  0.88252  0.79812  1.0000
  C   C1299     1.0  0.45801  0.88421  0.80920  1.0000
  C   C1300     1.0  0.53487  0.77476  0.71439  1.0000
  H   H2198     1.0  0.47147  0.85218  0.87281  1.0000
  C   C1301     1.0  0.44262  0.85758  0.86197  1.0000
  H   H2199     1.0  0.46106  0.89921  0.80822  1.0000
  H   H2200     1.0  0.54609  0.78832  0.74226  1.0000
  H   H2201     1.0  0.50529  0.75395  0.72635  1.0000
  H   H2202     1.0  0.37940  0.81740  0.93081  1.0000
  H   H2203     1.0  0.54321  0.78531  0.70537  1.0000
  H   H2204     1.0  0.60293  0.98959  0.73646  1.0000
  H   H2205     1.0  0.61659  0.96384  0.77444  1.0000
  H   H2206     1.0  0.56366  0.97232  0.78462  1.0000
  H   H2207     1.0  0.42620  0.80291  0.95986  1.0000
  H   H2208     1.0  0.45448  0.85664  0.89400  1.0000
  H   H2209     1.0  0.47583  0.85016  0.83565  1.0000
  H   H2210     1.0  0.47782  0.83540  0.80328  1.0000
  H   H2211     1.0  0.42958  0.82616  0.83166  1.0000
  C   C1302     1.0  0.43911  0.83929  0.95977  1.0000
  N   N97       1.0  0.57039  0.86737  0.70157  1.0000
  C   C1303     1.0  0.55489  0.88173  0.69723  1.0000
  C   C1304     1.0  0.57725  0.86044  0.67974  1.0000
  C   C1305     1.0  0.58589  0.87700  0.71181  1.0000
  C   C1306     1.0  0.56300  0.85221  0.71656  1.0000
  C   C1307     1.0  0.54722  0.89272  0.71695  1.0000
  C   C1308     1.0  0.56268  0.85152  0.66611  1.0000
  C   C1309     1.0  0.60290  0.86473  0.71856  1.0000
  C   C1310     1.0  0.57339  0.83289  0.71596  1.0000
  H   H2212     1.0  0.55928  0.89210  0.68449  1.0000
  H   H2213     1.0  0.54275  0.87519  0.69049  1.0000
  H   H2214     1.0  0.58912  0.85032  0.68108  1.0000
  H   H2215     1.0  0.58288  0.87210  0.66961  1.0000
  H   H2216     1.0  0.59103  0.88822  0.70058  1.0000
  H   H2217     1.0  0.58099  0.88387  0.72697  1.0000
  H   H2218     1.0  0.56255  0.85672  0.73373  1.0000
  H   H2219     1.0  0.54837  0.84972  0.71269  1.0000
  H   H2220     1.0  0.55692  0.90334  0.72151  1.0000
  H   H2221     1.0  0.53423  0.90056  0.71235  1.0000
  H   H2222     1.0  0.54383  0.88357  0.73124  1.0000
  H   H2223     1.0  0.55324  0.86231  0.65855  1.0000
  H   H2224     1.0  0.56994  0.84405  0.65253  1.0000
  H   H2225     1.0  0.55447  0.84134  0.67569  1.0000
  H   H2226     1.0  0.59942  0.85515  0.73243  1.0000
  H   H2227     1.0  0.61369  0.87382  0.72418  1.0000
  H   H2228     1.0  0.60939  0.85688  0.70493  1.0000
  H   H2229     1.0  0.57340  0.82655  0.73268  1.0000
  H   H2230     1.0  0.58806  0.83288  0.71024  1.0000
  H   H2231     1.0  0.56591  0.82323  0.70604  1.0000
  C   C1311     1.0  0.57756  0.96968  0.79138  1.0000
  H   H2232     1.0  0.41431  0.97519  0.79005  1.0000
  H   H2233     1.0  0.34213  0.90584  0.91910  1.0000
  H   H2234     1.0  0.33668  0.92601  0.96241  1.0000
  H   H2235     1.0  0.42974  0.97343  0.75481  1.0000
  H   H2236     1.0  0.42831  0.99076  0.80403  1.0000
  H   H2237     1.0  0.40377  0.99226  0.80700  1.0000
  H   H2238     1.0  0.41030  0.82507  0.93866  1.0000
  H   H2239     1.0  0.58124  0.99722  0.80189  1.0000
  H   H2240     1.0  0.54763  0.75904  0.65317  1.0000
  H   H2241     1.0  0.45063  0.99191  0.78012  1.0000
  C   C1312     1.0  0.53350  0.78102  0.73816  1.0000
  H   H2242     1.0  0.35003  0.90914  0.99391  1.0000
  H   H2243     1.0  0.42735  0.75795  0.86851  1.0000
  H   H2244     1.0  0.60210  0.98365  0.79909  1.0000
  H   H2245     1.0  0.53116  0.76968  0.75033  1.0000
  H   H2246     1.0  0.62980  0.98133  0.75975  1.0000
  C   C1313     1.0  0.54999  0.76412  0.66966  1.0000
  H   H2247     1.0  0.45427  0.96878  0.75417  1.0000
  C   C1314     1.0  0.60003  0.98262  0.75257  1.0000
  H   H2248     1.0  0.58953  0.97232  0.74922  1.0000
  C   C1315     1.0  0.41543  0.98976  0.79503  1.0000
  H   H2249     1.0  0.56440  0.99356  0.75876  1.0000
  H   H2250     1.0  0.57026  0.76716  0.70735  1.0000
  H   H2251     1.0  0.40545  0.99581  0.76309  1.0000
  C   C1316     1.0  0.61815  0.97191  0.75888  1.0000
  C   C1317     1.0  0.56366  0.75440  0.71396  1.0000
  H   H2252     1.0  0.52526  0.75243  0.68290  1.0000
  C   C1318     1.0  0.57004  0.75131  0.73754  1.0000
  H   H2253     1.0  0.42755  0.84122  0.99202  1.0000
  H   H2254     1.0  0.33662  0.93887  0.92927  1.0000
  H   H2255     1.0  0.38361  0.83882  0.98702  1.0000
  H   H2256     1.0  0.66008  0.88962  0.58622  1.0000
  H   H2257     1.0  0.38476  0.81441  0.99205  1.0000
  C   C1319     1.0  0.63771  0.86118  0.50325  1.0000
  H   H2258     1.0  0.58531  0.75271  0.73773  1.0000
  H   H2259     1.0  0.66455  0.92312  0.59568  1.0000
  C   C1320     1.0  0.33832  0.91063  0.96174  1.0000
  H   H2260     1.0  0.34003  0.88810  0.98721  1.0000
  H   H2261     1.0  0.44426  0.98285  0.73283  1.0000
  C   C1321     1.0  0.44642  0.99692  0.76380  1.0000
  C   C1322     1.0  0.33814  0.90342  0.98570  1.0000
  H   H2262     1.0  0.43638  0.81364  0.00203  1.0000
  C   C1323     1.0  0.54022  0.75139  0.68677  1.0000
  C   C1324     1.0  0.40527  0.88364  0.00199  1.0000
  S   S375      1.0  0.90712  0.02697  0.03487  1.0000
  C   C1325     1.0  0.69717  0.07938  0.05196  1.0000
  Fe  Fe189     1.0  0.87792  0.03922  0.03297  1.0000
  S   S376      1.0  0.85508  0.03543  0.05934  1.0000
  C   C1326     1.0  0.99852  0.17697  0.27293  1.0000
  H   H2263     1.0  0.94022  0.21306  0.21215  1.0000
  H   H2264     1.0  0.88220  0.02080  0.18418  1.0000
  S   S377      1.0  0.96191  0.14676  0.46852  1.0000
  Fe  Fe190     1.0  0.93035  0.17370  0.34514  1.0000
  S   S378      1.0  0.90218  0.18425  0.33392  1.0000
  S   S379      1.0  0.93073  0.15124  0.37237  1.0000
  Fe  Fe191     1.0  0.95072  0.19505  0.30840  1.0000
  S   S380      1.0  0.92376  0.20680  0.29499  1.0000
  S   S381      1.0  0.97776  0.20579  0.29285  1.0000
  Fe  Fe192     1.0  0.91514  0.21235  0.32987  1.0000
  Fe  Fe193     1.0  0.91574  0.05410  0.01927  1.0000
  Fe  Fe194     1.0  0.91296  0.17786  0.29999  1.0000
  S   S382      1.0  0.90000  0.16362  0.27110  1.0000
  S   S383      1.0  0.94256  0.20196  0.34324  1.0000
  S   S384      1.0  0.94064  0.16599  0.31138  1.0000
  Fe  Fe195     1.0  0.82049  0.09549  0.22162  1.0000
  S   S385      1.0  0.83724  0.07243  0.20568  1.0000
  S   S386      1.0  0.83227  0.11212  0.24941  1.0000
  Fe  Fe196     1.0  0.78445  0.08417  0.19889  1.0000
  S   S387      1.0  0.79957  0.06016  0.18198  1.0000
  S   S388      1.0  0.75272  0.09097  0.20002  1.0000
  Fe  Fe197     1.0  0.81350  0.05400  0.21402  1.0000
  S   S389      1.0  0.82357  0.02493  0.22623  1.0000
  Fe  Fe198     1.0  0.82220  0.08027  0.17498  1.0000
  S   S390      1.0  0.84039  0.08389  0.14393  1.0000
  S   S391      1.0  0.79717  0.07654  0.23143  1.0000
  S   S392      1.0  0.80657  0.10478  0.19037  1.0000
  S   S393      1.0  0.68428  0.10214  0.13533  1.0000
  C   C1327     1.0  0.73401  0.09409  0.18155  1.0000
  C   C1328     1.0  0.73609  0.09055  0.15932  1.0000
  C   C1329     1.0  0.72075  0.09306  0.14556  1.0000
  C   C1330     1.0  0.70311  0.09927  0.15368  1.0000
  C   C1331     1.0  0.70105  0.10288  0.17589  1.0000
  C   C1332     1.0  0.71632  0.10019  0.18968  1.0000
  H   H2265     1.0  0.74952  0.08586  0.15274  1.0000
  H   H2266     1.0  0.72265  0.09025  0.12845  1.0000
  H   H2267     1.0  0.68781  0.10805  0.18242  1.0000
  H   H2268     1.0  0.71452  0.10314  0.20678  1.0000
  C   C1333     1.0  0.71333  0.08504  0.03642  1.0000
  C   C1334     1.0  0.94817  0.15580  0.24991  1.0000
  H   H2269     1.0  0.99636  0.14891  0.44207  1.0000
  S   S394      1.0  0.93962  0.06745  0.03497  1.0000
  C   C1335     1.0  0.88130  0.14885  0.26574  1.0000
  C   C1336     1.0  0.86794  0.14373  0.28164  1.0000
  C   C1337     1.0  0.85320  0.13252  0.27631  1.0000
  C   C1338     1.0  0.85152  0.12606  0.25507  1.0000
  C   C1339     1.0  0.86506  0.13090  0.23926  1.0000
  C   C1340     1.0  0.87972  0.14223  0.24455  1.0000
  H   H2270     1.0  0.86878  0.14867  0.29797  1.0000
  H   H2271     1.0  0.84285  0.12905  0.28874  1.0000
  H   H2272     1.0  0.86408  0.12617  0.22285  1.0000
  H   H2273     1.0  0.88985  0.14601  0.23202  1.0000
  C   C1341     1.0  0.95304  0.14782  0.44188  1.0000
  C   C1342     1.0  0.94236  0.13385  0.43432  1.0000
  C   C1343     1.0  0.93584  0.13508  0.41294  1.0000
  C   C1344     1.0  0.93991  0.15026  0.39886  1.0000
  C   C1345     1.0  0.95081  0.16412  0.40631  1.0000
  C   C1346     1.0  0.95727  0.16293  0.42775  1.0000
  H   H2274     1.0  0.93901  0.12214  0.44499  1.0000
  H   H2275     1.0  0.92744  0.12427  0.40732  1.0000
  H   H2276     1.0  0.95428  0.17571  0.39556  1.0000
  H   H2277     1.0  0.96565  0.17375  0.43340  1.0000
  C   C1347     1.0  0.84410  0.07020  0.12053  1.0000
  C   C1348     1.0  0.83233  0.05615  0.11560  1.0000
  C   C1349     1.0  0.83611  0.04540  0.09707  1.0000
  C   C1350     1.0  0.85147  0.04880  0.08300  1.0000
  C   C1351     1.0  0.86310  0.06300  0.08777  1.0000
  C   C1352     1.0  0.85942  0.07360  0.10642  1.0000
  H   H2278     1.0  0.82020  0.05373  0.12594  1.0000
  H   H2279     1.0  0.82688  0.03461  0.09339  1.0000
  H   H2280     1.0  0.87494  0.06584  0.07709  1.0000
  H   H2281     1.0  0.86856  0.08452  0.10998  1.0000
  H   H2282     1.0  0.87264  0.03914  0.25711  1.0000
  H   H2283     1.0  0.88695  0.00154  0.13063  1.0000
  H   H2284     1.0  0.82278  0.08070  0.07388  1.0000
  H   H2285     1.0  0.84621  0.02628  0.27097  1.0000
  H   H2286     1.0  0.87118  0.07365  0.31579  1.0000
  C   C1353     1.0  0.86162  0.06685  0.26626  1.0000
  H   H2287     1.0  0.85745  0.10540  0.01928  1.0000
  C   C1354     1.0  0.67334  0.05851  0.20569  1.0000
  C   C1355     1.0  0.79988  0.01518  0.26124  1.0000
  C   C1356     1.0  0.94820  0.17725  0.24952  1.0000
  H   H2288     1.0  0.79239  0.02830  0.25822  1.0000
  C   C1357     1.0  0.89322  0.23264  0.43396  1.0000
  H   H2289     1.0  0.88085  0.05520  0.18858  1.0000
  C   C1358     1.0  0.90369  0.01548  0.43757  1.0000
  H   H2290     1.0  0.89455  0.00254  0.40868  1.0000
  H   H2291     1.0  0.88488  0.20954  0.37131  1.0000
  H   H2292     1.0  0.88018  0.20649  0.43063  1.0000
  H   H2293     1.0  0.96250  0.22515  0.23672  1.0000
  H   H2294     1.0  0.68778  0.04994  0.23497  1.0000
  H   H2295     1.0  0.82563  0.07428  0.26259  1.0000
  H   H2296     1.0  0.84512  0.04682  0.31383  1.0000
  C   C1359     1.0  0.98286  0.17247  0.21676  1.0000
  C   C1360     1.0  0.93207  0.22014  0.40398  1.0000
  C   C1361     1.0  0.89238  0.17441  0.40529  1.0000
  H   H2297     1.0  0.89324  0.02518  0.12446  1.0000
  C   C1362     1.0  0.84521  0.07967  0.29809  1.0000
  C   C1363     1.0  0.86328  0.08554  0.30812  1.0000
  H   H2298     1.0  0.93958  0.23210  0.24599  1.0000
  C   C1364     1.0  0.89379  0.21243  0.42603  1.0000
  C   C1365     1.0  0.84800  0.10637  0.00534  1.0000
  H   H2299     1.0  0.87998  0.24312  0.38478  1.0000
  C   C1366     1.0  0.90592  0.18993  0.39941  1.0000
  H   H2300     1.0  0.90863  0.23714  0.39351  1.0000
  N   N98       1.0  0.96974  0.00607  0.01521  1.0000
  H   H2301     1.0  0.94784  0.02818  0.04586  1.0000
  H   H2302     1.0  0.95914  0.18117  0.26061  1.0000
  H   H2303     1.0  0.93990  0.20737  0.39872  1.0000
  N   N99       1.0  0.82667  0.07912  0.01683  1.0000
  H   H2304     1.0  0.72279  0.09430  0.04426  1.0000
  S   S395      1.0  0.95851  0.09261  0.48688  1.0000
  S   S396      1.0  0.88670  0.06694  0.01966  1.0000
  H   H2305     1.0  0.91590  0.16537  0.20041  1.0000
  H   H2306     1.0  0.91106  0.18782  0.38233  1.0000
  H   H2307     1.0  0.97858  0.03892  0.03446  1.0000
  C   C1367     1.0  0.97475  0.08054  0.03309  1.0000
  C   C1368     1.0  0.94182  0.17709  0.20953  1.0000
  C   C1369     1.0  0.67320  0.05190  0.22974  1.0000
  C   C1370     1.0  0.94931  0.21987  0.24376  1.0000
  C   C1371     1.0  0.87477  0.04905  0.17426  1.0000
  H   H2308     1.0  0.66752  0.09969  0.00449  1.0000
  C   C1372     1.0  0.66838  0.05753  0.15732  1.0000
  C   C1373     1.0  0.99137  0.08604  0.02263  1.0000
  C   C1374     1.0  0.91311  0.22227  0.39309  1.0000
  C   C1375     1.0  0.81152  0.05981  0.28893  1.0000
  C   C1376     1.0  0.82423  0.01816  0.15170  1.0000
  C   C1377     1.0  0.84718  0.02691  0.28880  1.0000
  H   H2309     1.0  0.67467  0.07893  0.01806  1.0000
  H   H2310     1.0  0.88543  0.04936  0.16084  1.0000
  H   H2311     1.0  0.82836  0.05006  0.26195  1.0000
  H   H2312     1.0  0.87560  0.05706  0.23679  1.0000
  H   H2313     1.0  0.70093  0.10208  0.08354  1.0000
  C   C1378     1.0  0.98982  0.11132  0.44183  1.0000
  N   N100      1.0  0.84691  0.06303  0.28368  1.0000
  C   C1379     1.0  0.66810  0.08728  0.07281  1.0000
  C   C1380     1.0  0.97059  0.18994  0.22174  1.0000
  H   H2314     1.0  0.86412  0.23379  0.40557  1.0000
  H   H2315     1.0  0.81381  0.04879  0.30167  1.0000
  H   H2316     1.0  0.80761  0.07321  0.29660  1.0000
  H   H2317     1.0  0.79939  0.05611  0.27958  1.0000
  C   C1381     1.0  0.92045  0.17634  0.21104  1.0000
  N   N101      1.0  0.68312  0.09474  0.05764  1.0000
  H   H2318     1.0  0.90418  0.20455  0.43620  1.0000
  H   H2319     1.0  0.98479  0.16347  0.23149  1.0000
  H   H2320     1.0  0.96599  0.09732  0.43050  1.0000
  H   H2321     1.0  0.81066  0.02600  0.15330  1.0000
  H   H2322     1.0  0.93520  0.15086  0.24337  1.0000
  H   H2323     1.0  0.68108  0.04737  0.19659  1.0000
  H   H2324     1.0  0.97748  0.19667  0.23516  1.0000
  H   H2325     1.0  0.89077  0.24364  0.42132  1.0000
  C   C1382     1.0  0.80229  0.10677  0.01524  1.0000
  H   H2326     1.0  0.91276  0.00673  0.44824  1.0000
  H   H2327     1.0  0.78194  0.00696  0.28839  1.0000
  H   H2328     1.0  0.94745  0.16254  0.20857  1.0000
  C   C1383     1.0  0.83167  0.08298  0.03984  1.0000
  H   H2329     1.0  0.91375  0.18970  0.20527  1.0000
  C   C1384     1.0  0.88895  0.00513  0.42546  1.0000
  C   C1385     1.0  0.85216  0.04596  0.29745  1.0000
  N   N102      1.0  0.89841  0.20966  0.40218  1.0000
  Fe  Fe199     1.0  0.95957  0.12296  0.49391  1.0000
  H   H2330     1.0  0.98859  0.16761  0.28019  1.0000
  H   H2331     1.0  0.99369  0.11618  0.39672  1.0000
  H   H2332     1.0  0.91578  0.21983  0.37546  1.0000
  H   H2333     1.0  0.85328  0.04797  0.24098  1.0000
  H   H2334     1.0  0.82194  0.00388  0.15812  1.0000
  H   H2335     1.0  0.86481  0.03790  0.13562  1.0000
  H   H2336     1.0  0.86266  0.05810  0.16965  1.0000
  H   H2337     1.0  0.67087  0.05680  0.07157  1.0000
  H   H2338     1.0  0.70372  0.11578  0.05907  1.0000
  H   H2339     1.0  0.83825  0.04279  0.15902  1.0000
  H   H2340     1.0  0.81732  0.05144  0.02549  1.0000
  H   H2341     1.0  0.95684  0.03401  0.01214  1.0000
  C   C1386     1.0  0.86574  0.05169  0.24951  1.0000
  H   H2342     1.0  0.86733  0.04534  0.30038  1.0000
  H   H2343     1.0  0.98750  0.08962  0.41744  1.0000
  C   C1387     1.0  0.98098  0.09407  0.43310  1.0000
  C   C1388     1.0  0.94073  0.20618  0.22865  1.0000
  H   H2344     1.0  0.66775  0.06387  0.14062  1.0000
  H   H2345     1.0  0.79665  0.07764  0.02053  1.0000
  C   C1389     1.0  0.81531  0.01019  0.24797  1.0000
  H   H2346     1.0  0.87522  0.06892  0.27353  1.0000
  H   H2347     1.0  0.93079  0.22000  0.42198  1.0000
  H   H2348     1.0  0.88517  0.17627  0.42130  1.0000
  H   H2349     1.0  0.83530  0.07721  0.31204  1.0000
  H   H2350     1.0  0.89704  0.02695  0.44711  1.0000
  C   C1390     1.0  0.82782  0.05826  0.01468  1.0000
  H   H2351     1.0  0.67106  0.11943  0.09221  1.0000
  H   H2352     1.0  0.87219  0.09285  0.29583  1.0000
  H   H2353     1.0  0.85986  0.23201  0.37735  1.0000
  H   H2354     1.0  0.68987  0.13429  0.08796  1.0000
  H   H2355     1.0  0.84155  0.05241  0.01998  1.0000
  H   H2356     1.0  0.98181  0.08227  0.44517  1.0000
  H   H2357     1.0  0.80381  0.08328  0.05606  1.0000
  H   H2358     1.0  0.86134  0.02980  0.19619  1.0000
  H   H2359     1.0  0.87069  0.20236  0.39395  1.0000
  H   H2360     1.0  0.91521  0.17313  0.22782  1.0000
  H   H2361     1.0  0.94549  0.18370  0.19339  1.0000
  H   H2362     1.0  0.81692  0.06125  0.05888  1.0000
  H   H2363     1.0  0.83933  0.09210  0.28902  1.0000
  H   H2364     1.0  0.97190  0.19959  0.20726  1.0000
  H   H2365     1.0  0.96783  0.01879  0.06056  1.0000
  H   H2366     1.0  0.85796  0.08004  0.25703  1.0000
  H   H2367     1.0  0.97779  0.16453  0.20323  1.0000
  C   C1391     1.0  0.86926  0.02907  0.18031  1.0000
  H   H2368     1.0  0.85973  0.09570  0.32098  1.0000
  C   C1392     1.0  0.88134  0.21237  0.38872  1.0000
  H   H2369     1.0  0.70331  0.07314  0.06709  1.0000
  H   H2370     1.0  0.95176  0.21351  0.26007  1.0000
  C   C1393     1.0  0.83862  0.02799  0.16475  1.0000
  H   H2371     1.0  0.68046  0.23514  0.20908  1.0000
  H   H2372     1.0  0.83313  0.02840  0.18181  1.0000
  H   H2373     1.0  0.97327  0.08090  0.05065  1.0000
  H   H2374     1.0  0.85793  0.01603  0.12885  1.0000
  C   C1394     1.0  0.95492  0.01542  0.05256  1.0000
  H   H2375     1.0  0.68332  0.05601  0.16110  1.0000
  H   H2376     1.0  0.94058  0.23204  0.39864  1.0000
  C   C1395     1.0  0.80725  0.08604  0.01166  1.0000
  C   C1396     1.0  0.82847  0.06171  0.27315  1.0000
  C   C1397     1.0  0.87100  0.23152  0.38943  1.0000
  H   H2377     1.0  0.90032  0.16085  0.40624  1.0000
  N   N103      1.0  0.85822  0.01977  0.16367  1.0000
  H   H2378     1.0  0.69073  0.06765  0.04438  1.0000
  H   H2379     1.0  0.91814  0.18689  0.40971  1.0000
  C   C1398     1.0  0.69318  0.10892  0.06980  1.0000
  C   C1399     1.0  0.67487  0.10443  0.03782  1.0000
  N   N104      1.0  0.95038  0.18714  0.22754  1.0000
  C   C1400     1.0  0.88643  0.01588  0.13679  1.0000
  C   C1401     1.0  0.93885  0.02438  0.49904  1.0000
  H   H2380     1.0  0.92600  0.20512  0.23447  1.0000
  C   C1402     1.0  0.96006  0.07460  0.02102  1.0000
  H   H2381     1.0  0.93494  0.18175  0.25798  1.0000
  H   H2382     1.0  0.94858  0.15053  0.26707  1.0000
  H   H2383     1.0  0.96018  0.14921  0.24114  1.0000
  H   H2384     1.0  0.98480  0.11269  0.45905  1.0000
  C   C1403     1.0  0.81781  0.07656  0.05790  1.0000
  C   C1404     1.0  0.86613  0.02299  0.14092  1.0000
  H   H2385     1.0  0.89496  0.01594  0.15139  1.0000
  C   C1405     1.0  0.99105  0.03202  0.02694  1.0000
  H   H2386     1.0  0.90611  0.23533  0.44249  1.0000
  S   S397      1.0  0.89805  0.23882  0.34016  1.0000
  H   H2387     1.0  0.72179  0.07236  0.03202  1.0000
  H   H2388     1.0  0.83324  0.09796  0.04233  1.0000
  H   H2389     1.0  0.88217  0.17316  0.39238  1.0000
  H   H2390     1.0  0.85804  0.01626  0.29358  1.0000
  H   H2391     1.0  0.70835  0.09165  0.02101  1.0000
  C   C1406     1.0  0.79395  0.00300  0.27831  1.0000
  H   H2392     1.0  0.86773  0.01672  0.46142  1.0000
  H   H2393     1.0  0.84557  0.07638  0.04349  1.0000
  C   C1407     1.0  0.68091  0.12481  0.07963  1.0000
  H   H2394     1.0  0.68215  0.07081  0.20391  1.0000
  H   H2395     1.0  0.82789  0.01786  0.13409  1.0000
  H   H2396     1.0  0.83689  0.11713  0.00821  1.0000
  H   H2397     1.0  0.83409  0.02210  0.29671  1.0000
  H   H2398     1.0  0.95267  0.01915  0.49438  1.0000
  H   H2399     1.0  0.68488  0.11371  0.02928  1.0000
  H   H2400     1.0  0.99866  0.00950  0.00632  1.0000
  H   H2401     1.0  0.78715  0.10859  0.01895  1.0000
  H   H2402     1.0  0.99596  0.04059  0.01271  1.0000
  H   H2403     1.0  0.66769  0.24146  0.18542  1.0000
  H   H2404     1.0  0.87702  0.01537  0.42352  1.0000
  H   H2405     1.0  0.80895  0.11237  0.02938  1.0000
  H   H2406     1.0  0.91303  0.02234  0.42535  1.0000
  H   H2407     1.0  0.94547  0.00984  0.06559  1.0000
  H   H2408     1.0  0.99697  0.17685  0.21164  1.0000
  H   H2409     1.0  0.68031  0.24235  0.24441  1.0000
  H   H2410     1.0  0.98350  0.12361  0.43314  1.0000
  C   C1408     1.0  0.99648  0.19600  0.27671  1.0000
  C   C1409     1.0  0.98896  0.01161  0.02061  1.0000
  H   H2411     1.0  0.67328  0.13323  0.06714  1.0000
  H   H2412     1.0  0.88178  0.23439  0.44638  1.0000
  H   H2413     1.0  0.67308  0.08570  0.08980  1.0000
  C   C1410     1.0  0.66728  0.24191  0.20348  1.0000
  H   H2414     1.0  0.67456  0.25063  0.28008  1.0000
  H   H2415     1.0  0.86787  0.00421  0.48707  1.0000
  H   H2416     1.0  0.99462  0.00243  0.03398  1.0000
  C   C1411     1.0  0.92414  0.01229  0.50026  1.0000
  C   C1412     1.0  0.95890  0.02116  0.00287  1.0000
  C   C1413     1.0  0.86611  0.00284  0.46934  1.0000
  H   H2417     1.0  0.94386  0.14621  0.81249  1.0000
  H   H2418     1.0  0.89881  0.17350  0.83228  1.0000
  S   S398      1.0  0.87093  0.07290  0.95920  1.0000
  C   C1414     1.0  0.79038  0.00561  0.75101  1.0000
  C   C1415     1.0  0.90308  0.19600  0.79070  1.0000
  H   H2419     1.0  0.92327  0.02840  0.61025  1.0000
  S   S399      1.0  0.91439  0.04463  0.98502  1.0000
  H   H2420     1.0  0.91790  0.16651  0.76399  1.0000
  Fe  Fe200     1.0  0.92468  0.21907  0.70505  1.0000
  S   S400      1.0  0.94952  0.20318  0.69018  1.0000
  H   H2421     1.0  0.95959  0.18547  0.80573  1.0000
  Fe  Fe201     1.0  0.90772  0.18262  0.72506  1.0000
  S   S401      1.0  0.93127  0.16490  0.71127  1.0000
  S   S402      1.0  0.88174  0.17168  0.74361  1.0000
  Fe  Fe202     1.0  0.95016  0.18680  0.72228  1.0000
  S   S403      1.0  0.97429  0.17516  0.74287  1.0000
  Fe  Fe203     1.0  0.92878  0.18253  0.68048  1.0000
  S   S404      1.0  0.92254  0.17053  0.64761  1.0000
  S   S405      1.0  0.92654  0.20369  0.73769  1.0000
  S   S406      1.0  0.90401  0.19942  0.69376  1.0000
  Fe  Fe204     1.0  0.80125  0.05392  0.80388  1.0000
  S   S407      1.0  0.79879  0.08479  0.79630  1.0000
  S   S408      1.0  0.79005  0.03584  0.77754  1.0000
  Fe  Fe205     1.0  0.81635  0.06069  0.84928  1.0000
  S   S409      1.0  0.81426  0.09179  0.84463  1.0000
  S   S410      1.0  0.82809  0.04408  0.87847  1.0000
  Fe  Fe206     1.0  0.78623  0.08704  0.83046  1.0000
  S   S411      1.0  0.75940  0.10540  0.83498  1.0000
  Fe  Fe207     1.0  0.82682  0.08705  0.81088  1.0000
  S   S412      1.0  0.85429  0.09920  0.79734  1.0000
  S   S413      1.0  0.78766  0.05623  0.83734  1.0000
  S   S414      1.0  0.82997  0.05588  0.81626  1.0000
  Fe  Fe208     1.0  0.96328  0.11535  0.54338  1.0000
  C   C1416     1.0  0.91815  0.05008  0.51020  1.0000
  S   S415      1.0  0.97150  0.12582  0.57629  1.0000
  H   H2422     1.0  0.85320  0.07782  0.99946  1.0000
  H   H2423     1.0  0.73610  0.03112  0.80979  1.0000
  C   C1417     1.0  0.90002  0.07696  0.81890  1.0000
  S   S416      1.0  0.96243  0.08443  0.53976  1.0000
  H   H2424     1.0  0.97090  0.16510  0.81723  1.0000
  S   S417      1.0  0.67922  0.09233  0.88090  1.0000
  C   C1418     1.0  0.73742  0.10175  0.84861  1.0000
  C   C1419     1.0  0.72285  0.11530  0.84617  1.0000
  C   C1420     1.0  0.70506  0.11283  0.85601  1.0000
  C   C1421     1.0  0.70153  0.09671  0.86852  1.0000
  C   C1422     1.0  0.71613  0.08319  0.87102  1.0000
  C   C1423     1.0  0.73391  0.08565  0.86119  1.0000
  H   H2425     1.0  0.72531  0.12784  0.83654  1.0000
  H   H2426     1.0  0.69408  0.12340  0.85387  1.0000
  H   H2427     1.0  0.71366  0.07067  0.88068  1.0000
  H   H2428     1.0  0.74490  0.07510  0.86340  1.0000
  H   H2429     1.0  0.88950  0.04342  0.51553  1.0000
  S   S418      1.0  0.98418  0.11860  0.51552  1.0000
  C   C1424     1.0  0.96035  0.17009  0.80538  1.0000
  C   C1425     1.0  0.93032  0.16395  0.77405  1.0000
  C   C1426     1.0  0.93651  0.15800  0.62818  1.0000
  C   C1427     1.0  0.95531  0.15333  0.63118  1.0000
  C   C1428     1.0  0.96576  0.14345  0.61515  1.0000
  C   C1429     1.0  0.95759  0.13813  0.59597  1.0000
  C   C1430     1.0  0.93876  0.14266  0.59307  1.0000
  C   C1431     1.0  0.92831  0.15252  0.60910  1.0000
  H   H2430     1.0  0.96182  0.15747  0.64573  1.0000
  H   H2431     1.0  0.98031  0.14005  0.61756  1.0000
  H   H2432     1.0  0.93228  0.13869  0.57843  1.0000
  H   H2433     1.0  0.91380  0.15607  0.60658  1.0000
  C   C1432     1.0  0.86130  0.11926  0.78172  1.0000
  C   C1433     1.0  0.84939  0.13483  0.77789  1.0000
  C   C1434     1.0  0.85592  0.15063  0.76625  1.0000
  C   C1435     1.0  0.87436  0.15112  0.75800  1.0000
  C   C1436     1.0  0.88618  0.13542  0.76148  1.0000
  C   C1437     1.0  0.87974  0.11973  0.77340  1.0000
  H   H2434     1.0  0.83520  0.13481  0.78417  1.0000
  H   H2435     1.0  0.84657  0.16262  0.76367  1.0000
  H   H2436     1.0  0.90029  0.13536  0.75506  1.0000
  H   H2437     1.0  0.88909  0.10776  0.77606  1.0000
  C   C1438     1.0  0.85840  0.06452  0.93745  1.0000
  C   C1439     1.0  0.85875  0.04566  0.93279  1.0000
  C   C1440     1.0  0.84923  0.03966  0.91483  1.0000
  C   C1441     1.0  0.83922  0.05240  0.90134  1.0000
  C   C1442     1.0  0.83858  0.07124  0.90624  1.0000
  C   C1443     1.0  0.84818  0.07726  0.92416  1.0000
  H   H2438     1.0  0.86654  0.03569  0.94285  1.0000
  H   H2439     1.0  0.84973  0.02505  0.91126  1.0000
  H   H2440     1.0  0.83065  0.08114  0.89627  1.0000
  H   H2441     1.0  0.84771  0.09187  0.92771  1.0000
  C   C1444     1.0  0.99376  0.18585  0.75342  1.0000
  H   H2442     1.0  0.94057  0.17397  0.76762  1.0000
  Fe  Fe209     1.0  0.98149  0.08829  0.51056  1.0000
  H   H2443     1.0  0.95226  0.02071  0.56847  1.0000
  H   H2444     1.0  0.78145  0.01438  0.74084  1.0000
  Fe  Fe210     1.0  0.93960  0.09100  0.51656  1.0000
  C   C1445     1.0  0.82519  0.05107  0.99162  1.0000
  H   H2445     1.0  0.85944  0.11892  0.86618  1.0000
  H   H2446     1.0  0.99256  0.15855  0.93502  1.0000
  C   C1446     1.0  0.92150  0.18810  0.80006  1.0000
  H   H2447     1.0  0.93528  0.13331  0.78137  1.0000
  H   H2448     1.0  0.90168  0.19246  0.77351  1.0000
  C   C1447     1.0  0.96724  0.02685  0.98032  1.0000
  H   H2449     1.0  0.92151  0.19194  0.81744  1.0000
  H   H2450     1.0  0.72478  0.03215  0.76825  1.0000
  H   H2451     1.0  0.95380  0.14448  0.76613  1.0000
  H   H2452     1.0  0.93851  0.16547  0.82898  1.0000
  H   H2453     1.0  0.82691  0.03567  0.99225  1.0000
  H   H2454     1.0  0.90960  0.01027  0.62289  1.0000
  N   N105      1.0  0.88446  0.07654  0.85741  1.0000
  C   C1448     1.0  0.87853  0.09686  0.85469  1.0000
  C   C1449     1.0  0.90195  0.07339  0.84364  1.0000
  C   C1450     1.0  0.88821  0.07257  0.88122  1.0000
  C   C1451     1.0  0.86884  0.06528  0.85017  1.0000
  C   C1452     1.0  0.86240  0.10390  0.86987  1.0000
  H   H2455     1.0  0.99833  0.14786  0.96040  1.0000
  C   C1453     1.0  0.90133  0.05576  0.88704  1.0000
  C   C1454     1.0  0.87231  0.04402  0.84981  1.0000
  H   H2456     1.0  0.89042  0.10580  0.85721  1.0000
  H   H2457     1.0  0.87395  0.10020  0.83786  1.0000
  H   H2458     1.0  0.90788  0.05901  0.84567  1.0000
  H   H2459     1.0  0.91299  0.08234  0.84908  1.0000
  H   H2460     1.0  0.89447  0.08469  0.88850  1.0000
  H   H2461     1.0  0.87501  0.07051  0.89063  1.0000
  H   H2462     1.0  0.85637  0.06751  0.86097  1.0000
  H   H2463     1.0  0.86382  0.07025  0.83399  1.0000
  H   H2464     1.0  0.86576  0.10252  0.88733  1.0000
  H   H2465     1.0  0.86895  0.03748  0.86600  1.0000
  H   H2466     1.0  0.84942  0.09687  0.86711  1.0000
  H   H2467     1.0  0.83505  0.08818  0.98398  1.0000
  H   H2468     1.0  0.99896  0.06117  0.55328  1.0000
  H   H2469     1.0  0.90106  0.05361  0.90505  1.0000
  H   H2470     1.0  0.91591  0.05837  0.88194  1.0000
  H   H2471     1.0  0.89716  0.04266  0.88025  1.0000
  H   H2472     1.0  0.91198  0.03529  0.57452  1.0000
  H   H2473     1.0  0.88649  0.03955  0.84434  1.0000
  H   H2474     1.0  0.98965  0.12618  0.91997  1.0000
  H   H2475     1.0  0.88955  0.06817  0.81208  1.0000
  C   C1455     1.0  0.94111  0.03164  0.56716  1.0000
  H   H2476     1.0  0.74245  0.03590  0.74795  1.0000
  H   H2477     1.0  0.86317  0.03828  0.83779  1.0000
  H   H2478     1.0  0.94431  0.03991  0.55200  1.0000
  S   S419      1.0  0.93876  0.12191  0.52222  1.0000
  H   H2479     1.0  0.89257  0.01537  0.59275  1.0000
  C   C1456     1.0  0.97870  0.07973  0.98787  1.0000
  H   H2480     1.0  0.93313  0.13991  0.75336  1.0000
  H   H2481     1.0  0.93264  0.19624  0.79185  1.0000
  H   H2482     1.0  0.88638  0.01930  0.55173  1.0000
  C   C1457     1.0  0.73835  0.03847  0.76521  1.0000
  H   H2483     1.0  0.95075  0.06997  0.98890  1.0000
  C   C1458     1.0  0.90177  0.15879  0.82820  1.0000
  H   H2484     1.0  0.85649  0.11112  0.99096  1.0000
  C   C1459     1.0  0.99756  0.20443  0.74867  1.0000
  H   H2485     1.0  0.93377  0.01086  0.62778  1.0000
  C   C1460     1.0  0.94160  0.16159  0.81183  1.0000
  H   H2486     1.0  0.99499  0.11652  0.94690  1.0000
  H   H2487     1.0  0.91164  0.15219  0.83989  1.0000
  H   H2488     1.0  0.81401  0.00644  0.79781  1.0000
  C   C1461     1.0  0.96207  0.07426  0.99834  1.0000
  H   H2489     1.0  0.88853  0.15158  0.83054  1.0000
  H   H2490     1.0  0.98210  0.02995  0.98096  1.0000
  H   H2491     1.0  0.95967  0.03959  0.97411  1.0000
  C   C1462     1.0  0.92325  0.01346  0.61512  1.0000
  C   C1463     1.0  0.93854  0.14425  0.76901  1.0000
  N   N106      1.0  0.73197  0.06622  0.79085  1.0000
  C   C1464     1.0  0.73043  0.08723  0.78955  1.0000
  C   C1465     1.0  0.71287  0.05981  0.79733  1.0000
  C   C1466     1.0  0.73757  0.05960  0.76845  1.0000
  C   C1467     1.0  0.74650  0.06026  0.80706  1.0000
  C   C1468     1.0  0.74756  0.09711  0.78010  1.0000
  C   C1469     1.0  0.70540  0.06559  0.82005  1.0000
  H   H2492     1.0  0.89713  0.16011  0.79363  1.0000
  C   C1470     1.0  0.74630  0.04006  0.81653  1.0000
  H   H2493     1.0  0.71846  0.09227  0.77962  1.0000
  H   H2494     1.0  0.72765  0.09298  0.80595  1.0000
  H   H2495     1.0  0.71201  0.04457  0.79703  1.0000
  H   H2496     1.0  0.70258  0.06517  0.78526  1.0000
  H   H2497     1.0  0.72807  0.06606  0.75613  1.0000
  H   H2498     1.0  0.75177  0.06402  0.76364  1.0000
  H   H2499     1.0  0.76066  0.06226  0.79982  1.0000
  H   H2500     1.0  0.74555  0.06947  0.82124  1.0000
  H   H2501     1.0  0.74562  0.11226  0.78283  1.0000
  H   H2502     1.0  0.76035  0.09234  0.78837  1.0000
  H   H2503     1.0  0.74940  0.09545  0.76228  1.0000
  H   H2504     1.0  0.70246  0.08080  0.82085  1.0000
  H   H2505     1.0  0.69200  0.05898  0.82380  1.0000
  H   H2506     1.0  0.71496  0.06095  0.83306  1.0000
  H   H2507     1.0  0.99336  0.09900  0.60039  1.0000
  H   H2508     1.0  0.97479  0.13113  0.94303  1.0000
  N   N107      1.0  0.92559  0.16751  0.79766  1.0000
  H   H2509     1.0  0.76016  0.03300  0.81368  1.0000
  H   H2510     1.0  0.94201  0.04149  0.58055  1.0000
  H   H2511     1.0  0.74391  0.04016  0.83449  1.0000
  N   N108      1.0  0.87379  0.13941  0.68766  1.0000
  C   C1471     1.0  0.85699  0.14024  0.70305  1.0000
  C   C1472     1.0  0.87807  0.15921  0.68145  1.0000
  C   C1473     1.0  0.88983  0.13057  0.69997  1.0000
  C   C1474     1.0  0.86947  0.12811  0.66836  1.0000
  C   C1475     1.0  0.85147  0.12170  0.71420  1.0000
  C   C1476     1.0  0.86245  0.17081  0.67018  1.0000
  C   C1477     1.0  0.90840  0.12778  0.68717  1.0000
  C   C1478     1.0  0.88101  0.13158  0.64696  1.0000
  H   H2512     1.0  0.85892  0.15012  0.71624  1.0000
  H   H2513     1.0  0.84448  0.14579  0.69445  1.0000
  H   H2514     1.0  0.89058  0.16012  0.67074  1.0000
  H   H2515     1.0  0.88155  0.16676  0.69616  1.0000
  H   H2516     1.0  0.89250  0.13886  0.71442  1.0000
  H   H2517     1.0  0.88662  0.11644  0.70636  1.0000
  H   H2518     1.0  0.87088  0.11299  0.67268  1.0000
  H   H2519     1.0  0.85469  0.13079  0.66403  1.0000
  H   H2520     1.0  0.85076  0.11042  0.70249  1.0000
  H   H2521     1.0  0.86099  0.11736  0.72744  1.0000
  H   H2522     1.0  0.83748  0.12366  0.72215  1.0000
  H   H2523     1.0  0.85123  0.17500  0.68205  1.0000
  H   H2524     1.0  0.86823  0.18385  0.66320  1.0000
  H   H2525     1.0  0.85655  0.16349  0.65666  1.0000
  H   H2526     1.0  0.91350  0.14085  0.67974  1.0000
  H   H2527     1.0  0.90756  0.11720  0.67460  1.0000
  H   H2528     1.0  0.91916  0.12244  0.69857  1.0000
  H   H2529     1.0  0.88387  0.11813  0.63890  1.0000
  H   H2530     1.0  0.89463  0.13764  0.64874  1.0000
  H   H2531     1.0  0.87287  0.14038  0.63520  1.0000
  H   H2532     1.0  0.91729  0.02583  0.54878  1.0000
  H   H2533     1.0  0.91349  0.07333  0.81048  1.0000
  S   S420      1.0  0.91436  0.07336  0.51787  1.0000
  H   H2534     1.0  0.89081  0.19127  0.80032  1.0000
  H   H2535     1.0  0.90268  0.21141  0.79119  1.0000
  H   H2536     1.0  0.74925  0.03121  0.77498  1.0000
  H   H2537     1.0  0.83580  0.05608  0.97962  1.0000
  C   C1479     1.0  0.92116  0.02475  0.56607  1.0000
  H   H2538     1.0  0.99641  0.09435  0.56312  1.0000
  C   C1480     1.0  0.79710  0.01275  0.77016  1.0000
  H   H2539     1.0  0.91178  0.14145  0.80246  1.0000
  C   C1481     1.0  0.98955  0.12892  0.93759  1.0000
  C   C1482     1.0  0.00010  0.14628  0.94250  1.0000
  Fe  Fe211     1.0  0.88447  0.05496  0.98631  1.0000
  C   C1483     1.0  0.90892  0.15657  0.80446  1.0000
  H   H2540     1.0  0.98015  0.07946  0.97032  1.0000
  H   H2541     1.0  0.96572  0.16576  0.78917  1.0000
  H   H2542     1.0  0.81110  0.05457  0.98565  1.0000
  H   H2543     1.0  0.89662  0.09177  0.81468  1.0000
  C   C1484     1.0  0.90329  0.03811  0.51089  1.0000
  H   H2544     1.0  0.99943  0.16093  0.89951  1.0000
  C   C1485     1.0  0.89719  0.00443  0.58117  1.0000
  Fe  Fe212     1.0  0.90386  0.01822  0.00061  1.0000
  H   H2545     1.0  0.80574  0.11531  0.00040  1.0000
  C   C1486     1.0  0.88383  0.00674  0.56209  1.0000
  C   C1487     1.0  0.99339  0.08568  0.99996  1.0000
  H   H2546     1.0  0.98847  0.21281  0.73826  1.0000
  C   C1488     1.0  0.90631  0.01919  0.50620  1.0000
  S   S421      1.0  0.87377  0.02797  0.99961  1.0000
  H   H2547     1.0  0.89492  0.00996  0.50729  1.0000
  C   C1489     1.0  0.84061  0.08721  0.00069  1.0000
  H   H2548     1.0  0.99525  0.06309  0.58187  1.0000
  H   H2549     1.0  0.86934  0.00812  0.56875  1.0000
  C   C1490     1.0  0.93593  0.04315  0.50419  1.0000
  H   H2550     1.0  0.96541  0.01602  0.96827  1.0000
  H   H2551     1.0  0.94747  0.05222  0.50361  1.0000
  H   H2552     1.0  0.80450  0.08389  0.99424  1.0000
  H   H2553     1.0  0.94456  0.01678  0.00031  1.0000
  N   N109      1.0  0.91765  0.00551  0.57534  1.0000
  S   S422      1.0  0.92026  0.25091  0.70680  1.0000
  H   H2554     1.0  0.94698  0.00158  0.54102  1.0000
  C   C1491     1.0  0.80876  0.00125  0.78302  1.0000
  Fe  Fe213     1.0  0.70209  0.40650  0.34958  1.0000
  S   S423      1.0  0.71419  0.38229  0.33052  1.0000
  H   H2555     1.0  0.88953  0.45439  0.36683  1.0000
  Fe  Fe214     1.0  0.71068  0.43435  0.31222  1.0000
  S   S424      1.0  0.72378  0.41206  0.29118  1.0000
  S   S425      1.0  0.70448  0.46531  0.30427  1.0000
  Fe  Fe215     1.0  0.69918  0.39492  0.30161  1.0000
  C   C1492     1.0  0.67941  0.25775  0.24536  1.0000
  Fe  Fe216     1.0  0.73783  0.40099  0.32177  1.0000
  S   S426      1.0  0.76758  0.38760  0.32255  1.0000
  S   S427      1.0  0.68551  0.41791  0.32138  1.0000
  S   S428      1.0  0.72631  0.42450  0.34209  1.0000
  Fe  Fe217     1.0  0.89862  0.34695  0.38899  1.0000
  S   S429      1.0  0.89240  0.37167  0.36604  1.0000
  S   S430      1.0  0.91300  0.31914  0.37797  1.0000
  Fe  Fe218     1.0  0.89095  0.37013  0.43087  1.0000
  S   S431      1.0  0.88455  0.39602  0.41025  1.0000
  S   S432      1.0  0.88713  0.36621  0.46879  1.0000
  Fe  Fe219     1.0  0.86793  0.37827  0.38906  1.0000
  S   S433      1.0  0.84004  0.39328  0.37993  1.0000
  Fe  Fe220     1.0  0.90919  0.38820  0.38805  1.0000
  S   S434      1.0  0.93035  0.41028  0.37644  1.0000
  S   S435      1.0  0.87309  0.35257  0.41065  1.0000
  S   S436      1.0  0.91671  0.36336  0.41014  1.0000
  H   H2556     1.0  0.90610  0.45456  0.33244  1.0000
  H   H2557     1.0  0.78501  0.40071  0.40941  1.0000
  S   S437      1.0  0.97509  0.45032  0.29581  1.0000
  C   C1493     1.0  0.96254  0.43965  0.31853  1.0000
  C   C1494     1.0  0.95105  0.42477  0.31482  1.0000
  C   C1495     1.0  0.94100  0.41579  0.33210  1.0000
  C   C1496     1.0  0.94219  0.42149  0.35358  1.0000
  C   C1497     1.0  0.95368  0.43632  0.35729  1.0000
  C   C1498     1.0  0.96371  0.44531  0.34002  1.0000
  H   H2558     1.0  0.94991  0.42018  0.29838  1.0000
  H   H2559     1.0  0.93237  0.40443  0.32875  1.0000
  H   H2560     1.0  0.95490  0.44091  0.37373  1.0000
  H   H2561     1.0  0.97241  0.45664  0.34338  1.0000
  C   C1499     1.0  0.96982  0.37131  0.38463  1.0000
  C   C1500     1.0  0.72458  0.48715  0.24619  1.0000
  H   H2562     1.0  0.76183  0.35186  0.36850  1.0000
  H   H2563     1.0  0.73808  0.34754  0.36437  1.0000
  H   H2564     1.0  0.93582  0.34228  0.34392  1.0000
  C   C1501     1.0  0.78773  0.38964  0.33841  1.0000
  C   C1502     1.0  0.80152  0.37512  0.33850  1.0000
  C   C1503     1.0  0.81759  0.37593  0.35097  1.0000
  C   C1504     1.0  0.82019  0.39137  0.36354  1.0000
  C   C1505     1.0  0.80651  0.40600  0.36325  1.0000
  C   C1506     1.0  0.79047  0.40519  0.35075  1.0000
  H   H2565     1.0  0.79971  0.36306  0.32891  1.0000
  H   H2566     1.0  0.82790  0.36456  0.35090  1.0000
  H   H2567     1.0  0.80833  0.41809  0.37278  1.0000
  H   H2568     1.0  0.78030  0.41669  0.35043  1.0000
  H   H2569     1.0  0.67239  0.31289  0.23392  1.0000
  H   H2570     1.0  0.77514  0.36007  0.40310  1.0000
  C   C1507     1.0  0.74758  0.35833  0.36904  1.0000
  H   H2571     1.0  0.98678  0.36347  0.34408  1.0000
  H   H2572     1.0  0.95698  0.37625  0.39374  1.0000
  C   C1508     1.0  0.96247  0.33478  0.40219  1.0000
  C   C1509     1.0  0.67587  0.29829  0.22948  1.0000
  C   C1510     1.0  0.90269  0.26113  0.35046  1.0000
  C   C1511     1.0  0.92053  0.26615  0.35554  1.0000
  C   C1512     1.0  0.92332  0.28384  0.36394  1.0000
  C   C1513     1.0  0.90839  0.29686  0.36751  1.0000
  C   C1514     1.0  0.89055  0.29178  0.36258  1.0000
  C   C1515     1.0  0.88776  0.27411  0.35414  1.0000
  C   C1516     1.0  0.99202  0.43066  0.21990  1.0000
  H   H2573     1.0  0.93721  0.28748  0.36766  1.0000
  H   H2574     1.0  0.87887  0.30150  0.36516  1.0000
  H   H2575     1.0  0.87388  0.27049  0.35035  1.0000
  C   C1517     1.0  0.72154  0.47484  0.26420  1.0000
  C   C1518     1.0  0.71055  0.48066  0.28211  1.0000
  H   H2576     1.0  0.97799  0.34103  0.34231  1.0000
  H   H2577     1.0  0.99828  0.43194  0.26369  1.0000
  H   H2578     1.0  0.72749  0.46079  0.26412  1.0000
  C   C1519     1.0  0.67490  0.43304  0.39683  1.0000
  H   H2579     1.0  0.73286  0.39959  0.38349  1.0000
  N   N110      1.0  0.86983  0.43142  0.34066  1.0000
  C   C1520     1.0  0.85152  0.43875  0.35044  1.0000
  C   C1521     1.0  0.88213  0.42585  0.35935  1.0000
  C   C1522     1.0  0.86607  0.41436  0.32822  1.0000
  C   C1523     1.0  0.87780  0.44640  0.32581  1.0000
  C   C1524     1.0  0.83564  0.44265  0.33448  1.0000
  C   C1525     1.0  0.88552  0.44131  0.37530  1.0000
  C   C1526     1.0  0.88291  0.40421  0.31718  1.0000
  H   H2580     1.0  0.84626  0.42901  0.36339  1.0000
  H   H2581     1.0  0.85325  0.45203  0.35872  1.0000
  H   H2582     1.0  0.89594  0.42027  0.35380  1.0000
  H   H2583     1.0  0.87606  0.41418  0.36908  1.0000
  H   H2584     1.0  0.85901  0.40399  0.33912  1.0000
  H   H2585     1.0  0.85641  0.41780  0.31482  1.0000
  H   H2586     1.0  0.87107  0.44677  0.30975  1.0000
  H   H2587     1.0  0.82974  0.42953  0.32951  1.0000
  H   H2588     1.0  0.82411  0.45060  0.34290  1.0000
  H   H2589     1.0  0.84004  0.45101  0.31992  1.0000
  H   H2590     1.0  0.89704  0.43664  0.38603  1.0000
  H   H2591     1.0  0.87315  0.44402  0.38616  1.0000
  H   H2592     1.0  0.89399  0.40004  0.32861  1.0000
  H   H2593     1.0  0.88854  0.41257  0.30322  1.0000
  H   H2594     1.0  0.87827  0.39116  0.31041  1.0000
  H   H2595     1.0  0.67140  0.41051  0.21793  1.0000
  C   C1527     1.0  0.77284  0.37505  0.39833  1.0000
  C   C1528     1.0  0.70371  0.43273  0.23620  1.0000
  H   H2596     1.0  0.77797  0.37637  0.38111  1.0000
  H   H2597     1.0  0.68604  0.46483  0.22819  1.0000
  H   H2598     1.0  0.67831  0.29854  0.21158  1.0000
  C   C1529     1.0  0.95628  0.34076  0.37909  1.0000
  H   H2599     1.0  0.71443  0.42188  0.24088  1.0000
  H   H2600     1.0  0.68878  0.29391  0.23787  1.0000
  H   H2601     1.0  0.74253  0.35269  0.40320  1.0000
  H   H2602     1.0  0.73288  0.48240  0.23231  1.0000
  H   H2603     1.0  0.74649  0.36965  0.35653  1.0000
  C   C1530     1.0  0.95090  0.36688  0.35333  1.0000
  C   C1531     1.0  0.70304  0.49905  0.28192  1.0000
  N   N111      1.0  0.96507  0.35743  0.36804  1.0000
  H   H2604     1.0  0.98176  0.39792  0.38947  1.0000
  C   C1532     1.0  0.89130  0.37308  0.49622  1.0000
  H   H2605     1.0  0.76799  0.42006  0.38701  1.0000
  H   H2606     1.0  0.71644  0.37856  0.42348  1.0000
  H   H2607     1.0  0.67674  0.43774  0.38002  1.0000
  H   H2608     1.0  0.72659  0.36918  0.39104  1.0000
  H   H2609     1.0  0.69782  0.42856  0.22081  1.0000
  H   H2610     1.0  0.69574  0.44081  0.26870  1.0000
  H   H2611     1.0  0.98902  0.40324  0.25318  1.0000
  H   H2612     1.0  0.75496  0.39296  0.43199  1.0000
  C   C1533     1.0  0.68156  0.41525  0.40333  1.0000
  C   C1534     1.0  0.97973  0.38866  0.37574  1.0000
  H   H2613     1.0  0.97905  0.36497  0.39716  1.0000
  H   H2614     1.0  0.93899  0.37288  0.36320  1.0000
  H   H2615     1.0  0.71101  0.44584  0.23335  1.0000
  H   H2616     1.0  0.68638  0.42019  0.26096  1.0000
  C   C1535     1.0  0.66994  0.42111  0.44051  1.0000
  H   H2617     1.0  0.72363  0.39122  0.44585  1.0000
  C   C1536     1.0  0.75424  0.41670  0.39433  1.0000
  H   H2618     1.0  0.99368  0.38507  0.36857  1.0000
  S   S438      1.0  0.69245  0.39956  0.38468  1.0000
  H   H2619     1.0  0.95683  0.37872  0.34385  1.0000
  H   H2620     1.0  0.67768  0.26910  0.20325  1.0000
  H   H2621     1.0  0.95624  0.32135  0.40694  1.0000
  N   N112      1.0  0.67128  0.44534  0.24945  1.0000
  C   C1537     1.0  0.94258  0.35455  0.33639  1.0000
  C   C1538     1.0  0.67907  0.40941  0.42526  1.0000
  S   S439      1.0  0.68387  0.38172  0.27368  1.0000
  C   C1539     1.0  0.67658  0.46483  0.24285  1.0000
  Fe  Fe221     1.0  0.99524  0.47352  0.28410  1.0000
  H   H2622     1.0  0.80078  0.38118  0.40704  1.0000
  H   H2623     1.0  0.93158  0.36286  0.32774  1.0000
  H   H2624     1.0  0.99109  0.43840  0.20400  1.0000
  C   C1540     1.0  0.89909  0.44538  0.32145  1.0000
  C   C1541     1.0  0.74164  0.36510  0.39190  1.0000
  C   C1542     1.0  0.98174  0.35147  0.35412  1.0000
  H   H2625     1.0  0.78468  0.38176  0.42959  1.0000
  C   C1543     1.0  0.72609  0.38916  0.42814  1.0000
  H   H2626     1.0  0.74924  0.36956  0.43322  1.0000
  C   C1544     1.0  0.74659  0.38289  0.42388  1.0000
  H   H2627     1.0  0.90220  0.45100  0.30474  1.0000
  H   H2628     1.0  0.99498  0.32905  0.37400  1.0000
  H   H2629     1.0  0.74403  0.42787  0.38918  1.0000
  C   C1545     1.0  0.68898  0.43446  0.25490  1.0000
  H   H2630     1.0  0.90575  0.43133  0.32242  1.0000
  H   H2631     1.0  0.87462  0.46030  0.33279  1.0000
  C   C1546     1.0  0.74800  0.39793  0.38641  1.0000
  N   N113      1.0  0.75244  0.38072  0.40028  1.0000
  H   H2632     1.0  0.72245  0.40260  0.41968  1.0000
  H   H2633     1.0  0.95714  0.34497  0.41431  1.0000
  H   H2634     1.0  0.94106  0.34338  0.38116  1.0000
  H   H2635     1.0  0.68436  0.47090  0.25594  1.0000
  H   H2636     1.0  0.91109  0.39370  0.48754  1.0000
  S   S440      1.0  0.99869  0.47665  0.24726  1.0000
  C   C1547     1.0  0.78629  0.38549  0.41199  1.0000
  H   H2637     1.0  0.75419  0.39647  0.36972  1.0000
  H   H2638     1.0  0.95791  0.32834  0.36875  1.0000
  H   H2639     1.0  0.97767  0.33279  0.40347  1.0000
  H   H2640     1.0  0.75465  0.41768  0.41216  1.0000
  H   H2641     1.0  0.95304  0.35001  0.32384  1.0000
  H   H2642     1.0  0.97149  0.39701  0.36381  1.0000
  H   H2643     1.0  0.98666  0.44036  0.23245  1.0000
  H   H2644     1.0  0.76514  0.50033  0.22417  1.0000
  H   H2645     1.0  0.98277  0.41884  0.21935  1.0000
  C   C1548     1.0  0.99836  0.34264  0.36632  1.0000
  H   H2646     1.0  0.68412  0.39568  0.43047  1.0000
  H   H2647     1.0  0.66826  0.41644  0.45734  1.0000
  C   C1549     1.0  0.90369  0.38677  0.50083  1.0000
  H   H2648     1.0  0.98687  0.37981  0.22975  1.0000
  H   H2649     1.0  0.67511  0.27539  0.27451  1.0000
  C   C1550     1.0  0.68101  0.26166  0.26973  1.0000
  H   H2650     1.0  0.77435  0.49551  0.25039  1.0000
  H   H2651     1.0  0.69593  0.26187  0.27362  1.0000
  H   H2652     1.0  0.93221  0.25644  0.35290  1.0000
  C   C1551     1.0  0.66774  0.36409  0.26878  1.0000
  H   H2653     1.0  0.69239  0.26208  0.23668  1.0000
  H   H2654     1.0  0.66755  0.44208  0.21512  1.0000
  Fe  Fe222     1.0  0.69291  0.41849  0.68701  1.0000
  S   S441      1.0  0.71185  0.39310  0.69284  1.0000
  H   H2655     1.0  0.99192  0.48461  0.66267  1.0000
  Fe  Fe223     1.0  0.70183  0.43521  0.73116  1.0000
  S   S442      1.0  0.72130  0.41090  0.73936  1.0000
  S   S443      1.0  0.69158  0.45615  0.75686  1.0000
  Fe  Fe224     1.0  0.73210  0.41337  0.70447  1.0000
  S   S444      1.0  0.76341  0.41636  0.69651  1.0000
  Fe  Fe225     1.0  0.69940  0.39264  0.72723  1.0000
  S   S445      1.0  0.69125  0.36622  0.74701  1.0000
  S   S446      1.0  0.71353  0.43895  0.69687  1.0000
  S   S447      1.0  0.67960  0.41675  0.72067  1.0000
  Fe  Fe226     1.0  0.89951  0.35057  0.63976  1.0000
  S   S448      1.0  0.91901  0.37210  0.62638  1.0000
  S   S449      1.0  0.90508  0.31886  0.63837  1.0000
  Fe  Fe227     1.0  0.86652  0.37958  0.64347  1.0000
  S   S450      1.0  0.88407  0.40300  0.63010  1.0000
  S   S451      1.0  0.83503  0.37605  0.65007  1.0000
  Fe  Fe228     1.0  0.89559  0.38266  0.60482  1.0000
  S   S452      1.0  0.90155  0.38967  0.56786  1.0000
  Fe  Fe229     1.0  0.90664  0.39107  0.65238  1.0000
  S   S453      1.0  0.92459  0.40570  0.67742  1.0000
  S   S454      1.0  0.87698  0.36033  0.61707  1.0000
  S   S455      1.0  0.88825  0.36856  0.66679  1.0000
  H   H2656     1.0  0.91472  0.33820  0.59651  1.0000
  S   S456      1.0  0.97920  0.46654  0.71329  1.0000
  S   S457      1.0  0.98876  0.47701  0.77849  1.0000
  C   C1552     1.0  0.93981  0.42278  0.68711  1.0000
  C   C1553     1.0  0.94660  0.42086  0.70841  1.0000
  C   C1554     1.0  0.95870  0.43381  0.71661  1.0000
  C   C1555     1.0  0.96422  0.44919  0.70375  1.0000
  C   C1556     1.0  0.95740  0.45114  0.68249  1.0000
  C   C1557     1.0  0.94541  0.43813  0.67425  1.0000
  H   H2657     1.0  0.94261  0.40909  0.71861  1.0000
  H   H2658     1.0  0.96389  0.43170  0.73282  1.0000
  H   H2659     1.0  0.96139  0.46286  0.67222  1.0000
  H   H2660     1.0  0.94048  0.43998  0.65787  1.0000
  C   C1558     1.0  0.88463  0.36933  0.53589  1.0000
  C   C1559     1.0  0.89708  0.38296  0.54047  1.0000
  C   C1560     1.0  0.90654  0.39158  0.52265  1.0000
  H   H2661     1.0  0.87698  0.36267  0.54915  1.0000
  H   H2662     1.0  0.91616  0.40219  0.52573  1.0000
  C   C1561     1.0  0.78333  0.40426  0.68463  1.0000
  C   C1562     1.0  0.78236  0.38706  0.67492  1.0000
  C   C1563     1.0  0.79830  0.37872  0.66451  1.0000
  C   C1564     1.0  0.81552  0.38727  0.66384  1.0000
  C   C1565     1.0  0.81650  0.40441  0.67367  1.0000
  C   C1566     1.0  0.80053  0.41284  0.68387  1.0000
  H   H2663     1.0  0.76932  0.38024  0.67528  1.0000
  H   H2664     1.0  0.79724  0.36555  0.65686  1.0000
  H   H2665     1.0  0.82955  0.41125  0.67330  1.0000
  H   H2666     1.0  0.80150  0.42617  0.69121  1.0000
  C   C1567     1.0  0.92012  0.47315  0.72790  1.0000
  H   H2667     1.0  0.94322  0.33199  0.53059  1.0000
  C   C1568     1.0  0.69685  0.39670  0.79396  1.0000
  C   C1569     1.0  0.68967  0.43213  0.62102  1.0000
  H   H2668     1.0  0.95229  0.48561  0.74006  1.0000
  H   H2669     1.0  0.93898  0.31591  0.60430  1.0000
  H   H2670     1.0  0.76041  0.46012  0.65350  1.0000
  H   H2671     1.0  0.70120  0.43546  0.63068  1.0000
  H   H2672     1.0  0.70227  0.44164  0.59047  1.0000
  C   C1570     1.0  0.91687  0.26959  0.68722  1.0000
  C   C1571     1.0  0.91602  0.28802  0.69432  1.0000
  C   C1572     1.0  0.91279  0.30328  0.67966  1.0000
  C   C1573     1.0  0.91035  0.30034  0.65758  1.0000
  C   C1574     1.0  0.91133  0.28193  0.65043  1.0000
  C   C1575     1.0  0.91455  0.26667  0.66510  1.0000
  H   H2673     1.0  0.91782  0.29050  0.71136  1.0000
  H   H2674     1.0  0.91214  0.31730  0.68549  1.0000
  H   H2675     1.0  0.90944  0.27940  0.63343  1.0000
  C   C1576     1.0  0.91402  0.48253  0.74947  1.0000
  C   C1577     1.0  0.71751  0.48394  0.75588  1.0000
  C   C1578     1.0  0.70094  0.47729  0.76495  1.0000
  H   H2676     1.0  0.95709  0.45873  0.75659  1.0000
  H   H2677     1.0  0.72508  0.47613  0.74347  1.0000
  H   H2678     1.0  0.68224  0.33423  0.77403  1.0000
  S   S458      1.0  0.67177  0.42137  0.65998  1.0000
  C   C1579     1.0  0.91470  0.32664  0.54307  1.0000
  H   H2679     1.0  0.87250  0.31340  0.58456  1.0000
  H   H2680     1.0  0.74261  0.45679  0.63472  1.0000
  H   H2681     1.0  0.95447  0.29832  0.59320  1.0000
  C   C1580     1.0  0.94555  0.49592  0.75095  1.0000
  H   H2682     1.0  0.90207  0.29797  0.56879  1.0000
  H   H2683     1.0  0.93472  0.36558  0.57776  1.0000
  H   H2684     1.0  0.94715  0.34697  0.56507  1.0000
  H   H2685     1.0  0.67565  0.48322  0.96030  1.0000
  C   C1581     1.0  0.67489  0.43211  0.58568  1.0000
  H   H2686     1.0  0.76705  0.42921  0.58208  1.0000
  H   H2687     1.0  0.92432  0.46686  0.78866  1.0000
  H   H2688     1.0  0.70805  0.39813  0.78133  1.0000
  H   H2689     1.0  0.74269  0.44480  0.66126  1.0000
  C   C1582     1.0  0.94503  0.45531  0.76733  1.0000
  H   H2690     1.0  0.79611  0.39604  0.60830  1.0000
  H   H2691     1.0  0.76185  0.45053  0.59662  1.0000
  C   C1583     1.0  0.88245  0.32103  0.57380  1.0000
  H   H2692     1.0  0.71911  0.40018  0.61977  1.0000
  C   C1584     1.0  0.91863  0.34069  0.57901  1.0000
  H   H2693     1.0  0.85377  0.28619  0.70236  1.0000
  H   H2694     1.0  0.74692  0.44346  0.57628  1.0000
  H   H2695     1.0  0.67852  0.48274  0.78826  1.0000
  C   C1585     1.0  0.90209  0.31187  0.57622  1.0000
  H   H2696     1.0  0.94447  0.34751  0.59440  1.0000
  H   H2697     1.0  0.90356  0.30903  0.59397  1.0000
  H   H2698     1.0  0.78988  0.41999  0.60288  1.0000
  C   C1586     1.0  0.69134  0.48769  0.78112  1.0000
  H   H2699     1.0  0.67121  0.49480  0.90188  1.0000
  H   H2700     1.0  0.95043  0.44538  0.78007  1.0000
  H   H2701     1.0  0.89418  0.49188  0.78636  1.0000
  H   H2702     1.0  0.93398  0.46607  0.72772  1.0000
  Fe  Fe230     1.0  0.99490  0.47841  0.74218  1.0000
  H   H2703     1.0  0.79495  0.41163  0.63014  1.0000
  H   H2704     1.0  0.91020  0.46234  0.72449  1.0000
  C   C1587     1.0  0.92895  0.33829  0.53020  1.0000
  H   H2705     1.0  0.71991  0.38901  0.64588  1.0000
  H   H2706     1.0  0.67534  0.39630  0.77064  1.0000
  C   C1588     1.0  0.93545  0.31060  0.56931  1.0000
  H   H2707     1.0  0.94787  0.31725  0.56217  1.0000
  C   C1589     1.0  0.69017  0.43569  0.59830  1.0000
  H   H2708     1.0  0.69630  0.38157  0.79781  1.0000
  H   H2709     1.0  0.91368  0.31335  0.53453  1.0000
  H   H2710     1.0  0.92851  0.35280  0.53575  1.0000
  C   C1590     1.0  0.93744  0.35028  0.57876  1.0000
  H   H2711     1.0  0.90803  0.35100  0.57276  1.0000
  H   H2712     1.0  0.90509  0.49491  0.74464  1.0000
  H   H2713     1.0  0.93451  0.29777  0.55985  1.0000
  H   H2714     1.0  0.93086  0.29323  0.59911  1.0000
  H   H2715     1.0  0.87761  0.32018  0.55694  1.0000
  H   H2716     1.0  0.91929  0.48328  0.71392  1.0000
  H   H2717     1.0  0.90126  0.33442  0.54076  1.0000
  C   C1591     1.0  0.66947  0.35826  0.75776  1.0000
  C   C1592     1.0  0.94002  0.30432  0.59288  1.0000
  S   S459      1.0  0.67560  0.43814  0.55747  1.0000
  N   N114      1.0  0.91805  0.32284  0.56694  1.0000
  H   H2718     1.0  0.87671  0.29550  0.69792  1.0000
  H   H2719     1.0  0.93478  0.44781  0.75833  1.0000
  H   H2720     1.0  0.73785  0.38344  0.62625  1.0000
  N   N115      1.0  0.84999  0.31515  0.66904  1.0000
  C   C1593     1.0  0.85993  0.29627  0.66867  1.0000
  C   C1594     1.0  0.86124  0.32875  0.68065  1.0000
  C   C1595     1.0  0.84898  0.32235  0.64571  1.0000
  C   C1596     1.0  0.83081  0.31337  0.67905  1.0000
  C   C1597     1.0  0.86573  0.28762  0.69074  1.0000
  C   C1598     1.0  0.85772  0.33035  0.70547  1.0000
  C   C1599     1.0  0.83883  0.31039  0.62998  1.0000
  C   C1600     1.0  0.81802  0.33110  0.67755  1.0000
  H   H2721     1.0  0.85118  0.28595  0.66140  1.0000
  H   H2722     1.0  0.87274  0.29673  0.65809  1.0000
  H   H2723     1.0  0.85871  0.34318  0.67397  1.0000
  H   H2724     1.0  0.87639  0.32579  0.67750  1.0000
  H   H2725     1.0  0.84223  0.33654  0.64474  1.0000
  H   H2726     1.0  0.86326  0.32410  0.63861  1.0000
  H   H2727     1.0  0.82353  0.30209  0.67145  1.0000
  H   H2728     1.0  0.83115  0.30854  0.69638  1.0000
  C   C1601     1.0  0.88189  0.36439  0.51407  1.0000
  H   H2729     1.0  0.87195  0.27342  0.68818  1.0000
  H   H2730     1.0  0.88160  0.33568  0.57875  1.0000
  H   H2731     1.0  0.86865  0.33878  0.71201  1.0000
  H   H2732     1.0  0.84424  0.33781  0.70915  1.0000
  H   H2733     1.0  0.85810  0.31689  0.71458  1.0000
  H   H2734     1.0  0.84634  0.29685  0.62732  1.0000
  H   H2735     1.0  0.83836  0.31781  0.61385  1.0000
  H   H2736     1.0  0.82426  0.30825  0.63541  1.0000
  H   H2737     1.0  0.81001  0.33153  0.66243  1.0000
  H   H2738     1.0  0.82586  0.34394  0.67787  1.0000
  H   H2739     1.0  0.80825  0.33162  0.69190  1.0000
  N   N116      1.0  0.75407  0.41902  0.62594  1.0000
  C   C1602     1.0  0.73973  0.41082  0.64148  1.0000
  C   C1603     1.0  0.76377  0.43358  0.63781  1.0000
  C   C1604     1.0  0.76776  0.40345  0.61929  1.0000
  C   C1605     1.0  0.74413  0.42727  0.60645  1.0000
  C   C1606     1.0  0.72874  0.39498  0.63252  1.0000
  C   C1607     1.0  0.75137  0.44962  0.64714  1.0000
  C   C1608     1.0  0.78821  0.40835  0.61483  1.0000
  C   C1609     1.0  0.75596  0.43820  0.58964  1.0000
  H   H2740     1.0  0.74636  0.40537  0.65666  1.0000
  H   H2741     1.0  0.72909  0.42150  0.64678  1.0000
  H   H2742     1.0  0.77459  0.44016  0.62732  1.0000
  H   H2743     1.0  0.77138  0.42701  0.65166  1.0000
  H   H2744     1.0  0.76854  0.39223  0.63221  1.0000
  H   H2745     1.0  0.76309  0.39652  0.60465  1.0000
  H   H2746     1.0  0.73785  0.41625  0.59726  1.0000
  H   H2747     1.0  0.73228  0.43665  0.61170  1.0000
  C   C1610     1.0  0.93595  0.47240  0.77846  1.0000
  H   H2748     1.0  0.70106  0.40420  0.80827  1.0000
  C   C1611     1.0  0.67066  0.48860  0.94429  1.0000
  H   H2749     1.0  0.90471  0.47295  0.75870  1.0000
  C   C1612     1.0  0.67388  0.42486  0.63132  1.0000
  H   H2750     1.0  0.68257  0.43915  0.80283  1.0000
  H   H2751     1.0  0.67638  0.41215  0.82941  1.0000
  H   H2752     1.0  0.94613  0.47730  0.79003  1.0000
  H   H2753     1.0  0.92507  0.33926  0.51283  1.0000
  H   H2754     1.0  0.68137  0.41864  0.77742  1.0000
  H   H2755     1.0  0.87218  0.35389  0.51094  1.0000
  N   N117      1.0  0.92922  0.48833  0.76377  1.0000
  H   H2756     1.0  0.91516  0.25264  0.65932  1.0000
  H   H2757     1.0  0.91071  0.48940  0.80809  1.0000
  C   C1613     1.0  0.66930  0.34195  0.77109  1.0000
  C   C1614     1.0  0.67844  0.40476  0.78473  1.0000
  H   H2758     1.0  0.95664  0.49924  0.76212  1.0000
  C   C1615     1.0  0.72430  0.50076  0.76287  1.0000
  H   H2759     1.0  0.66911  0.47609  0.93477  1.0000
  C   C1616     1.0  0.90560  0.49845  0.79439  1.0000
  H   H2760     1.0  0.67203  0.44565  0.82813  1.0000
  H   H2761     1.0  0.68158  0.49718  0.93646  1.0000
  H   H2762     1.0  0.67131  0.38169  0.82069  1.0000
  H   H2763     1.0  0.66860  0.48307  0.57216  1.0000
  C   C1617     1.0  0.66964  0.43823  0.81301  1.0000
  H   H2764     1.0  0.00015  0.46182  0.65658  1.0000
  Fe  Fe231     1.0  0.69737  0.57879  0.18146  1.0000
  S   S460      1.0  0.70645  0.60380  0.19897  1.0000
  H   H2765     1.0  0.76102  0.52447  0.20055  1.0000
  Fe  Fe232     1.0  0.71312  0.55129  0.21642  1.0000
  S   S461      1.0  0.72248  0.57456  0.23625  1.0000
  S   S462      1.0  0.72101  0.52029  0.22261  1.0000
  Fe  Fe233     1.0  0.69494  0.58954  0.22927  1.0000
  C   C1618     1.0  0.76963  0.50694  0.23903  1.0000
  Fe  Fe234     1.0  0.73340  0.58709  0.20430  1.0000
  S   S463      1.0  0.76295  0.59825  0.20535  1.0000
  S   S464      1.0  0.68484  0.56509  0.21158  1.0000
  S   S465      1.0  0.72501  0.56323  0.18465  1.0000
  H   H2766     1.0  0.93842  0.52364  0.11274  1.0000
  Fe  Fe235     1.0  0.86739  0.60605  0.14068  1.0000
  S   S466      1.0  0.88691  0.58668  0.12162  1.0000
  S   S467      1.0  0.83611  0.60018  0.14260  1.0000
  Fe  Fe236     1.0  0.89827  0.63286  0.14798  1.0000
  S   S468      1.0  0.91956  0.61520  0.12912  1.0000
  S   S469      1.0  0.90639  0.65753  0.16823  1.0000
  Fe  Fe237     1.0  0.89740  0.61237  0.10409  1.0000
  S   S470      1.0  0.90642  0.61457  0.06714  1.0000
  Fe  Fe238     1.0  0.90793  0.59053  0.14767  1.0000
  S   S471      1.0  0.92559  0.56442  0.15962  1.0000
  S   S472      1.0  0.87700  0.63174  0.12200  1.0000
  S   S473      1.0  0.88753  0.60814  0.16764  1.0000
  H   H2767     1.0  0.98352  0.60834  0.28429  1.0000
  S   S474      1.0  0.98133  0.53211  0.23411  1.0000
  H   H2768     1.0  0.70997  0.59584  0.02186  1.0000
  C   C1619     1.0  0.94098  0.55585  0.18071  1.0000
  C   C1620     1.0  0.94705  0.56704  0.19705  1.0000
  C   C1621     1.0  0.95929  0.55957  0.21308  1.0000
  C   C1622     1.0  0.96571  0.54074  0.21328  1.0000
  C   C1623     1.0  0.95961  0.52955  0.19696  1.0000
  C   C1624     1.0  0.94745  0.53705  0.18087  1.0000
  H   H2769     1.0  0.94234  0.58149  0.19734  1.0000
  H   H2770     1.0  0.96373  0.56848  0.22550  1.0000
  H   H2771     1.0  0.96428  0.51509  0.19669  1.0000
  H   H2772     1.0  0.94297  0.52813  0.16847  1.0000
  S   S475      1.0  0.99325  0.50468  0.28812  1.0000
  C   C1625     1.0  0.91274  0.61479  0.02214  1.0000
  C   C1626     1.0  0.89948  0.61239  0.03933  1.0000
  C   C1627     1.0  0.88147  0.60819  0.03378  1.0000
  H   H2773     1.0  0.92674  0.61795  0.02598  1.0000
  H   H2774     1.0  0.87100  0.60623  0.04655  1.0000
  C   C1628     1.0  0.90485  0.72174  0.17460  1.0000
  C   C1629     1.0  0.89570  0.71373  0.15754  1.0000
  C   C1630     1.0  0.89626  0.69425  0.15502  1.0000
  C   C1631     1.0  0.90588  0.68238  0.16970  1.0000
  C   C1632     1.0  0.91499  0.69040  0.18675  1.0000
  C   C1633     1.0  0.91460  0.70988  0.18913  1.0000
  H   H2775     1.0  0.88807  0.72268  0.14619  1.0000
  H   H2776     1.0  0.88914  0.68841  0.14184  1.0000
  H   H2777     1.0  0.92244  0.68144  0.19828  1.0000
  H   H2778     1.0  0.92167  0.71569  0.20238  1.0000
  C   C1634     1.0  0.68007  0.54195  0.11062  1.0000
  H   H2779     1.0  0.97730  0.58488  0.28329  1.0000
  H   H2780     1.0  0.95361  0.58823  0.11253  1.0000
  C   C1635     1.0  0.78326  0.59775  0.18778  1.0000
  C   C1636     1.0  0.78275  0.59386  0.16567  1.0000
  C   C1637     1.0  0.79907  0.59449  0.15229  1.0000
  C   C1638     1.0  0.81623  0.59873  0.16076  1.0000
  C   C1639     1.0  0.81686  0.60202  0.18304  1.0000
  C   C1640     1.0  0.80047  0.60177  0.19635  1.0000
  H   H2781     1.0  0.76970  0.59080  0.15874  1.0000
  H   H2782     1.0  0.79835  0.59183  0.13513  1.0000
  H   H2783     1.0  0.82992  0.60491  0.19000  1.0000
  H   H2784     1.0  0.80111  0.60469  0.21344  1.0000
  H   H2785     1.0  0.92941  0.74045  0.13489  1.0000
  H   H2786     1.0  0.70030  0.52547  0.26416  1.0000
  C   C1641     1.0  0.79782  0.54849  0.21657  1.0000
  H   H2787     1.0  0.69432  0.54845  0.13968  1.0000
  C   C1642     1.0  0.98617  0.59427  0.29180  1.0000
  H   H2788     1.0  0.79757  0.56701  0.24427  1.0000
  H   H2789     1.0  0.76253  0.56653  0.25910  1.0000
  C   C1643     1.0  0.70626  0.51142  0.26403  1.0000
  H   H2790     1.0  0.94381  0.55722  0.11534  1.0000
  H   H2791     1.0  0.86393  0.62182  0.20524  1.0000
  H   H2792     1.0  0.81934  0.65607  0.13803  1.0000
  N   N118      1.0  0.69436  0.57152  0.03106  1.0000
  H   H2793     1.0  0.76434  0.56299  0.22292  1.0000
  H   H2794     1.0  0.66851  0.56706  0.04882  1.0000
  C   C1644     1.0  0.69906  0.55091  0.03295  1.0000
  C   C1645     1.0  0.71162  0.58259  0.03163  1.0000
  H   H2795     1.0  0.72367  0.54769  0.05308  1.0000
  C   C1646     1.0  0.68528  0.57527  0.00946  1.0000
  H   H2796     1.0  0.91617  0.73611  0.09901  1.0000
  H   H2797     1.0  0.79711  0.51171  0.22573  1.0000
  H   H2798     1.0  0.95326  0.74485  0.13796  1.0000
  H   H2799     1.0  0.69449  0.50373  0.29564  1.0000
  H   H2800     1.0  0.75154  0.54304  0.22761  1.0000
  H   H2801     1.0  0.72364  0.57489  0.02372  1.0000
  H   H2802     1.0  0.73163  0.59448  0.05229  1.0000
  H   H2803     1.0  0.79463  0.56103  0.20608  1.0000
  H   H2804     1.0  0.91505  0.51661  0.11516  1.0000
  H   H2805     1.0  0.81956  0.56317  0.23104  1.0000
  H   H2806     1.0  0.96211  0.57765  0.08811  1.0000
  H   H2807     1.0  0.70841  0.54629  0.01925  1.0000
  H   H2808     1.0  0.68601  0.57465  0.06518  1.0000
  S   S476      1.0  0.67502  0.60179  0.25593  1.0000
  C   C1647     1.0  0.71786  0.58820  0.05423  1.0000
  H   H2809     1.0  0.99249  0.58715  0.24742  1.0000
  S   S477      1.0  0.90327  0.74650  0.17706  1.0000
  H   H2810     1.0  0.78460  0.52020  0.19221  1.0000
  H   H2811     1.0  0.94212  0.53855  0.05774  1.0000
  H   H2812     1.0  0.75749  0.51419  0.24702  1.0000
  H   H2813     1.0  0.75354  0.54425  0.26397  1.0000
  H   H2814     1.0  0.81105  0.54519  0.24865  1.0000
  H   H2815     1.0  0.84778  0.63053  0.17281  1.0000
  H   H2816     1.0  0.81669  0.64030  0.17223  1.0000
  N   N119      1.0  0.83832  0.65873  0.18005  1.0000
  H   H2817     1.0  0.86392  0.68617  0.21222  1.0000
  H   H2818     1.0  0.90201  0.57091  0.04134  1.0000
  C   C1648     1.0  0.94696  0.54758  0.07051  1.0000
  C   C1649     1.0  0.80289  0.66630  0.18101  1.0000
  C   C1650     1.0  0.84129  0.67315  0.19660  1.0000
  C   C1651     1.0  0.85205  0.64238  0.18234  1.0000
  H   H2819     1.0  0.92798  0.57946  0.06216  1.0000
  C   C1652     1.0  0.77469  0.53107  0.19885  1.0000
  H   H2820     1.0  0.89732  0.74671  0.08365  1.0000
  C   C1653     1.0  0.85501  0.63477  0.20581  1.0000
  H   H2821     1.0  0.68625  0.54294  0.03187  1.0000
  Fe  Fe239     1.0  0.99816  0.50776  0.25158  1.0000
  C   C1654     1.0  0.68021  0.57657  0.04874  1.0000
  C   C1655     1.0  0.80675  0.55615  0.23658  1.0000
  C   C1656     1.0  0.78571  0.52000  0.23406  1.0000
  C   C1657     1.0  0.93656  0.56609  0.10292  1.0000
  H   H2822     1.0  0.95389  0.55884  0.06091  1.0000
  H   H2823     1.0  0.80210  0.67599  0.19467  1.0000
  H   H2824     1.0  0.80877  0.54014  0.20754  1.0000
  H   H2825     1.0  0.86240  0.64465  0.21548  1.0000
  C   C1658     1.0  0.94928  0.58227  0.09716  1.0000
  H   H2826     1.0  0.78961  0.65902  0.18159  1.0000
  H   H2827     1.0  0.80361  0.67424  0.16530  1.0000
  C   C1659     1.0  0.81904  0.65168  0.18350  1.0000
  H   H2828     1.0  0.83136  0.68528  0.19433  1.0000
  H   H2829     1.0  0.98684  0.55766  0.30273  1.0000
  H   H2830     1.0  0.78622  0.55009  0.17355  1.0000
  H   H2831     1.0  0.87199  0.67129  0.19155  1.0000
  H   H2832     1.0  0.97557  0.53713  0.07346  1.0000
  N   N120      1.0  0.78078  0.53733  0.22065  1.0000
  C   C1660     1.0  0.90992  0.55971  0.05040  1.0000
  H   H2833     1.0  0.89973  0.54936  0.05593  1.0000
  H   H2834     1.0  0.85583  0.67043  0.15427  1.0000
  C   C1661     1.0  0.91933  0.56837  0.06959  1.0000
  H   H2835     1.0  0.84185  0.63117  0.21438  1.0000
  H   H2836     1.0  0.67191  0.56811  0.00906  1.0000
  H   H2837     1.0  0.86127  0.69346  0.18399  1.0000
  C   C1662     1.0  0.86067  0.68148  0.19582  1.0000
  H   H2838     1.0  0.83353  0.68144  0.15643  1.0000
  H   H2839     1.0  0.79142  0.52310  0.24991  1.0000
  H   H2840     1.0  0.90392  0.54557  0.09556  1.0000
  N   N121      1.0  0.93068  0.55517  0.08401  1.0000
  H   H2841     1.0  0.92413  0.57198  0.11190  1.0000
  H   H2842     1.0  0.90810  0.57566  0.07935  1.0000
  C   C1663     1.0  0.96206  0.53576  0.08247  1.0000
  H   H2843     1.0  0.76504  0.55902  0.18668  1.0000
  C   C1664     1.0  0.91831  0.53984  0.09202  1.0000
  H   H2844     1.0  0.84024  0.64155  0.13959  1.0000
  H   H2845     1.0  0.86594  0.64564  0.17517  1.0000
  H   H2846     1.0  0.96461  0.54034  0.09902  1.0000
  H   H2847     1.0  0.70915  0.52835  0.05425  1.0000
  H   H2848     1.0  0.81722  0.64523  0.20007  1.0000
  C   C1665     1.0  0.77251  0.54633  0.18076  1.0000
  H   H2849     1.0  0.83984  0.66239  0.12299  1.0000
  H   H2850     1.0  0.76444  0.54106  0.16739  1.0000
  H   H2851     1.0  0.77817  0.54718  0.26380  1.0000
  C   C1666     1.0  0.83468  0.65610  0.13866  1.0000
  H   H2852     1.0  0.66784  0.64887  0.17923  1.0000
  H   H2853     1.0  0.98962  0.55766  0.26641  1.0000
  C   C1667     1.0  0.70897  0.54378  0.05359  1.0000
  C   C1668     1.0  0.84092  0.66756  0.15763  1.0000
  H   H2854     1.0  0.86288  0.60337  0.00776  1.0000
  H   H2855     1.0  0.83798  0.66798  0.21350  1.0000
  H   H2856     1.0  0.92015  0.55352  0.03857  1.0000
  H   H2857     1.0  0.68758  0.52873  0.10876  1.0000
  H   H2858     1.0  0.68183  0.60699  0.04267  1.0000
  H   H2859     1.0  0.70825  0.59890  0.06151  1.0000
  C   C1669     1.0  0.71694  0.50551  0.24596  1.0000
  H   H2860     1.0  0.94192  0.59374  0.08800  1.0000
  H   H2861     1.0  0.95874  0.52085  0.08322  1.0000
  C   C1670     1.0  0.76520  0.55156  0.25575  1.0000
  C   C1671     1.0  0.68394  0.55311  0.12818  1.0000
  H   H2862     1.0  0.91702  0.52949  0.07917  1.0000
  C   C1672     1.0  0.92381  0.52885  0.11297  1.0000
  C   C1673     1.0  0.91022  0.74945  0.09213  1.0000
  H   H2863     1.0  0.70184  0.54833  0.06884  1.0000
  C   C1674     1.0  0.76510  0.54897  0.23083  1.0000
  H   H2864     1.0  0.67642  0.63980  0.23633  1.0000
  H   H2865     1.0  0.92097  0.53737  0.12751  1.0000
  C   C1675     1.0  0.87688  0.60656  0.01161  1.0000
  H   H2866     1.0  0.98158  0.59443  0.30922  1.0000
  H   H2867     1.0  0.67257  0.62979  0.19754  1.0000
  C   C1676     1.0  0.67148  0.59650  0.04707  1.0000
  H   H2868     1.0  0.71944  0.57638  0.06602  1.0000
  S   S478      1.0  0.67942  0.58536  0.15189  1.0000
  C   C1677     1.0  0.67456  0.57036  0.13063  1.0000
  H   H2869     1.0  0.99977  0.55069  0.33836  1.0000
  H   H2870     1.0  0.68160  0.59034  0.00695  1.0000
  Fe  Fe240     1.0  0.69865  0.56229  0.85837  1.0000
  S   S479      1.0  0.70181  0.59298  0.85293  1.0000
  S   S480      1.0  0.69120  0.54659  0.89022  1.0000
  Fe  Fe241     1.0  0.71256  0.55345  0.81196  1.0000
  S   S481      1.0  0.71633  0.58382  0.80331  1.0000
  S   S482      1.0  0.72396  0.53236  0.78708  1.0000
  Fe  Fe242     1.0  0.72933  0.58542  0.83608  1.0000
  S   S483      1.0  0.75511  0.60313  0.83734  1.0000
  Fe  Fe243     1.0  0.68871  0.58938  0.82040  1.0000
  H   H2871     1.0  0.88458  0.68775  0.93656  1.0000
  S   S484      1.0  0.72706  0.55495  0.84372  1.0000
  S   S485      1.0  0.68393  0.55881  0.82700  1.0000
  H   H2872     1.0  0.91611  0.51574  0.76839  1.0000
  Fe  Fe244     1.0  0.89391  0.63195  0.88613  1.0000
  S   S486      1.0  0.91241  0.61343  0.90736  1.0000
  S   S487      1.0  0.91003  0.65787  0.87499  1.0000
  Fe  Fe245     1.0  0.86378  0.60264  0.88712  1.0000
  S   S488      1.0  0.88134  0.58274  0.90811  1.0000
  S   S489      1.0  0.83574  0.59028  0.87897  1.0000
  Fe  Fe246     1.0  0.88702  0.60743  0.92832  1.0000
  S   S490      1.0  0.88353  0.60703  0.96643  1.0000
  Fe  Fe247     1.0  0.90553  0.59015  0.88557  1.0000
  S   S491      1.0  0.93020  0.57048  0.87409  1.0000
  S   S492      1.0  0.86854  0.62717  0.90814  1.0000
  S   S493      1.0  0.88792  0.60877  0.86368  1.0000
  H   H2873     1.0  0.92384  0.68675  0.96240  1.0000
  H   H2874     1.0  0.96190  0.63740  0.81534  1.0000
  S   S494      1.0  0.96597  0.52772  0.79063  1.0000
  C   C1678     1.0  0.93942  0.55811  0.85082  1.0000
  C   C1679     1.0  0.95685  0.54847  0.85216  1.0000
  C   C1680     1.0  0.96512  0.53905  0.83415  1.0000
  C   C1681     1.0  0.95615  0.53911  0.81429  1.0000
  C   C1682     1.0  0.93870  0.54875  0.81293  1.0000
  C   C1683     1.0  0.93037  0.55806  0.83100  1.0000
  H   H2875     1.0  0.96406  0.54827  0.86731  1.0000
  H   H2876     1.0  0.97848  0.53176  0.83566  1.0000
  H   H2877     1.0  0.93154  0.54900  0.79776  1.0000
  H   H2878     1.0  0.91699  0.56533  0.82953  1.0000
  H   H2879     1.0  0.89967  0.51136  0.80182  1.0000
  H   H2880     1.0  0.67881  0.61469  0.76484  1.0000
  H   H2881     1.0  0.74337  0.63747  0.77807  1.0000
  H   H2882     1.0  0.93089  0.64369  0.82398  1.0000
  C   C1684     1.0  0.90244  0.71998  0.85249  1.0000
  C   C1685     1.0  0.88685  0.70941  0.85787  1.0000
  C   C1686     1.0  0.88880  0.69046  0.86463  1.0000
  C   C1687     1.0  0.90646  0.68168  0.86607  1.0000
  C   C1688     1.0  0.92206  0.69224  0.86074  1.0000
  C   C1689     1.0  0.92010  0.71120  0.85405  1.0000
  H   H2883     1.0  0.87311  0.71595  0.85677  1.0000
  H   H2884     1.0  0.87664  0.68266  0.86868  1.0000
  H   H2885     1.0  0.93581  0.68573  0.86184  1.0000
  H   H2886     1.0  0.93225  0.71903  0.85003  1.0000
  C   C1690     1.0  0.68686  0.67044  0.78398  1.0000
  C   C1691     1.0  0.77873  0.52854  0.78867  1.0000
  H   H2887     1.0  0.68749  0.53204  0.93381  1.0000
  H   H2888     1.0  0.96307  0.58868  0.85639  1.0000
  C   C1692     1.0  0.76963  0.52190  0.83484  1.0000
  C   C1693     1.0  0.77728  0.59935  0.84949  1.0000
  C   C1694     1.0  0.78228  0.58297  0.86119  1.0000
  C   C1695     1.0  0.80014  0.58053  0.87003  1.0000
  C   C1696     1.0  0.81328  0.59442  0.86756  1.0000
  C   C1697     1.0  0.80823  0.61082  0.85592  1.0000
  C   C1698     1.0  0.79043  0.61321  0.84692  1.0000
  H   H2889     1.0  0.77238  0.57222  0.86355  1.0000
  H   H2890     1.0  0.80378  0.56781  0.87905  1.0000
  H   H2891     1.0  0.81808  0.62165  0.85379  1.0000
  H   H2892     1.0  0.78683  0.62595  0.83794  1.0000
  C   C1699     1.0  0.96642  0.60362  0.85623  1.0000
  C   C1700     1.0  0.67887  0.55548  0.91333  1.0000
  H   H2893     1.0  0.79831  0.52649  0.82725  1.0000
  H   H2894     1.0  0.69792  0.68023  0.77975  1.0000
  H   H2895     1.0  0.98175  0.60378  0.85351  1.0000
  H   H2896     1.0  0.71019  0.65917  0.84878  1.0000
  C   C1701     1.0  0.80074  0.55223  0.79748  1.0000
  H   H2897     1.0  0.69052  0.51235  0.80046  1.0000
  H   H2898     1.0  0.80103  0.55787  0.78056  1.0000
  H   H2899     1.0  0.68444  0.66174  0.76989  1.0000
  H   H2900     1.0  0.99473  0.72748  0.76461  1.0000
  H   H2901     1.0  0.81008  0.56271  0.82848  1.0000
  H   H2902     1.0  0.97743  0.64623  0.85869  1.0000
  C   C1702     1.0  0.89014  0.60899  0.99443  1.0000
  H   H2903     1.0  0.86683  0.64686  0.96759  1.0000
  C   C1703     1.0  0.80647  0.56796  0.81192  1.0000
  H   H2904     1.0  0.76544  0.58683  0.79284  1.0000
  C   C1704     1.0  0.66826  0.55045  0.95123  1.0000
  H   H2905     1.0  0.66793  0.58050  0.89748  1.0000
  H   H2906     1.0  0.98623  0.60345  0.80748  1.0000
  C   C1705     1.0  0.69108  0.65837  0.80461  1.0000
  C   C1706     1.0  0.67906  0.54484  0.93292  1.0000
  H   H2907     1.0  0.92346  0.62239  0.81252  1.0000
  C   C1707     1.0  0.93501  0.64441  0.94863  1.0000
  H   H2908     1.0  0.79562  0.57930  0.81314  1.0000
  H   H2909     1.0  0.69719  0.55447  0.98680  1.0000
  H   H2910     1.0  0.75317  0.55077  0.80632  1.0000
  S   S495      1.0  0.89891  0.74390  0.84388  1.0000
  H   H2911     1.0  0.68829  0.66766  0.81856  1.0000
  C   C1708     1.0  0.93645  0.61838  0.84454  1.0000
  H   H2912     1.0  0.99397  0.51702  0.66813  1.0000
  H   H2913     1.0  0.95140  0.60967  0.80404  1.0000
  H   H2914     1.0  0.95246  0.64891  0.85712  1.0000
  C   C1709     1.0  0.99787  0.51379  0.68506  1.0000
  C   C1710     1.0  0.87394  0.65904  0.96026  1.0000
  C   C1711     1.0  0.96212  0.60978  0.87970  1.0000
  H   H2915     1.0  0.66796  0.62794  0.67149  1.0000
  H   H2916     1.0  0.75550  0.52784  0.83193  1.0000
  H   H2917     1.0  0.94134  0.65004  0.96302  1.0000
  H   H2918     1.0  0.96646  0.66103  0.83822  1.0000
  C   C1712     1.0  0.89354  0.65265  0.95198  1.0000
  C   C1713     1.0  0.76650  0.55788  0.80518  1.0000
  H   H2919     1.0  0.77129  0.50814  0.82724  1.0000
  C   C1714     1.0  0.78495  0.53486  0.82646  1.0000
  H   H2920     1.0  0.81914  0.57421  0.80466  1.0000
  H   H2921     1.0  0.89910  0.64277  0.96451  1.0000
  C   C1715     1.0  0.70444  0.64533  0.84707  1.0000
  H   H2922     1.0  0.81223  0.54135  0.79755  1.0000
  H   H2923     1.0  0.90025  0.70594  0.90943  1.0000
  H   H2924     1.0  0.89967  0.68981  0.96863  1.0000
  H   H2925     1.0  0.68905  0.64662  0.84863  1.0000
  H   H2926     1.0  0.98158  0.62816  0.82825  1.0000
  H   H2927     1.0  0.92658  0.63234  0.95322  1.0000
  C   C1716     1.0  0.76488  0.57267  0.78635  1.0000
  H   H2928     1.0  0.98123  0.58284  0.82410  1.0000
  H   H2929     1.0  0.67372  0.67879  0.78685  1.0000
  C   C1717     1.0  0.77634  0.53422  0.76452  1.0000
  H   H2930     1.0  0.92090  0.65360  0.91981  1.0000
  H   H2931     1.0  0.86534  0.66448  0.94663  1.0000
  H   H2932     1.0  0.92930  0.60518  0.84804  1.0000
  C   C1718     1.0  0.90915  0.69652  0.91977  1.0000
  C   C1719     1.0  0.69812  0.50453  0.78808  1.0000
  H   H2933     1.0  0.70926  0.63619  0.86087  1.0000
  H   H2934     1.0  0.78996  0.51741  0.78941  1.0000
  H   H2935     1.0  0.93423  0.67055  0.93160  1.0000
  H   H2936     1.0  0.71838  0.67661  0.81445  1.0000
  H   H2937     1.0  0.76671  0.56567  0.82051  1.0000
  C   C1720     1.0  0.96565  0.64757  0.84750  1.0000
  C   C1721     1.0  0.91098  0.67903  0.96572  1.0000
  C   C1722     1.0  0.95676  0.60194  0.81865  1.0000
  C   C1723     1.0  0.96655  0.63157  0.83137  1.0000
  N   N122      1.0  0.95655  0.61426  0.83809  1.0000
  H   H2938     1.0  0.94806  0.60573  0.88526  1.0000
  H   H2939     1.0  0.97196  0.60228  0.89078  1.0000
  N   N123      1.0  0.71032  0.64922  0.80555  1.0000
  C   C1724     1.0  0.92504  0.62995  0.82769  1.0000
  C   C1725     1.0  0.71061  0.63637  0.82540  1.0000
  C   C1726     1.0  0.71338  0.63769  0.78560  1.0000
  C   C1727     1.0  0.72437  0.66411  0.80612  1.0000
  H   H2940     1.0  0.91871  0.61480  0.98730  1.0000
  H   H2941     1.0  0.91477  0.70504  0.93247  1.0000
  C   C1728     1.0  0.73251  0.62755  0.78274  1.0000
  C   C1729     1.0  0.74276  0.65891  0.81760  1.0000
  H   H2942     1.0  0.66793  0.63545  0.73431  1.0000
  H   H2943     1.0  0.92057  0.69112  0.90889  1.0000
  H   H2944     1.0  0.72451  0.62956  0.82775  1.0000
  H   H2945     1.0  0.70132  0.62470  0.82326  1.0000
  H   H2946     1.0  0.70271  0.62702  0.78534  1.0000
  H   H2947     1.0  0.71175  0.64632  0.77042  1.0000
  H   H2948     1.0  0.72809  0.66918  0.78929  1.0000
  C   C1730     1.0  0.71466  0.51120  0.77897  1.0000
  C   C1731     1.0  0.97580  0.59298  0.81162  1.0000
  C   C1732     1.0  0.89736  0.68074  0.92954  1.0000
  H   H2949     1.0  0.96342  0.62479  0.88180  1.0000
  H   H2950     1.0  0.73660  0.61905  0.79725  1.0000
  Fe  Fe248     1.0  0.99059  0.50829  0.77823  1.0000
  H   H2951     1.0  0.94732  0.59030  0.82176  1.0000
  H   H2952     1.0  0.93481  0.62585  0.85998  1.0000
  H   H2953     1.0  0.73200  0.61784  0.76914  1.0000
  H   H2954     1.0  0.94005  0.52607  0.74693  1.0000
  H   H2955     1.0  0.74060  0.65718  0.83548  1.0000
  H   H2956     1.0  0.75239  0.67040  0.81480  1.0000
  H   H2957     1.0  0.75002  0.64618  0.81154  1.0000
  H   H2958     1.0  0.77538  0.57139  0.77300  1.0000
  H   H2959     1.0  0.75115  0.57196  0.77884  1.0000
  N   N124      1.0  0.78255  0.54374  0.80399  1.0000
  N   N125      1.0  0.90663  0.66791  0.94628  1.0000
  C   C1733     1.0  0.92413  0.65966  0.93561  1.0000
  S   S496      1.0  0.99545  0.50983  0.74162  1.0000
  H   H2960     1.0  0.78849  0.54106  0.75699  1.0000
  H   H2961     1.0  0.77463  0.52145  0.75529  1.0000
  H   H2962     1.0  0.78578  0.54565  0.83890  1.0000
  H   H2963     1.0  0.89270  0.67271  0.91568  1.0000
  H   H2964     1.0  0.89188  0.64398  0.93762  1.0000
  C   C1734     1.0  0.91309  0.66823  0.98780  1.0000
  H   H2965     1.0  0.94670  0.63893  0.93812  1.0000
  H   H2966     1.0  0.91082  0.63282  0.83462  1.0000
  C   C1735     1.0  0.66817  0.57216  0.91245  1.0000
  H   H2967     1.0  0.76560  0.52177  0.79356  1.0000
  C   C1736     1.0  0.69697  0.56969  0.98900  1.0000
  H   H2968     1.0  0.69045  0.57626  0.97436  1.0000
  H   H2969     1.0  0.91792  0.65353  0.98683  1.0000
  H   H2970     1.0  0.93273  0.50891  0.78809  1.0000
  H   H2971     1.0  0.97408  0.58494  0.79676  1.0000
  H   H2972     1.0  0.76341  0.54287  0.76219  1.0000
  H   H2973     1.0  0.68032  0.64779  0.80626  1.0000
  H   H2974     1.0  0.82822  0.74457  0.78524  1.0000
  H   H2975     1.0  0.73710  0.50573  0.75567  1.0000
  H   H2976     1.0  0.71135  0.57445  0.98913  1.0000
  H   H2977     1.0  0.95325  0.51574  0.72513  1.0000
  C   C1737     1.0  0.94137  0.51359  0.73679  1.0000
  H   H2978     1.0  0.99482  0.52691  0.69376  1.0000
  H   H2979     1.0  0.66854  0.54213  0.96619  1.0000
  C   C1738     1.0  0.90818  0.61308  0.00002  1.0000
  H   H2980     1.0  0.87428  0.66957  0.97292  1.0000
  H   H2981     1.0  0.92877  0.51261  0.72719  1.0000
  H   H2982     1.0  0.77079  0.51941  0.85269  1.0000
  H   H2983     1.0  0.98863  0.50315  0.69226  1.0000
  H   H2984     1.0  0.92342  0.67508  0.99746  1.0000
  C   C1739     1.0  0.92155  0.50359  0.77825  1.0000
  H   H2985     1.0  0.89992  0.66916  0.99768  1.0000
  H   H2986     1.0  0.89379  0.99056  0.46815  1.0000
  S   S497      1.0  0.97741  0.88082  0.03900  1.0000
  N   N126      1.0  0.92076  0.77665  0.11408  1.0000
  S   S498      1.0  0.93746  0.86441  0.02629  1.0000
  Fe  Fe249     1.0  0.95068  0.89214  0.02482  1.0000
  S   S499      1.0  0.93499  0.91696  0.03948  1.0000
  Fe  Fe250     1.0  0.96495  0.85286  0.03791  1.0000
  S   S500      1.0  0.97026  0.82999  0.06395  1.0000
  H   H2987     1.0  0.92741  0.79574  0.31521  1.0000
  H   H2988     1.0  0.90698  0.80021  0.29906  1.0000
  S   S501      1.0  0.85145  0.94445  0.47304  1.0000
  H   H2989     1.0  0.97545  0.83235  0.27592  1.0000
  H   H2990     1.0  0.76257  0.94914  0.31625  1.0000
  Fe  Fe251     1.0  0.90657  0.80205  0.22861  1.0000
  S   S502      1.0  0.93455  0.81399  0.22210  1.0000
  S   S503      1.0  0.88666  0.81282  0.25611  1.0000
  Fe  Fe252     1.0  0.91643  0.76869  0.19749  1.0000
  S   S504      1.0  0.94526  0.77885  0.18995  1.0000
  Fe  Fe253     1.0  0.94638  0.78468  0.22595  1.0000
  S   S505      1.0  0.96748  0.77584  0.25199  1.0000
  Fe  Fe254     1.0  0.93109  0.80731  0.18687  1.0000
  S   S506      1.0  0.93363  0.82987  0.16001  1.0000
  S   S507      1.0  0.91839  0.77268  0.23359  1.0000
  S   S508      1.0  0.90227  0.79720  0.19323  1.0000
  Fe  Fe255     1.0  0.82754  0.91853  0.34926  1.0000
  S   S509      1.0  0.81902  0.89131  0.33626  1.0000
  S   S510      1.0  0.84996  0.91819  0.37479  1.0000
  Fe  Fe256     1.0  0.80641  0.94171  0.31456  1.0000
  S   S511      1.0  0.79682  0.91613  0.29927  1.0000
  S   S512      1.0  0.79495  0.97074  0.30381  1.0000
  Fe  Fe257     1.0  0.79035  0.90528  0.33337  1.0000
  S   S513      1.0  0.76357  0.88879  0.33650  1.0000
  Fe  Fe258     1.0  0.82586  0.90374  0.30315  1.0000
  S   S514      1.0  0.84011  0.88932  0.27372  1.0000
  S   S515      1.0  0.79848  0.93156  0.34879  1.0000
  S   S516      1.0  0.83591  0.93034  0.31602  1.0000
  S   S517      1.0  0.68344  0.89889  0.38498  1.0000
  C   C1740     1.0  0.80329  0.98568  0.28230  1.0000
  H   H2991     1.0  0.80155  0.87776  0.26351  1.0000
  C   C1741     1.0  0.75663  0.96483  0.34466  1.0000
  H   H2992     1.0  0.82616  0.96754  0.27194  1.0000
  H   H2993     1.0  0.86720  0.96479  0.40080  1.0000
  C   C1742     1.0  0.74187  0.89087  0.35152  1.0000
  C   C1743     1.0  0.73823  0.90428  0.36722  1.0000
  C   C1744     1.0  0.72046  0.90614  0.37759  1.0000
  C   C1745     1.0  0.70603  0.89459  0.37263  1.0000
  C   C1746     1.0  0.70979  0.88094  0.35721  1.0000
  C   C1747     1.0  0.72754  0.87914  0.34673  1.0000
  H   H2994     1.0  0.74908  0.91326  0.37140  1.0000
  H   H2995     1.0  0.71782  0.91668  0.38957  1.0000
  H   H2996     1.0  0.69891  0.87195  0.35311  1.0000
  H   H2997     1.0  0.73009  0.86869  0.33465  1.0000
  C   C1748     1.0  0.87447  0.83457  0.26082  1.0000
  C   C1749     1.0  0.86679  0.83801  0.28179  1.0000
  C   C1750     1.0  0.85672  0.85484  0.28627  1.0000
  C   C1751     1.0  0.85389  0.86838  0.26969  1.0000
  C   C1752     1.0  0.86166  0.86496  0.24879  1.0000
  C   C1753     1.0  0.87201  0.84829  0.24441  1.0000
  H   H2998     1.0  0.86862  0.82756  0.29466  1.0000
  H   H2999     1.0  0.85096  0.85724  0.30245  1.0000
  H   H3000     1.0  0.85960  0.87529  0.23581  1.0000
  H   H3001     1.0  0.87779  0.84594  0.22821  1.0000
  C   C1754     1.0  0.85098  0.93613  0.44614  1.0000
  C   C1755     1.0  0.83472  0.93915  0.43424  1.0000
  C   C1756     1.0  0.83405  0.93367  0.41246  1.0000
  C   C1757     1.0  0.84968  0.92510  0.40232  1.0000
  C   C1758     1.0  0.86594  0.92211  0.41423  1.0000
  C   C1759     1.0  0.86658  0.92752  0.43601  1.0000
  H   H3002     1.0  0.82257  0.94582  0.44190  1.0000
  H   H3003     1.0  0.82146  0.93606  0.40353  1.0000
  H   H3004     1.0  0.87809  0.91544  0.40657  1.0000
  H   H3005     1.0  0.87914  0.92497  0.44497  1.0000
  C   C1760     1.0  0.96037  0.83037  0.09077  1.0000
  C   C1761     1.0  0.96566  0.81631  0.10607  1.0000
  C   C1762     1.0  0.95774  0.81594  0.12739  1.0000
  C   C1763     1.0  0.94439  0.82964  0.13358  1.0000
  C   C1764     1.0  0.93927  0.84376  0.11831  1.0000
  C   C1765     1.0  0.94717  0.84413  0.09703  1.0000
  H   H3006     1.0  0.97594  0.80566  0.10142  1.0000
  H   H3007     1.0  0.96205  0.80519  0.13909  1.0000
  H   H3008     1.0  0.92908  0.85450  0.12298  1.0000
  H   H3009     1.0  0.94301  0.85507  0.08547  1.0000
  C   C1766     1.0  0.93122  0.93824  0.02489  1.0000
  C   C1767     1.0  0.92053  0.95261  0.03475  1.0000
  C   C1768     1.0  0.91614  0.96930  0.02313  1.0000
  H   H3010     1.0  0.91541  0.95072  0.05139  1.0000
  H   H3011     1.0  0.90772  0.98020  0.03080  1.0000
  H   H3012     1.0  0.99549  0.89392  0.46339  1.0000
  H   H3013     1.0  0.69217  0.94321  0.35566  1.0000
  C   C1769     1.0  0.93901  0.76611  0.11797  1.0000
  H   H3014     1.0  0.96588  0.98876  0.04450  1.0000
  C   C1770     1.0  0.74318  0.92826  0.28967  1.0000
  C   C1771     1.0  0.89499  0.97093  0.43020  1.0000
  C   C1772     1.0  0.88703  0.89156  0.02757  1.0000
  H   H3015     1.0  0.92007  0.75485  0.07948  1.0000
  Fe  Fe259     1.0  0.87630  0.94345  0.49524  1.0000
  H   H3016     1.0  0.74787  0.96520  0.35982  1.0000
  H   H3017     1.0  0.99461  0.79877  0.22820  1.0000
  H   H3018     1.0  0.87642  0.97447  0.46765  1.0000
  H   H3019     1.0  0.91133  0.77785  0.14794  1.0000
  H   H3020     1.0  0.92634  0.85993  0.31531  1.0000
  H   H3021     1.0  0.70181  0.92512  0.33935  1.0000
  H   H3022     1.0  0.90348  0.78384  0.07072  1.0000
  H   H3023     1.0  0.90982  0.82982  0.30853  1.0000
  C   C1773     1.0  0.71977  0.94878  0.34233  1.0000
  C   C1774     1.0  0.98910  0.78466  0.25895  1.0000
  C   C1775     1.0  0.98647  0.88584  0.45350  1.0000
  C   C1776     1.0  0.71075  0.96681  0.29621  1.0000
  H   H3024     1.0  0.98643  0.85945  0.43871  1.0000
  H   H3025     1.0  0.85689  0.97229  0.43756  1.0000
  C   C1777     1.0  0.70056  0.94048  0.34050  1.0000
  C   C1778     1.0  0.90001  0.80245  0.13217  1.0000
  H   H3026     1.0  0.84735  0.98015  0.39912  1.0000
  H   H3027     1.0  0.77125  0.96315  0.34972  1.0000
  C   C1779     1.0  0.88046  0.98817  0.46058  1.0000
  H   H3028     1.0  0.90425  0.81420  0.12127  1.0000
  H   H3029     1.0  0.89702  0.80855  0.14831  1.0000
  H   H3030     1.0  0.97534  0.81889  0.32045  1.0000
  H   H3031     1.0  0.72982  0.97802  0.31718  1.0000
  H   H3032     1.0  0.69266  0.94655  0.32673  1.0000
  N   N127      1.0  0.79337  0.84335  0.30013  1.0000
  C   C1780     1.0  0.80619  0.83624  0.31786  1.0000
  C   C1781     1.0  0.79745  0.83127  0.28081  1.0000
  C   C1782     1.0  0.79704  0.86353  0.29524  1.0000
  C   C1783     1.0  0.80181  0.84351  0.34090  1.0000
  C   C1784     1.0  0.81722  0.83226  0.27059  1.0000
  H   H3033     1.0  0.80635  0.82078  0.31949  1.0000
  H   H3034     1.0  0.82081  0.83969  0.31371  1.0000
  H   H3035     1.0  0.79523  0.81643  0.28543  1.0000
  H   H3036     1.0  0.79121  0.87223  0.30859  1.0000
  H   H3037     1.0  0.81221  0.86578  0.29510  1.0000
  H   H3038     1.0  0.81411  0.84087  0.35114  1.0000
  H   H3039     1.0  0.79830  0.85861  0.34082  1.0000
  H   H3040     1.0  0.79018  0.83608  0.34900  1.0000
  H   H3041     1.0  0.81829  0.82390  0.25572  1.0000
  H   H3042     1.0  0.82062  0.84665  0.26553  1.0000
  H   H3043     1.0  0.82787  0.82626  0.28171  1.0000
  C   C1785     1.0  0.90749  0.79553  0.08056  1.0000
  H   H3044     1.0  0.89517  0.80085  0.08995  1.0000
  C   C1786     1.0  0.85872  0.99916  0.16874  1.0000
  H   H3045     1.0  0.86976  0.98913  0.39292  1.0000
  H   H3046     1.0  0.93632  0.84099  0.25823  1.0000
  H   H3047     1.0  0.90045  0.88352  0.02643  1.0000
  C   C1787     1.0  0.91719  0.85778  0.30158  1.0000
  H   H3048     1.0  0.91161  0.80685  0.06889  1.0000
  H   H3049     1.0  0.72619  0.94108  0.35639  1.0000
  H   H3050     1.0  0.95308  0.84134  0.31326  1.0000
  C   C1788     1.0  0.92201  0.79608  0.29857  1.0000
  H   H3051     1.0  0.85121  0.97790  0.19305  1.0000
  C   C1789     1.0  0.86323  0.98387  0.42801  1.0000
  C   C1790     1.0  0.91569  0.78735  0.13428  1.0000
  H   H3052     1.0  0.77169  0.82624  0.31364  1.0000
  H   H3053     1.0  0.94410  0.75865  0.10322  1.0000
  H   H3054     1.0  0.90860  0.83681  0.28062  1.0000
  H   H3055     1.0  0.96908  0.80731  0.29704  1.0000
  H   H3056     1.0  0.96420  0.81759  0.25731  1.0000
  H   H3057     1.0  0.96908  0.84077  0.24962  1.0000
  H   H3058     1.0  0.92268  0.98246  0.42663  1.0000
  H   H3059     1.0  0.88357  0.94799  0.00774  1.0000
  H   H3060     1.0  0.93615  0.75815  0.15281  1.0000
  C   C1791     1.0  0.96351  0.81273  0.31261  1.0000
  H   H3061     1.0  0.93794  0.82491  0.32539  1.0000
  H   H3062     1.0  0.78779  0.83430  0.26747  1.0000
  C   C1792     1.0  0.72939  0.96514  0.30779  1.0000
  C   C1793     1.0  0.81880  0.98078  0.26910  1.0000
  H   H3063     1.0  0.87569  0.88319  0.02203  1.0000
  C   C1794     1.0  0.77365  0.84101  0.30843  1.0000
  H   H3064     1.0  0.73988  0.93938  0.27733  1.0000
  H   H3065     1.0  0.71248  0.97537  0.28097  1.0000
  C   C1795     1.0  0.78979  0.87237  0.27363  1.0000
  H   H3066     1.0  0.77052  0.84936  0.32311  1.0000
  H   H3067     1.0  0.93013  0.80285  0.10024  1.0000
  H   H3068     1.0  0.71673  0.92815  0.30610  1.0000
  H   H3069     1.0  0.98670  0.84979  0.47650  1.0000
  S   S518      1.0  0.90596  0.94202  0.48292  1.0000
  C   C1796     1.0  0.86213  0.97931  0.40375  1.0000
  H   H3070     1.0  0.78218  0.86322  0.26346  1.0000
  C   C1797     1.0  0.92419  0.78987  0.09481  1.0000
  C   C1798     1.0  0.99976  0.79523  0.24420  1.0000
  H   H3071     1.0  0.92794  0.79425  0.14018  1.0000
  H   H3072     1.0  0.94502  0.99539  0.03103  1.0000
  H   H3073     1.0  0.78028  0.88453  0.27719  1.0000
  H   H3074     1.0  0.91698  0.97369  0.45400  1.0000
  H   H3075     1.0  0.74455  0.84332  0.30086  1.0000
  C   C1799     1.0  0.75802  0.84691  0.29287  1.0000
  H   H3076     1.0  0.75713  0.86218  0.29002  1.0000
  H   H3077     1.0  0.90283  0.86217  0.30695  1.0000
  N   N128      1.0  0.73275  0.94824  0.32247  1.0000
  H   H3078     1.0  0.75901  0.83961  0.27731  1.0000
  H   H3079     1.0  0.94595  0.80101  0.27817  1.0000
  H   H3080     1.0  0.85701  0.99912  0.20475  1.0000
  C   C1800     1.0  0.90578  0.76337  0.11033  1.0000
  H   H3081     1.0  0.88950  0.95790  0.43764  1.0000
  H   H3082     1.0  0.92517  0.80984  0.26728  1.0000
  C   C1801     1.0  0.96461  0.83173  0.26364  1.0000
  H   H3083     1.0  0.97542  0.87984  0.46424  1.0000
  H   H3084     1.0  0.87511  0.91859  0.02031  1.0000
  H   H3085     1.0  0.90246  0.75512  0.12552  1.0000
  H   H3086     1.0  0.92315  0.78167  0.29261  1.0000
  C   C1802     1.0  0.93293  0.80880  0.28261  1.0000
  C   C1803     1.0  0.94556  0.83920  0.27240  1.0000
  H   H3087     1.0  0.73471  0.91829  0.32174  1.0000
  H   H3088     1.0  0.74036  0.91481  0.28242  1.0000
  H   H3089     1.0  0.93505  0.78413  0.08324  1.0000
  C   C1804     1.0  0.94729  0.82752  0.31090  1.0000
  H   H3090     1.0  0.99824  0.87645  0.42265  1.0000
  H   H3091     1.0  0.94800  0.85344  0.27772  1.0000
  N   N129      1.0  0.93625  0.82794  0.29045  1.0000
  C   C1805     1.0  0.75239  0.94850  0.33020  1.0000
  H   H3092     1.0  0.88694  0.79672  0.12699  1.0000
  H   H3093     1.0  0.92082  0.86711  0.28751  1.0000
  C   C1806     1.0  0.91741  0.83727  0.29509  1.0000
  H   H3094     1.0  0.75818  0.92775  0.29286  1.0000
  H   H3095     1.0  0.71728  0.96328  0.34779  1.0000
  H   H3096     1.0  0.75553  0.97839  0.33565  1.0000
  H   H3097     1.0  0.95948  0.80089  0.32352  1.0000
  N   N130      1.0  0.88229  0.98734  0.43611  1.0000
  H   H3098     1.0  0.99586  0.97118  0.48780  1.0000
  H   H3099     1.0  0.74088  0.96675  0.29536  1.0000
  H   H3100     1.0  0.96915  0.96459  0.02259  1.0000
  H   H3101     1.0  0.83674  0.98894  0.24198  1.0000
  H   H3102     1.0  0.85355  0.99613  0.43054  1.0000
  H   H3103     1.0  0.70595  0.95342  0.29085  1.0000
  H   H3104     1.0  0.75612  0.93539  0.33952  1.0000
  H   H3105     1.0  0.89566  0.96902  0.41234  1.0000
  C   C1807     1.0  0.73113  0.93036  0.31072  1.0000
  C   C1808     1.0  0.91540  0.97167  0.43645  1.0000
  H   H3106     1.0  0.89925  0.91807  0.02211  1.0000
  H   H3107     1.0  0.69978  0.97360  0.30672  1.0000
  H   H3108     1.0  0.92264  0.95814  0.43280  1.0000
  H   H3109     1.0  0.83488  0.99720  0.19230  1.0000
  S   S519      1.0  0.97590  0.84743  0.00377  1.0000
  H   H3110     1.0  0.97909  0.89606  0.44255  1.0000
  H   H3111     1.0  0.98795  0.77209  0.29127  1.0000
  C   C1809     1.0  0.82476  0.99297  0.25208  1.0000
  H   H3112     1.0  0.89228  0.77077  0.10706  1.0000
  C   C1810     1.0  0.97954  0.97116  0.01141  1.0000
  H   H3113     1.0  0.88430  0.89399  0.04516  1.0000
  H   H3114     1.0  0.85195  0.99164  0.15586  1.0000
  S   S520      1.0  0.92871  0.98877  0.49410  1.0000
  C   C1811     1.0  0.99651  0.87064  0.43957  1.0000
  C   C1812     1.0  0.84989  0.99327  0.19099  1.0000
  C   C1813     1.0  0.88784  0.91050  0.01525  1.0000
  H   H3115     1.0  0.87330  0.99339  0.16862  1.0000
  C   C1814     1.0  0.95871  0.00048  0.03549  1.0000
  C   C1815     1.0  0.99610  0.78021  0.27969  1.0000
  H   H3116     1.0  0.99248  0.97317  0.02007  1.0000
  Fe  Fe260     1.0  0.98637  0.87638  0.00420  1.0000
  H   H3117     1.0  0.95002  0.77601  0.12097  1.0000
  C   C1816     1.0  0.93781  0.94079  0.00341  1.0000
  H   H3118     1.0  0.85173  0.99840  0.46751  1.0000
  H   H3119     1.0  0.98591  0.93406  0.49978  1.0000
  C   C1817     1.0  0.93916  0.75163  0.13701  1.0000
  C   C1818     1.0  0.87545  0.89944  0.98066  1.0000
  S   S521      1.0  0.92987  0.85079  0.96690  1.0000
  H   H3120     1.0  0.92755  0.88281  0.80830  1.0000
  Fe  Fe261     1.0  0.93988  0.80051  0.85023  1.0000
  S   S522      1.0  0.90937  0.79629  0.84894  1.0000
  S   S523      1.0  0.95565  0.81364  0.87710  1.0000
  Fe  Fe262     1.0  0.94756  0.78618  0.80437  1.0000
  S   S524      1.0  0.91715  0.78096  0.79990  1.0000
  S   S525      1.0  0.96833  0.78020  0.77605  1.0000
  Fe  Fe263     1.0  0.91107  0.80883  0.81475  1.0000
  S   S526      1.0  0.88844  0.83178  0.80764  1.0000
  Fe  Fe264     1.0  0.91738  0.76853  0.83423  1.0000
  S   S527      1.0  0.94135  0.81473  0.81698  1.0000
  S   S528      1.0  0.94810  0.77200  0.83771  1.0000
  Fe  Fe265     1.0  0.82473  0.89051  0.71788  1.0000
  S   S529      1.0  0.83464  0.91848  0.70622  1.0000
  S   S530      1.0  0.84614  0.86612  0.72405  1.0000
  Fe  Fe266     1.0  0.78324  0.90262  0.70790  1.0000
  S   S531      1.0  0.79097  0.93129  0.69623  1.0000
  S   S532      1.0  0.75315  0.89286  0.71115  1.0000
  Fe  Fe267     1.0  0.81518  0.91674  0.67858  1.0000
  S   S533      1.0  0.82027  0.91877  0.64177  1.0000
  Fe  Fe268     1.0  0.80971  0.93077  0.72500  1.0000
  S   S534      1.0  0.81343  0.95233  0.75111  1.0000
  S   S535      1.0  0.80649  0.88810  0.68906  1.0000
  S   S536      1.0  0.80071  0.90270  0.73793  1.0000
  C   C1819     1.0  0.92252  0.99092  0.55881  1.0000
  S   S537      1.0  0.91741  0.94731  0.53352  1.0000
  C   C1820     1.0  0.83831  0.77182  0.77634  1.0000
  H   H3121     1.0  0.82251  0.97415  0.78703  1.0000
  H   H3122     1.0  0.75402  0.95958  0.68755  1.0000
  Fe  Fe269     1.0  0.88698  0.94839  0.54282  1.0000
  S   S538      1.0  0.88128  0.95544  0.57846  1.0000
  S   S539      1.0  0.88113  0.92329  0.52374  1.0000
  S   S540      1.0  0.68361  0.89337  0.64772  1.0000
  C   C1821     1.0  0.80698  0.97578  0.75765  1.0000
  S   S541      1.0  0.96053  0.88981  0.98998  1.0000
  H   H3123     1.0  0.89949  0.84663  0.64850  1.0000
  C   C1822     1.0  0.68676  0.87771  0.52803  1.0000
  C   C1823     1.0  0.84494  0.80381  0.76570  1.0000
  H   H3124     1.0  0.78069  0.94177  0.77756  1.0000
  H   H3125     1.0  0.79051  0.98226  0.72967  1.0000
  C   C1824     1.0  0.73413  0.89295  0.69302  1.0000
  C   C1825     1.0  0.73470  0.90167  0.67231  1.0000
  C   C1826     1.0  0.71916  0.90163  0.65883  1.0000
  C   C1827     1.0  0.70279  0.89282  0.66567  1.0000
  C   C1828     1.0  0.70221  0.88414  0.68641  1.0000
  C   C1829     1.0  0.71771  0.88429  0.69995  1.0000
  H   H3126     1.0  0.74712  0.90843  0.66663  1.0000
  H   H3127     1.0  0.71987  0.90843  0.64289  1.0000
  H   H3128     1.0  0.68983  0.87730  0.69202  1.0000
  H   H3129     1.0  0.71701  0.87748  0.71588  1.0000
  C   C1830     1.0  0.83711  0.92961  0.62459  1.0000
  C   C1831     1.0  0.84975  0.94173  0.63239  1.0000
  C   C1832     1.0  0.86317  0.94956  0.61805  1.0000
  C   C1833     1.0  0.86417  0.94525  0.59586  1.0000
  C   C1834     1.0  0.85160  0.93305  0.58813  1.0000
  C   C1835     1.0  0.83809  0.92538  0.60240  1.0000
  H   H3130     1.0  0.84916  0.94510  0.64942  1.0000
  H   H3131     1.0  0.87283  0.95899  0.62417  1.0000
  H   H3132     1.0  0.85218  0.92964  0.57110  1.0000
  H   H3133     1.0  0.82837  0.91604  0.59620  1.0000
  C   C1836     1.0  0.87778  0.84191  0.78392  1.0000
  C   C1837     1.0  0.88267  0.83631  0.76283  1.0000
  C   C1838     1.0  0.87304  0.84409  0.74477  1.0000
  C   C1839     1.0  0.85849  0.85766  0.74742  1.0000
  C   C1840     1.0  0.85385  0.86348  0.76849  1.0000
  C   C1841     1.0  0.86341  0.85565  0.78655  1.0000
  H   H3134     1.0  0.89372  0.82584  0.76043  1.0000
  H   H3135     1.0  0.87686  0.83949  0.72860  1.0000
  H   H3136     1.0  0.84274  0.87388  0.77089  1.0000
  H   H3137     1.0  0.85948  0.86017  0.80272  1.0000
  C   C1842     1.0  0.93738  0.83963  0.94254  1.0000
  C   C1843     1.0  0.95601  0.83886  0.93544  1.0000
  C   C1844     1.0  0.96133  0.83049  0.91564  1.0000
  C   C1845     1.0  0.94817  0.82271  0.90270  1.0000
  C   C1846     1.0  0.92956  0.82318  0.90998  1.0000
  C   C1847     1.0  0.92420  0.83174  0.92969  1.0000
  H   H3138     1.0  0.96632  0.84485  0.94511  1.0000
  H   H3139     1.0  0.97577  0.83017  0.91023  1.0000
  H   H3140     1.0  0.91929  0.81711  0.90034  1.0000
  H   H3141     1.0  0.90977  0.83216  0.93508  1.0000
  C   C1848     1.0  0.95442  0.90114  0.51158  1.0000
  H   H3142     1.0  0.75312  0.98412  0.73921  1.0000
  H   H3143     1.0  0.87119  0.80070  0.79345  1.0000
  H   H3144     1.0  0.93815  0.95914  0.97496  1.0000
  H   H3145     1.0  0.72957  0.89352  0.58880  1.0000
  S   S542      1.0  0.87975  0.96869  0.51541  1.0000
  H   H3146     1.0  0.90505  0.86491  0.62901  1.0000
  C   C1849     1.0  0.83727  0.81558  0.81206  1.0000
  C   C1850     1.0  0.67402  0.89563  0.58532  1.0000
  H   H3147     1.0  0.89758  0.84327  0.62003  1.0000
  H   H3148     1.0  0.91727  0.91389  0.95475  1.0000
  H   H3149     1.0  0.99563  0.87681  0.51939  1.0000
  C   C1851     1.0  0.90877  0.89970  0.98596  1.0000
  C   C1852     1.0  0.98615  0.88836  0.51532  1.0000
  H   H3150     1.0  0.68413  0.92365  0.57703  1.0000
  C   C1853     1.0  0.91537  0.89971  0.96175  1.0000
  H   H3151     1.0  0.75525  0.97724  0.76736  1.0000
  N   N131      1.0  0.68646  0.88550  0.56900  1.0000
  H   H3152     1.0  0.87369  0.78002  0.77970  1.0000
  C   C1854     1.0  0.69442  0.85830  0.59640  1.0000
  H   H3153     1.0  0.87172  0.76117  0.81045  1.0000
  C   C1855     1.0  0.70597  0.89231  0.56772  1.0000
  H   H3154     1.0  0.70201  0.87889  0.52668  1.0000
  H   H3155     1.0  0.90606  0.89207  0.95164  1.0000
  H   H3156     1.0  0.70963  0.85983  0.59656  1.0000
  C   C1856     1.0  0.86466  0.78715  0.79216  1.0000
  H   H3157     1.0  0.87736  0.89983  0.96263  1.0000
  H   H3158     1.0  0.87661  0.88429  0.98493  1.0000
  H   H3159     1.0  0.93736  0.85972  0.80301  1.0000
  Fe  Fe270     1.0  0.94932  0.86113  0.99209  1.0000
  H   H3160     1.0  0.90773  0.91022  0.85879  1.0000
  H   H3161     1.0  0.94457  0.97736  0.53954  1.0000
  H   H3162     1.0  0.71562  0.88184  0.55986  1.0000
  H   H3163     1.0  0.70650  0.90507  0.55700  1.0000
  C   C1857     1.0  0.96687  0.88607  0.51622  1.0000
  H   H3164     1.0  0.82679  0.77468  0.76487  1.0000
  H   H3165     1.0  0.82962  0.78739  0.81564  1.0000
  C   C1858     1.0  0.71449  0.89747  0.58940  1.0000
  H   H3166     1.0  0.84957  0.76436  0.76680  1.0000
  C   C1859     1.0  0.79542  0.98733  0.74467  1.0000
  S   S543      1.0  0.91644  0.99188  0.98583  1.0000
  C   C1860     1.0  0.68650  0.86491  0.57437  1.0000
  H   H3167     1.0  0.71363  0.91275  0.59130  1.0000
  C   C1861     1.0  0.93325  0.95738  0.99170  1.0000
  H   H3168     1.0  0.90964  0.90412  0.83119  1.0000
  Fe  Fe271     1.0  0.91127  0.92378  0.51261  1.0000
  H   H3169     1.0  0.85032  0.81718  0.77054  1.0000
  C   C1862     1.0  0.74531  0.97958  0.75405  1.0000
  C   C1863     1.0  0.86771  0.77592  0.81367  1.0000
  H   H3170     1.0  0.81766  0.80001  0.79516  1.0000
  H   H3171     1.0  0.87978  0.95777  0.98126  1.0000
  S   S544      1.0  0.93029  0.89790  0.51273  1.0000
  H   H3172     1.0  0.68322  0.86288  0.52935  1.0000
  H   H3173     1.0  0.81739  0.76260  0.80088  1.0000
  C   C1864     1.0  0.99083  0.78904  0.77118  1.0000
  C   C1865     1.0  0.89544  0.85368  0.63291  1.0000
  H   H3174     1.0  0.92535  0.98622  0.60157  1.0000
  H   H3175     1.0  0.69488  0.85694  0.56208  1.0000
  H   H3176     1.0  0.96154  0.87266  0.52081  1.0000
  C   C1866     1.0  0.76623  0.93905  0.77335  1.0000
  C   C1867     1.0  0.81355  0.98290  0.77685  1.0000
  H   H3177     1.0  0.96273  0.87978  0.86781  1.0000
  H   H3178     1.0  0.85591  0.77644  0.82551  1.0000
  H   H3179     1.0  0.87151  0.79660  0.74833  1.0000
  H   H3180     1.0  0.87921  0.78182  0.82233  1.0000
  C   C1868     1.0  0.97154  0.98942  0.00085  1.0000
  H   H3181     1.0  0.76725  0.96434  0.71040  1.0000
  H   H3182     1.0  0.96095  0.85628  0.87898  1.0000
  N   N132      1.0  0.84503  0.78978  0.78454  1.0000
  H   H3183     1.0  0.89430  0.99093  0.58974  1.0000
  H   H3184     1.0  0.88827  0.92954  0.96328  1.0000
  C   C1869     1.0  0.94295  0.98911  0.55078  1.0000
  H   H3185     1.0  0.93868  0.89424  0.84144  1.0000
  Fe  Fe272     1.0  0.90971  0.96579  0.50492  1.0000
  H   H3186     1.0  0.73583  0.99143  0.75882  1.0000
  N   N133      1.0  0.92933  0.86696  0.85046  1.0000
  C   C1870     1.0  0.94937  0.86061  0.84624  1.0000
  C   C1871     1.0  0.91837  0.86078  0.83175  1.0000
  C   C1872     1.0  0.92277  0.85701  0.87108  1.0000
  C   C1873     1.0  0.92831  0.88776  0.85283  1.0000
  H   H3187     1.0  0.91853  0.97700  0.56539  1.0000
  C   C1874     1.0  0.92482  0.86781  0.80888  1.0000
  C   C1875     1.0  0.90243  0.86082  0.87854  1.0000
  C   C1876     1.0  0.90952  0.89812  0.84807  1.0000
  H   H3188     1.0  0.95056  0.84533  0.84391  1.0000
  C   C1877     1.0  0.99309  0.90563  0.50928  1.0000
  H   H3189     1.0  0.90341  0.86473  0.83351  1.0000
  H   H3190     1.0  0.91867  0.84535  0.83157  1.0000
  H   H3191     1.0  0.92476  0.84170  0.86932  1.0000
  H   H3192     1.0  0.93223  0.89130  0.86952  1.0000
  H   H3193     1.0  0.91999  0.90561  0.99524  1.0000
  H   H3194     1.0  0.67827  0.90368  0.54170  1.0000
  H   H3195     1.0  0.92915  0.89224  0.96046  1.0000
  H   H3196     1.0  0.93107  0.86052  0.88515  1.0000
  H   H3197     1.0  0.91379  0.86558  0.79716  1.0000
  H   H3198     1.0  0.95504  0.86714  0.83093  1.0000
  H   H3199     1.0  0.94618  0.92989  0.99570  1.0000
  H   H3200     1.0  0.91457  0.99356  0.54377  1.0000
  H   H3201     1.0  0.89943  0.85171  0.89307  1.0000
  H   H3202     1.0  0.89246  0.85738  0.86614  1.0000
  H   H3203     1.0  0.90000  0.87529  0.88384  1.0000
  H   H3204     1.0  0.97745  0.86111  0.85785  1.0000
  H   H3205     1.0  0.84589  0.89482  0.98315  1.0000
  C   C1878     1.0  0.92230  0.97162  0.00146  1.0000
  H   H3206     1.0  0.75674  0.94780  0.78366  1.0000
  N   N134      1.0  0.86949  0.87697  0.64765  1.0000
  C   C1879     1.0  0.84965  0.87523  0.65594  1.0000
  C   C1880     1.0  0.88158  0.87706  0.66720  1.0000
  C   C1881     1.0  0.87476  0.86035  0.63397  1.0000
  C   C1882     1.0  0.87033  0.89483  0.63423  1.0000
  C   C1883     1.0  0.83533  0.87132  0.63866  1.0000
  C   C1884     1.0  0.87715  0.89268  0.68334  1.0000
  C   C1885     1.0  0.88952  0.90010  0.62503  1.0000
  H   H3207     1.0  0.84871  0.86397  0.66880  1.0000
  H   H3208     1.0  0.84437  0.88818  0.66387  1.0000
  H   H3209     1.0  0.89645  0.87813  0.66235  1.0000
  H   H3210     1.0  0.88067  0.86364  0.67669  1.0000
  H   H3211     1.0  0.86743  0.84789  0.64027  1.0000
  H   H3212     1.0  0.87020  0.86286  0.61693  1.0000
  H   H3213     1.0  0.86137  0.89455  0.61992  1.0000
  H   H3214     1.0  0.86467  0.90666  0.64389  1.0000
  H   H3215     1.0  0.83456  0.88228  0.62563  1.0000
  H   H3216     1.0  0.83791  0.85758  0.63131  1.0000
  H   H3217     1.0  0.82131  0.87119  0.64668  1.0000
  H   H3218     1.0  0.87837  0.90671  0.67564  1.0000
  H   H3219     1.0  0.86326  0.89142  0.69131  1.0000
  H   H3220     1.0  0.88725  0.89140  0.69661  1.0000
  H   H3221     1.0  0.89970  0.90132  0.63793  1.0000
  H   H3222     1.0  0.88811  0.91396  0.61661  1.0000
  H   H3223     1.0  0.89487  0.89032  0.61257  1.0000
  N   N135      1.0  0.74392  0.94537  0.74174  1.0000
  C   C1886     1.0  0.73417  0.92824  0.74987  1.0000
  C   C1887     1.0  0.76374  0.94314  0.74877  1.0000
  C   C1888     1.0  0.74376  0.94588  0.71717  1.0000
  C   C1889     1.0  0.73377  0.96235  0.75088  1.0000
  C   C1890     1.0  0.71446  0.92607  0.74158  1.0000
  C   C1891     1.0  0.75296  0.96235  0.70524  1.0000
  H   H3224     1.0  0.74253  0.91541  0.74568  1.0000
  H   H3225     1.0  0.73277  0.92776  0.76796  1.0000
  H   H3226     1.0  0.77113  0.93155  0.74008  1.0000
  H   H3227     1.0  0.75045  0.93285  0.71073  1.0000
  H   H3228     1.0  0.72935  0.94642  0.71127  1.0000
  H   H3229     1.0  0.72197  0.96690  0.74046  1.0000
  H   H3230     1.0  0.72726  0.95910  0.76717  1.0000
  H   H3231     1.0  0.82733  0.81896  0.82570  1.0000
  H   H3232     1.0  0.71498  0.92142  0.72451  1.0000
  H   H3233     1.0  0.70763  0.91497  0.75145  1.0000
  H   H3234     1.0  0.76413  0.92417  0.77752  1.0000
  H   H3235     1.0  0.74426  0.97534  0.70688  1.0000
  H   H3236     1.0  0.83648  0.82759  0.80034  1.0000
  H   H3237     1.0  0.85122  0.91790  0.97324  1.0000
  H   H3238     1.0  0.99233  0.78059  0.73787  1.0000
  H   H3239     1.0  0.77176  0.95548  0.74419  1.0000
  C   C1892     1.0  0.67785  0.88880  0.54703  1.0000
  H   H3240     1.0  0.70565  0.93901  0.74293  1.0000
  H   H3241     1.0  0.85163  0.78549  0.73795  1.0000
  H   H3242     1.0  0.69211  0.84323  0.59889  1.0000
  N   N136      1.0  0.89038  0.90988  0.99081  1.0000
  H   H3243     1.0  0.83048  0.80723  0.76050  1.0000
  H   H3244     1.0  0.85127  0.81426  0.81899  1.0000
  H   H3245     1.0  0.89710  0.88989  0.85094  1.0000
  C   C1893     1.0  0.96313  0.86487  0.86392  1.0000
  H   H3246     1.0  0.67216  0.85987  0.57387  1.0000
  H   H3247     1.0  0.95266  0.98587  0.56406  1.0000
  H   H3248     1.0  0.70868  0.89064  0.60430  1.0000
  C   C1894     1.0  0.83175  0.79743  0.80186  1.0000
  C   C1895     1.0  0.85647  0.79822  0.74514  1.0000
  H   H3249     1.0  0.85489  0.80957  0.73254  1.0000
  H   H3250     1.0  0.90846  0.88480  0.99131  1.0000
  C   C1896     1.0  0.67099  0.91672  0.58088  1.0000
  H   H3251     1.0  0.88445  0.99423  0.55204  1.0000
  H   H3252     1.0  0.68090  0.88328  0.51251  1.0000
  H   H3253     1.0  0.68746  0.86524  0.61045  1.0000
  H   H3254     1.0  0.67899  0.89381  0.60206  1.0000
  H   H3255     1.0  0.99380  0.79925  0.80328  1.0000
  C   C1897     1.0  0.89129  0.92935  0.98093  1.0000
  H   H3256     1.0  0.95784  0.98639  0.99433  1.0000
  H   H3257     1.0  0.90557  0.93439  0.98172  1.0000
  C   C1898     1.0  0.85521  0.90648  0.98499  1.0000
  H   H3258     1.0  0.94323  0.00076  0.59304  1.0000
  C   C1899     1.0  0.92801  0.00075  0.59583  1.0000
  H   H3259     1.0  0.84083  0.75391  0.80632  1.0000
  C   C1900     1.0  0.83088  0.75764  0.79346  1.0000
  H   H3260     1.0  0.98068  0.99228  0.98628  1.0000
  C   C1901     1.0  0.87874  0.94475  0.99138  1.0000
  H   H3261     1.0  0.86395  0.94138  0.99252  1.0000
  C   C1902     1.0  0.98066  0.92066  0.50449  1.0000
  C   C1903     1.0  0.96139  0.91847  0.50580  1.0000
  H   H3262     1.0  0.98293  0.96102  0.99848  1.0000
  C   C1904     1.0  0.99968  0.78681  0.75061  1.0000
  H   H3263     1.0  0.95191  0.93014  0.50213  1.0000
  H   H3264     1.0  0.85231  0.91103  0.00178  1.0000
