data_image0
_chemical_formula_structural       CSNFeHSFeSHCHSC3H3SHS2CHCH3FeH4C2HCH3CH6CHNCH3C3H4SFeCH3C2HCSHCHSHCHFeCSCFeHCHC4H8C2FeNHCH2CH5CHCHSC2H2CH4SC2H12SC2H3CHC4HFeHCFeSHFeS2FeSFeS3FeS2FeS2FeSFeS3HSFeS2FeHFeHFeHS2FeCSHCH3FeS2HCH2CHCHCH2CH2CHCH2SCNCHC7H4C6H5C6H4CHCH2C6H8SHCH2C2H3CNC7H17CH3CH2CHCHCSC2FeCHCHC3H5SC3HSHCHNCH3CH3NC3H6NCH2NC8H20NH2C2H4CHCHCHCH3C2H6FeHCHSC2HCNH3C2SCH2SHC2H4CH2CHSH4CH2CHCH2CH4C3H3NHSH4CHCH2SHCH3CH2C2SH3SFeH3FeH4CFeH3S2HSH4C2HFeH6CH2CH6SH2C2HCH5SNCH2CHSHCFeH5CHCH3FeHC3HCHCHCNH3CHCH5FeH4C2SCH2CHC8HCNC2HFeC2H3CHC2H3SH2CH2CH2CH7CH2CH3CHC2H2CH2SHCNSH5C2HSH8CNHNHCFeSCFeS2FeSFeS2HFeS2FeS2FeSFeS3CHFeS2FeCFeHFeS3FeHSH3CHFeS2H2CH3CS2HCHC2H3CHSCH4C6H4C6H5C6H4CHCHC7H6NC8H22CH2SNC8H21NCNH3SH4CHCNC8H19CHSCH2SCHC3HCSCH2C2FeC2SCH3C2H3FeCHCHCHC2HCHCHCH2SCSH3CH2CH3C5HSC2H2SFeS2FeS2FeSFeS3FeCH3SHSFeSCSNC2H3C7H4C6H4FeCH4C2H3C2H3CHCH2FeCHCH3CSHCHC2HCH4C2H3CH2NCNC8H24CH6SNH2C4H4C3SH3CH2CH4CH2CH3C2H2CHSCHCH2CH3CHCH2NH2C2H5CHCHFeS2FeS2FeSFeS3CS2FeS2H3C3HSHC6H4C6H4C2HCH5C3H5CHC3HCH9CH2CNH9SH4CFeH6C2H2CHCH2CNH3CH3CHNCH2NC5H2SH2C2H3CH8C3H5CHC4HC2H4C4HFeHCHC2H3CHSHCH3CFeSFeS2FeS2FeSFeS3FeCSH4SFeSHSHCHCH3C6H4C6H6CH2CH2C2H2SC4HC2HFeSNCHCHCH5CH2CH2NHCNCH4CH6C2HCH2FeH2C2HC3HSH4CSCHNC8H20CH4CH5CHCH2CH2FeS2FeS2FeSFeS3CS2FeS2H2SHCH3C7H4C6H4CH3C2HC6H3CH2CH2CH4CH3CHSCH2CHC3H3CSC2NFeH2CH3C2H4CH2CH2C2H3CHCH3CH3CH4NH9NC3H4CHCHNC5HC2H12NH4CHCH2CH2C2H2FeH4C2HCH3CH4FeH2CSC3HCHFeS2FeS2FeSFeHS2FeS2FeS2FeSFeS3FeCSCSHCHFeS2HFeS2HFeCFeHS2H2SH2SH3NCHFeCH2C2HC7H4C6H4CH4C6H4CHCHCH3CHCHC6H2NC6H14NC8H20CHC3HSC3H8CH3CH5FeHC2NHC2HC4H3NH4SH2CH2CH2CHCHCH3CH3CH5C3HC2HNC2HCH7CH4C2H9CH2CH3CH6CSHCHCS2HFeCHCFeSCFeSCH2FeS2CHC2H3FeHFeS3H3CH2CSH3CHFeH3SH4SHCH3CH3CH7CHNHC3H5NH2CH2CHCHCH2C2HSHC3H2NC2HCH4CHC2H2CH2CFeCNCHCH4C2H5CHCH4SC2H2CHCH2C2H2NCH3CHC3H3CSCHSH2CSCH3S2CH2NH2CSH4C3H2CHSH3CSH3CH3CHCH4FeS2FeS2FeSFeS3FeS2FeS2FeSFeS3FeHSCSH2CFeS2HFeS2HCH3S2H3CFeH3CHCH4CH4C6H4C6H4C2H3C6H4C3H3CH2CH2C6HNC8H22CH3CHCHFeC2H3C4HFeHSC2H5C2NH2CH2CFeHCHFeNC8H24CH3CNC6H15NH4CHSCHNHC2HCH2C2H2CHCHCSCH2SHCH2CH2CHCH3CHFeC3SCH2FeCSH5NHFeHFeCSCH2SFeCFeC3H6SCSHCHC4SCHSH4FeCH4CHCH5CH3FeH2NH4CH4SHSH4CHNCHCH2CH2SHSCH3CH2CHNCHCHCH2CH2C2HCHC2HSHCH4C5FeCH2CNSCHC2HCH3CH3CHCH3CH3CSH3SCHCH3CHC3H2SH3CHC2H2CH
_chemical_formula_sum              "C896 S256 N64 Fe128 H1536"
_cell_length_a       80.9335
_cell_length_b       45.9473
_cell_length_c       36.5636
_cell_angle_alpha    89.7169
_cell_angle_beta     94.7809
_cell_angle_gamma    88.8311

_space_group_name_H-M_alt    "P 1"
_space_group_IT_number       1

loop_
  _space_group_symop_operation_xyz
  'x, y, z'

loop_
  _atom_site_type_symbol
  _atom_site_label
  _atom_site_symmetry_multiplicity
  _atom_site_fract_x
  _atom_site_fract_y
  _atom_site_fract_z
  _atom_site_occupancy
  C   C1        1.0  0.21067  0.45724  0.44641  1.0000
  S   S1        1.0  0.27543  0.44520  0.36185  1.0000
  N   N1        1.0  0.04376  0.48109  0.00542  1.0000
  Fe  Fe1       1.0  0.24633  0.01598  0.40100  1.0000
  H   H1        1.0  0.19077  0.01952  0.41768  1.0000
  S   S2        1.0  0.23004  0.05546  0.41548  1.0000
  Fe  Fe2       1.0  0.25789  0.44412  0.40688  1.0000
  S   S3        1.0  0.25729  0.40423  0.44582  1.0000
  H   H2        1.0  0.29454  0.06603  0.30161  1.0000
  C   C2        1.0  0.22479  0.33024  0.48701  1.0000
  H   H3        1.0  0.24722  0.38666  0.09287  1.0000
  S   S4        1.0  0.26349  0.01540  0.35562  1.0000
  C   C3        1.0  0.05479  0.46072  0.02954  1.0000
  C   C4        1.0  0.24351  0.46592  0.19271  1.0000
  C   C5        1.0  0.18640  0.40859  0.11907  1.0000
  H   H4        1.0  0.07727  0.43369  0.03199  1.0000
  H   H5        1.0  0.20602  0.04303  0.46853  1.0000
  H   H6        1.0  0.30812  0.01741  0.21923  1.0000
  S   S5        1.0  0.19886  0.00053  0.13916  1.0000
  H   H7        1.0  0.23320  0.02711  0.48778  1.0000
  S   S6        1.0  0.18410  0.45426  0.03583  1.0000
  S   S7        1.0  0.19637  0.02529  0.03260  1.0000
  C   C6        1.0  0.21545  0.24762  0.42554  1.0000
  H   H8        1.0  0.18658  0.40377  0.14884  1.0000
  C   C7        1.0  0.24558  0.08677  0.47388  1.0000
  H   H9        1.0  0.02308  0.44897  0.05282  1.0000
  H   H10       1.0  0.31763  0.04018  0.27633  1.0000
  H   H11       1.0  0.23533  0.46725  0.13473  1.0000
  Fe  Fe3       1.0  0.25561  0.47188  0.32860  1.0000
  H   H12       1.0  0.21386  0.32760  0.16469  1.0000
  H   H13       1.0  0.31259  0.02530  0.31891  1.0000
  H   H14       1.0  0.26804  0.22226  0.42737  1.0000
  H   H15       1.0  0.04829  0.44106  0.03754  1.0000
  C   C8        1.0  0.21669  0.48523  0.16713  1.0000
  C   C9        1.0  0.31701  0.47746  0.27706  1.0000
  H   H16       1.0  0.21199  0.44266  0.42262  1.0000
  C   C10       1.0  0.22622  0.45331  0.47333  1.0000
  H   H17       1.0  0.28179  0.03510  0.29689  1.0000
  H   H18       1.0  0.24144  0.21991  0.37494  1.0000
  H   H19       1.0  0.00721  0.47643  0.05100  1.0000
  C   C11       1.0  0.30834  0.02687  0.28915  1.0000
  H   H20       1.0  0.27547  0.00979  0.24037  1.0000
  H   H21       1.0  0.24421  0.25888  0.37667  1.0000
  H   H22       1.0  0.19150  0.43042  0.11487  1.0000
  H   H23       1.0  0.21634  0.31056  0.06755  1.0000
  H   H24       1.0  0.20346  0.31915  0.10358  1.0000
  H   H25       1.0  0.22296  0.38613  0.42366  1.0000
  C   C12       1.0  0.24442  0.37570  0.46045  1.0000
  H   H26       1.0  0.19803  0.00812  0.21718  1.0000
  N   N2        1.0  0.24429  0.22615  0.45114  1.0000
  C   C13       1.0  0.22812  0.37184  0.44547  1.0000
  H   H27       1.0  0.32145  0.46453  0.25403  1.0000
  H   H28       1.0  0.24275  0.15201  0.42811  1.0000
  H   H29       1.0  0.23717  0.45670  0.45741  1.0000
  C   C14       1.0  0.23159  0.08368  0.44911  1.0000
  C   C15       1.0  0.02901  0.49036  0.02562  1.0000
  C   C16       1.0  0.20087  0.02145  0.47458  1.0000
  H   H30       1.0  0.23193  0.34484  0.10410  1.0000
  H   H31       1.0  0.26448  0.20800  0.48797  1.0000
  H   H32       1.0  0.25529  0.45550  0.18849  1.0000
  H   H33       1.0  0.19904  0.33472  0.05796  1.0000
  S   S8        1.0  0.25464  0.46393  0.26613  1.0000
  Fe  Fe4       1.0  0.20145  0.48462  0.06786  1.0000
  C   C17       1.0  0.23067  0.24886  0.45380  1.0000
  H   H34       1.0  0.19370  0.39012  0.06847  1.0000
  H   H35       1.0  0.28414  0.49759  0.25711  1.0000
  H   H36       1.0  0.18781  0.36477  0.10074  1.0000
  C   C18       1.0  0.99050  0.00490  0.00011  1.0000
  C   C19       1.0  0.23975  0.47276  0.22868  1.0000
  H   H37       1.0  0.26078  0.25801  0.43149  1.0000
  C   C20       1.0  0.21867  0.12604  0.47739  1.0000
  S   S9        1.0  0.23738  0.46783  0.37211  1.0000
  H   H38       1.0  0.23564  0.27125  0.45240  1.0000
  C   C21       1.0  0.21844  0.34930  0.45863  1.0000
  H   H39       1.0  0.29731  0.46119  0.21571  1.0000
  S   S10       1.0  0.30759  0.00374  0.39607  1.0000
  H   H40       1.0  0.19414  0.34645  0.15464  1.0000
  C   C22       1.0  0.99440  0.23140  0.46654  1.0000
  H   H41       1.0  0.01044  0.45730  0.01020  1.0000
  Fe  Fe5       1.0  0.28424  0.48775  0.38530  1.0000
  C   C23       1.0  0.29466  0.48413  0.20725  1.0000
  S   S11       1.0  0.20824  0.39161  0.99893  1.0000
  C   C24       1.0  0.21814  0.10344  0.45119  1.0000
  Fe  Fe6       1.0  0.21983  0.00813  0.01097  1.0000
  H   H42       1.0  0.22551  0.24742  0.48099  1.0000
  C   C25       1.0  0.22245  0.40617  0.10099  1.0000
  H   H43       1.0  0.20915  0.47964  0.43510  1.0000
  C   C26       1.0  0.25078  0.35663  0.48880  1.0000
  C   C27       1.0  0.25641  0.23575  0.42460  1.0000
  C   C28       1.0  0.23698  0.19691  0.44153  1.0000
  C   C29       1.0  0.24960  0.17179  0.43714  1.0000
  H   H44       1.0  0.20588  0.34660  0.44669  1.0000
  H   H45       1.0  0.30159  0.46829  0.32237  1.0000
  H   H46       1.0  0.18818  0.02599  0.48318  1.0000
  H   H47       1.0  0.22867  0.19016  0.46277  1.0000
  H   H48       1.0  0.21398  0.39396  0.16695  1.0000
  H   H49       1.0  0.20559  0.35283  0.19660  1.0000
  H   H50       1.0  0.21486  0.13432  0.99398  1.0000
  H   H51       1.0  0.26077  0.23403  0.36676  1.0000
  C   C30       1.0  0.25010  0.23729  0.38366  1.0000
  C   C31       1.0  0.22042  0.35404  0.08919  1.0000
  Fe  Fe7       1.0  0.20660  0.44082  0.00679  1.0000
  N   N3        1.0  0.21339  0.37907  0.11028  1.0000
  H   H52       1.0  0.28905  0.05255  0.25669  1.0000
  C   C32       1.0  0.24155  0.40468  0.10791  1.0000
  H   H53       1.0  0.22968  0.36889  0.15875  1.0000
  H   H54       1.0  0.21488  0.08050  0.00127  1.0000
  C   C33       1.0  0.20697  0.34856  0.16710  1.0000
  H   H55       1.0  0.25605  0.07187  0.47275  1.0000
  H   H56       1.0  0.21956  0.41193  0.07152  1.0000
  H   H57       1.0  0.19935  0.45027  0.45886  1.0000
  H   H58       1.0  0.07959  0.46795  0.01022  1.0000
  H   H59       1.0  0.17317  0.40996  0.10818  1.0000
  C   C34       1.0  0.23214  0.47228  0.16213  1.0000
  H   H60       1.0  0.21063  0.00261  0.42517  1.0000
  C   C35       1.0  0.21634  0.37386  0.15104  1.0000
  H   H61       1.0  0.20769  0.22862  0.43081  1.0000
  S   S12       1.0  0.22400  0.46906  0.04160  1.0000
  C   C36       1.0  0.25356  0.22303  0.48863  1.0000
  C   C37       1.0  0.01702  0.46643  0.03523  1.0000
  H   H62       1.0  0.21830  0.42519  0.11674  1.0000
  H   H63       1.0  0.24561  0.40318  0.13759  1.0000
  C   C38       1.0  0.07078  0.45005  0.01316  1.0000
  H   H64       1.0  0.22433  0.36168  0.06233  1.0000
  H   H65       1.0  0.00547  0.22296  0.45530  1.0000
  H   H66       1.0  0.24665  0.42515  0.09762  1.0000
  H   H67       1.0  0.25669  0.16598  0.46351  1.0000
  S   S13       1.0  0.20167  0.49339  0.12970  1.0000
  C   C39       1.0  0.20897  0.32829  0.07948  1.0000
  C   C40       1.0  0.19527  0.38450  0.09826  1.0000
  H   H68       1.0  0.25817  0.17655  0.41590  1.0000
  H   H69       1.0  0.30367  0.49117  0.18793  1.0000
  H   H70       1.0  0.22881  0.19763  0.41570  1.0000
  H   H71       1.0  0.28220  0.48462  0.19197  1.0000
  H   H72       1.0  0.21872  0.24740  0.39685  1.0000
  H   H73       1.0  0.20723  0.10134  0.43225  1.0000
  H   H74       1.0  0.31887  0.15698  0.09536  1.0000
  H   H75       1.0  0.05860  0.47138  0.05617  1.0000
  H   H76       1.0  0.22655  0.42986  0.48098  1.0000
  H   H77       1.0  0.28129  0.01425  0.19503  1.0000
  H   H78       1.0  0.29349  0.45347  0.27891  1.0000
  H   H79       1.0  0.99693  0.01651  0.02250  1.0000
  S   S14       1.0  0.26816  0.48544  0.43285  1.0000
  C   C41       1.0  0.28339  0.00041  0.22006  1.0000
  C   C42       1.0  0.30492  0.45834  0.29645  1.0000
  H   H80       1.0  0.20750  0.26731  0.42880  1.0000
  H   H81       1.0  0.31115  0.43715  0.30403  1.0000
  H   H82       1.0  0.22131  0.49165  0.26098  1.0000
  C   C43       1.0  0.29237  0.04578  0.28558  1.0000
  H   H83       1.0  0.20825  0.14109  0.47835  1.0000
  C   C44       1.0  0.22443  0.48622  0.23359  1.0000
  C   C45       1.0  0.21300  0.49233  0.20302  1.0000
  C   C46       1.0  0.19869  0.00567  0.43733  1.0000
  C   C47       1.0  0.22575  0.09108  0.99268  1.0000
  H   H84       1.0  0.26945  0.26187  0.49029  1.0000
  Fe  Fe8       1.0  0.18019  0.48923  0.99244  1.0000
  H   H85       1.0  0.03131  0.42590  0.99438  1.0000
  C   C48       1.0  0.30223  0.99855  0.23184  1.0000
  Fe  Fe9       1.0  0.21013  0.26232  0.54129  1.0000
  S   S15       1.0  0.23009  0.23669  0.57539  1.0000
  H   H86       1.0  0.09857  0.20011  0.73579  1.0000
  Fe  Fe10      1.0  0.18266  0.22075  0.56318  1.0000
  S   S16       1.0  0.20089  0.19216  0.59764  1.0000
  S   S17       1.0  0.15528  0.20870  0.55208  1.0000
  Fe  Fe11      1.0  0.21191  0.23407  0.61907  1.0000
  S   S18       1.0  0.21454  0.24203  0.68144  1.0000
  Fe  Fe12      1.0  0.21770  0.19612  0.55169  1.0000
  S   S19       1.0  0.23464  0.15840  0.53428  1.0000
  S   S20       1.0  0.19268  0.26255  0.58654  1.0000
  S   S21       1.0  0.19877  0.22179  0.51556  1.0000
  Fe  Fe13      1.0  0.06436  0.24373  0.62957  1.0000
  S   S22       1.0  0.05483  0.23608  0.68512  1.0000
  S   S23       1.0  0.09227  0.25199  0.63374  1.0000
  Fe  Fe14      1.0  0.02892  0.23957  0.58920  1.0000
  S   S24       1.0  0.01767  0.23163  0.64253  1.0000
  S   S25       1.0  0.01477  0.23623  0.53131  1.0000
  Fe  Fe15      1.0  0.03428  0.26762  0.66583  1.0000
  S   S26       1.0  0.02387  0.30227  0.70348  1.0000
  Fe  Fe16      1.0  0.03943  0.20097  0.65772  1.0000
  S   S27       1.0  0.03682  0.15275  0.67348  1.0000
  S   S28       1.0  0.04442  0.27720  0.61157  1.0000
  S   S29       1.0  0.05002  0.20707  0.60307  1.0000
  H   H87       1.0  0.21685  0.01205  0.56366  1.0000
  S   S30       1.0  0.08199  0.46691  0.92357  1.0000
  Fe  Fe17      1.0  0.27113  0.22154  0.87516  1.0000
  S   S31       1.0  0.25038  0.23753  0.90738  1.0000
  S   S32       1.0  0.27016  0.21496  0.81289  1.0000
  Fe  Fe18      1.0  0.29568  0.21488  0.94517  1.0000
  H   H88       1.0  0.07312  0.40917  0.88865  1.0000
  Fe  Fe19      1.0  0.25878  0.20154  0.94764  1.0000
  H   H89       1.0  0.06668  0.15101  0.63062  1.0000
  Fe  Fe20      1.0  0.26957  0.26434  0.93911  1.0000
  H   H90       1.0  0.01195  0.11356  0.64285  1.0000
  S   S33       1.0  0.27843  0.18408  0.91356  1.0000
  S   S34       1.0  0.29001  0.25081  0.90388  1.0000
  Fe  Fe21      1.0  0.04471  0.45878  0.80605  1.0000
  C   C49       1.0  0.11348  0.46255  0.95840  1.0000
  S   S35       1.0  0.05132  0.42508  0.76253  1.0000
  H   H91       1.0  0.02170  0.43345  0.94999  1.0000
  C   C50       1.0  0.99151  0.48130  0.93756  1.0000
  H   H92       1.0  0.11242  0.04547  0.88292  1.0000
  H   H93       1.0  0.05031  0.12103  0.90317  1.0000
  H   H94       1.0  0.99153  0.32197  0.65344  1.0000
  Fe  Fe22      1.0  0.04727  0.02437  0.83284  1.0000
  S   S36       1.0  0.05153  0.07250  0.81780  1.0000
  S   S37       1.0  0.04344  0.44670  0.86521  1.0000
  H   H95       1.0  0.12333  0.41763  0.88690  1.0000
  C   C51       1.0  0.26769  0.13177  0.83963  1.0000
  H   H96       1.0  0.07305  0.16773  0.68563  1.0000
  H   H97       1.0  0.14027  0.17940  0.66547  1.0000
  C   C52       1.0  0.09025  0.04868  0.93367  1.0000
  H   H98       1.0  0.10310  0.41104  0.90216  1.0000
  C   C53       1.0  0.23976  0.13580  0.97728  1.0000
  H   H99       1.0  0.23384  0.29046  0.78456  1.0000
  C   C54       1.0  0.06872  0.08661  0.91560  1.0000
  H   H100      1.0  0.01148  0.08923  0.53615  1.0000
  H   H101      1.0  0.10507  0.34506  0.79745  1.0000
  C   C55       1.0  0.23969  0.07431  0.98530  1.0000
  H   H102      1.0  0.25421  0.46990  0.51191  1.0000
  H   H103      1.0  0.11046  0.13201  0.71113  1.0000
  C   C56       1.0  0.03833  0.46823  0.96852  1.0000
  H   H104      1.0  0.23590  0.42574  0.55806  1.0000
  C   C57       1.0  0.00283  0.41271  0.57366  1.0000
  H   H105      1.0  0.24551  0.21312  0.50838  1.0000
  H   H106      1.0  0.11753  0.44090  0.82888  1.0000
  S   S38       1.0  0.27633  0.22989  0.98226  1.0000
  C   C58       1.0  0.01967  0.37844  0.63625  1.0000
  N   N4        1.0  0.22727  0.47218  0.50703  1.0000
  C   C59       1.0  0.10772  0.06484  0.86696  1.0000
  H   H107      1.0  0.10858  0.44502  0.97383  1.0000
  C   C60       1.0  0.24616  0.43321  0.54233  1.0000
  C   C61       1.0  0.04123  0.13095  0.71400  1.0000
  C   C62       1.0  0.03812  0.10088  0.71236  1.0000
  C   C63       1.0  0.04114  0.08271  0.74365  1.0000
  C   C64       1.0  0.04746  0.09429  0.77715  1.0000
  C   C65       1.0  0.05086  0.12428  0.77862  1.0000
  C   C66       1.0  0.04774  0.14250  0.74737  1.0000
  H   H108      1.0  0.03326  0.09146  0.68677  1.0000
  H   H109      1.0  0.03852  0.05973  0.74187  1.0000
  H   H110      1.0  0.05572  0.13362  0.80427  1.0000
  H   H111      1.0  0.05014  0.16553  0.74931  1.0000
  C   C67       1.0  0.03261  0.33495  0.72233  1.0000
  C   C68       1.0  0.02365  0.35143  0.74673  1.0000
  C   C69       1.0  0.02933  0.37862  0.76004  1.0000
  C   C70       1.0  0.04400  0.38998  0.74875  1.0000
  C   C71       1.0  0.05308  0.37335  0.72468  1.0000
  C   C72       1.0  0.04752  0.34598  0.71176  1.0000
  H   H112      1.0  0.01209  0.34325  0.75511  1.0000
  H   H113      1.0  0.02216  0.39105  0.77845  1.0000
  H   H114      1.0  0.06441  0.38186  0.71555  1.0000
  H   H115      1.0  0.05455  0.33376  0.69289  1.0000
  H   H116      1.0  0.21422  0.06415  0.56707  1.0000
  C   C73       1.0  0.13787  0.22193  0.57428  1.0000
  C   C74       1.0  0.13960  0.23951  0.60543  1.0000
  C   C75       1.0  0.12548  0.24879  0.62276  1.0000
  C   C76       1.0  0.10943  0.24073  0.60924  1.0000
  C   C77       1.0  0.10766  0.22331  0.57793  1.0000
  C   C78       1.0  0.12181  0.21388  0.56071  1.0000
  H   H117      1.0  0.15185  0.24588  0.61623  1.0000
  H   H118      1.0  0.12704  0.26228  0.64692  1.0000
  H   H119      1.0  0.09543  0.21718  0.56686  1.0000
  H   H120      1.0  0.12032  0.20039  0.53654  1.0000
  C   C79       1.0  0.08531  0.17801  0.68916  1.0000
  H   H121      1.0  0.03780  0.39468  0.59893  1.0000
  C   C80       1.0  0.08915  0.18305  0.73065  1.0000
  H   H122      1.0  0.99009  0.31064  0.58993  1.0000
  H   H123      1.0  0.08149  0.05697  0.86187  1.0000
  C   C81       1.0  0.22997  0.23247  0.71739  1.0000
  C   C82       1.0  0.22615  0.23572  0.75407  1.0000
  C   C83       1.0  0.23818  0.23002  0.78360  1.0000
  C   C84       1.0  0.25427  0.22124  0.77683  1.0000
  C   C85       1.0  0.25801  0.21742  0.74021  1.0000
  C   C86       1.0  0.24595  0.22294  0.71065  1.0000
  H   H124      1.0  0.21381  0.24299  0.75960  1.0000
  H   H125      1.0  0.23506  0.23278  0.81151  1.0000
  H   H126      1.0  0.27040  0.21047  0.73460  1.0000
  H   H127      1.0  0.24911  0.22034  0.68266  1.0000
  H   H128      1.0  0.21072  0.44217  0.53061  1.0000
  H   H129      1.0  0.25004  0.26725  0.51113  1.0000
  H   H130      1.0  0.04010  0.14881  0.55084  1.0000
  H   H131      1.0  0.24833  0.30452  0.75428  1.0000
  S   S39       1.0  0.00094  0.46910  0.89761  1.0000
  H   H132      1.0  0.24619  0.32006  0.52408  1.0000
  C   C87       1.0  0.25368  0.08850  0.97406  1.0000
  H   H133      1.0  0.09967  0.35561  0.75074  1.0000
  H   H134      1.0  0.08634  0.03048  0.91507  1.0000
  C   C88       1.0  0.21561  0.05454  0.53964  1.0000
  C   C89       1.0  0.10497  0.44836  0.81801  1.0000
  H   H135      1.0  0.10324  0.47115  0.82731  1.0000
  H   H136      1.0  0.02775  0.48111  0.95497  1.0000
  H   H137      1.0  0.01800  0.37634  0.55802  1.0000
  C   C90       1.0  0.20982  0.02268  0.53973  1.0000
  N   N5        1.0  0.23673  0.13272  0.85351  1.0000
  C   C91       1.0  0.25410  0.12080  0.86330  1.0000
  C   C92       1.0  0.22561  0.11946  0.87997  1.0000
  C   C93       1.0  0.23719  0.16519  0.85934  1.0000
  C   C94       1.0  0.23167  0.12561  0.81393  1.0000
  C   C95       1.0  0.22548  0.08589  0.88133  1.0000
  C   C96       1.0  0.22063  0.18223  0.85300  1.0000
  C   C97       1.0  0.21285  0.12467  0.80233  1.0000
  H   H138      1.0  0.04465  0.39457  0.64654  1.0000
  H   H139      1.0  0.25459  0.09670  0.86074  1.0000
  H   H140      1.0  0.21255  0.12689  0.87476  1.0000
  H   H141      1.0  0.22918  0.12696  0.90826  1.0000
  H   H142      1.0  0.24236  0.17002  0.88784  1.0000
  H   H143      1.0  0.24555  0.17562  0.84079  1.0000
  H   H144      1.0  0.23724  0.14129  0.79530  1.0000
  H   H145      1.0  0.23674  0.10369  0.80731  1.0000
  H   H146      1.0  0.21481  0.07881  0.89623  1.0000
  H   H147      1.0  0.22427  0.07612  0.85363  1.0000
  H   H148      1.0  0.23676  0.07692  0.89723  1.0000
  H   H149      1.0  0.21102  0.17423  0.87018  1.0000
  H   H150      1.0  0.21614  0.18278  0.82350  1.0000
  H   H151      1.0  0.22271  0.20520  0.86113  1.0000
  H   H152      1.0  0.21067  0.13229  0.77339  1.0000
  H   H153      1.0  0.20487  0.13848  0.81845  1.0000
  H   H154      1.0  0.20851  0.10189  0.80238  1.0000
  C   C98       1.0  0.07780  0.14337  0.61754  1.0000
  H   H155      1.0  0.10814  0.11739  0.66616  1.0000
  H   H156      1.0  0.01295  0.42455  0.58912  1.0000
  H   H157      1.0  0.10335  0.15067  0.61444  1.0000
  C   C99       1.0  0.09592  0.35770  0.77919  1.0000
  H   H158      1.0  0.08581  0.11487  0.72747  1.0000
  H   H159      1.0  0.27017  0.15516  0.84372  1.0000
  C   C100      1.0  0.23273  0.12932  0.50191  1.0000
  H   H160      1.0  0.11930  0.38452  0.90887  1.0000
  C   C101      1.0  0.25377  0.11907  0.97022  1.0000
  H   H161      1.0  0.07444  0.12083  0.68343  1.0000
  C   C102      1.0  0.24363  0.46496  0.52852  1.0000
  S   S40       1.0  0.26826  0.31326  0.94942  1.0000
  C   C103      1.0  0.12893  0.16783  0.65494  1.0000
  C   C104      1.0  0.24613  0.10944  0.49997  1.0000
  Fe  Fe23      1.0  0.02378  0.48200  0.86766  1.0000
  C   C105      1.0  0.21331  0.46592  0.53072  1.0000
  H   H162      1.0  0.26649  0.24610  0.53385  1.0000
  C   C106      1.0  0.23630  0.32227  0.97021  1.0000
  H   H163      1.0  0.06837  0.03879  0.96304  1.0000
  C   C107      1.0  0.99082  0.36411  0.62329  1.0000
  C   C108      1.0  0.99530  0.24009  0.50362  1.0000
  C   C109      1.0  0.00220  0.31371  0.57855  1.0000
  H   H164      1.0  0.07992  0.11967  0.62220  1.0000
  H   H165      1.0  0.02200  0.13611  0.52469  1.0000
  H   H166      1.0  0.02578  0.33327  0.58970  1.0000
  H   H167      1.0  0.02456  0.17443  0.53381  1.0000
  H   H168      1.0  0.08693  0.09399  0.85849  1.0000
  S   S41       1.0  0.20195  0.47445  0.96193  1.0000
  C   C110      1.0  0.10309  0.47721  0.93114  1.0000
  C   C111      1.0  0.01830  0.14912  0.58194  1.0000
  C   C112      1.0  0.19661  0.48244  0.52114  1.0000
  H   H169      1.0  0.10382  0.04513  0.94058  1.0000
  S   S42       1.0  0.21183  0.30208  0.50223  1.0000
  H   H170      1.0  0.21713  0.47130  0.55986  1.0000
  C   C113      1.0  0.03343  0.43578  0.96769  1.0000
  H   H171      1.0  0.01685  0.32174  0.62958  1.0000
  N   N6        1.0  0.00771  0.36384  0.60869  1.0000
  C   C114      1.0  0.00648  0.37964  0.57229  1.0000
  H   H172      1.0  0.07055  0.13463  0.91502  1.0000
  H   H173      1.0  0.10788  0.05921  0.83747  1.0000
  H   H174      1.0  0.09819  0.12011  0.91257  1.0000
  C   C115      1.0  0.02647  0.15217  0.54548  1.0000
  H   H175      1.0  0.11178  0.20183  0.66815  1.0000
  H   H176      1.0  0.08321  0.19986  0.67611  1.0000
  H   H177      1.0  0.09138  0.18318  0.61883  1.0000
  N   N7        1.0  0.09378  0.39711  0.82935  1.0000
  C   C116      1.0  0.22579  0.12163  0.98861  1.0000
  C   C117      1.0  0.07860  0.38211  0.84084  1.0000
  C   C118      1.0  0.24109  0.33415  0.50202  1.0000
  H   H178      1.0  0.08475  0.40042  0.77177  1.0000
  H   H179      1.0  0.25816  0.12544  0.89255  1.0000
  H   H180      1.0  0.26480  0.12753  0.80999  1.0000
  H   H181      1.0  0.06740  0.38931  0.82295  1.0000
  H   H182      1.0  0.07970  0.35817  0.83734  1.0000
  H   H183      1.0  0.02457  0.13056  0.59710  1.0000
  N   N8        1.0  0.09842  0.16137  0.67042  1.0000
  C   C119      1.0  0.09835  0.10047  0.93059  1.0000
  H   H184      1.0  0.00806  0.29171  0.57700  1.0000
  H   H185      1.0  0.26332  0.35937  0.50085  1.0000
  N   N9        1.0  0.25049  0.32458  0.83772  1.0000
  C   C120      1.0  0.26157  0.34796  0.85455  1.0000
  C   C121      1.0  0.26084  0.29688  0.83770  1.0000
  C   C122      1.0  0.23661  0.32052  0.86228  1.0000
  C   C123      1.0  0.24389  0.33440  0.79967  1.0000
  C   C124      1.0  0.25301  0.37734  0.86244  1.0000
  C   C125      1.0  0.27674  0.29853  0.81733  1.0000
  C   C126      1.0  0.22396  0.29692  0.85137  1.0000
  C   C127      1.0  0.23831  0.31034  0.77212  1.0000
  H   H186      1.0  0.26815  0.34024  0.88087  1.0000
  H   H187      1.0  0.27155  0.35314  0.83652  1.0000
  H   H188      1.0  0.25378  0.27834  0.82585  1.0000
  H   H189      1.0  0.26471  0.28995  0.86643  1.0000
  H   H190      1.0  0.24180  0.31540  0.89079  1.0000
  H   H191      1.0  0.22906  0.34087  0.86405  1.0000
  H   H192      1.0  0.23326  0.35000  0.80122  1.0000
  H   H193      1.0  0.25360  0.34649  0.78637  1.0000
  H   H194      1.0  0.26266  0.39371  0.86946  1.0000
  H   H195      1.0  0.24506  0.38578  0.83842  1.0000
  H   H196      1.0  0.24568  0.37574  0.88671  1.0000
  H   H197      1.0  0.28654  0.31060  0.83361  1.0000
  H   H198      1.0  0.28181  0.27615  0.81382  1.0000
  H   H199      1.0  0.27443  0.30842  0.78966  1.0000
  H   H200      1.0  0.21539  0.29500  0.87346  1.0000
  H   H201      1.0  0.22978  0.27513  0.84875  1.0000
  H   H202      1.0  0.21615  0.30307  0.82603  1.0000
  H   H203      1.0  0.22789  0.31893  0.75313  1.0000
  H   H204      1.0  0.27953  0.12000  0.84814  1.0000
  H   H205      1.0  0.22890  0.05615  0.53476  1.0000
  N   N10       1.0  0.08675  0.07773  0.91458  1.0000
  H   H206      1.0  0.11639  0.08303  0.87220  1.0000
  H   H207      1.0  0.11144  0.09238  0.93135  1.0000
  C   C128      1.0  0.09601  0.11038  0.97008  1.0000
  C   C129      1.0  0.03744  0.38219  0.62481  1.0000
  H   H208      1.0  0.08391  0.37481  0.90020  1.0000
  H   H209      1.0  0.09328  0.16287  0.74568  1.0000
  H   H210      1.0  0.07938  0.43619  0.81571  1.0000
  H   H211      1.0  0.26463  0.12964  0.96162  1.0000
  C   C130      1.0  0.11418  0.17855  0.67589  1.0000
  H   H212      1.0  0.07771  0.19120  0.74239  1.0000
  C   C131      1.0  0.09114  0.42958  0.83177  1.0000
  H   H213      1.0  0.12704  0.17340  0.62528  1.0000
  C   C132      1.0  0.11364  0.40106  0.88912  1.0000
  H   H214      1.0  0.08834  0.09069  0.69086  1.0000
  C   C133      1.0  0.09339  0.16060  0.62977  1.0000
  H   H215      1.0  0.06248  0.37582  0.88454  1.0000
  H   H216      1.0  0.11890  0.17879  0.70535  1.0000
  H   H217      1.0  0.02199  0.16834  0.59892  1.0000
  C   C134      1.0  0.07456  0.38607  0.88093  1.0000
  C   C135      1.0  0.08985  0.07376  0.87468  1.0000
  H   H218      1.0  0.10868  0.36242  0.85660  1.0000
  H   H219      1.0  0.19448  0.49053  0.49263  1.0000
  H   H220      1.0  0.19664  0.02314  0.54647  1.0000
  H   H221      1.0  0.10668  0.39979  0.77967  1.0000
  H   H222      1.0  0.13150  0.14418  0.65860  1.0000
  H   H223      1.0  0.04838  0.47004  0.94964  1.0000
  Fe  Fe24      1.0  0.06214  0.48150  0.87843  1.0000
  H   H224      1.0  0.26454  0.07573  0.96836  1.0000
  C   C136      1.0  0.08657  0.11410  0.69728  1.0000
  H   H225      1.0  0.18628  0.46756  0.52547  1.0000
  S   S43       1.0  0.23855  0.17399  0.96923  1.0000
  C   C137      1.0  0.10174  0.13109  0.68594  1.0000
  C   C138      1.0  0.10929  0.38629  0.85157  1.0000
  H   H226      1.0  0.23473  0.29904  0.96735  1.0000
  C   C139      1.0  0.01388  0.33317  0.60290  1.0000
  N   N11       1.0  0.99968  0.14674  0.57858  1.0000
  H   H227      1.0  0.04400  0.36089  0.62268  1.0000
  H   H228      1.0  0.24176  0.40587  0.98075  1.0000
  H   H229      1.0  0.02108  0.36583  0.66224  1.0000
  C   C140      1.0  0.06371  0.11711  0.90000  1.0000
  C   C141      1.0  0.99272  0.17453  0.56044  1.0000
  S   S44       1.0  0.06459  0.49215  0.81914  1.0000
  C   C142      1.0  0.25144  0.33452  0.96353  1.0000
  H   H230      1.0  0.08938  0.43674  0.85994  1.0000
  H   H231      1.0  0.25711  0.11174  0.51864  1.0000
  S   S45       1.0  0.04491  0.01512  0.89321  1.0000
  H   H232      1.0  0.08349  0.34789  0.77906  1.0000
  C   C143      1.0  0.25328  0.36477  0.96734  1.0000
  C   C144      1.0  0.13016  0.47058  0.96623  1.0000
  H   H233      1.0  0.07497  0.14651  0.58750  1.0000
  H   H234      1.0  0.10423  0.44903  0.78756  1.0000
  H   H235      1.0  0.12030  0.38934  0.83566  1.0000
  H   H236      1.0  0.24232  0.00256  0.54997  1.0000
  C   C145      1.0  0.09527  0.39026  0.78932  1.0000
  H   H237      1.0  0.04284  0.42244  0.95447  1.0000
  H   H238      1.0  0.01482  0.40016  0.64417  1.0000
  C   C146      1.0  0.26017  0.25143  0.50640  1.0000
  H   H239      1.0  0.99828  0.16461  0.63298  1.0000
  S   S46       1.0  0.02368  0.49217  0.80669  1.0000
  H   H240      1.0  0.25771  0.43165  0.56098  1.0000
  H   H241      1.0  0.24800  0.41797  0.51959  1.0000
  H   H242      1.0  0.08730  0.02274  0.98249  1.0000
  H   H243      1.0  0.00025  0.32201  0.54995  1.0000
  C   C147      1.0  0.00401  0.09246  0.56001  1.0000
  H   H244      1.0  0.06068  0.07061  0.90033  1.0000
  H   H245      1.0  0.20798  0.06844  0.51961  1.0000
  C   C148      1.0  0.22912  0.00490  0.49439  1.0000
  H   H246      1.0  0.26496  0.37442  0.96217  1.0000
  C   C149      1.0  0.98918  0.34547  0.65805  1.0000
  H   H247      1.0  0.06468  0.08631  0.94380  1.0000
  H   H248      1.0  0.01218  0.09015  0.58560  1.0000
  C   C150      1.0  0.08179  0.04291  0.96922  1.0000
  H   H249      1.0  0.00184  0.42159  0.54521  1.0000
  H   H250      1.0  0.06513  0.11896  0.87024  1.0000
  H   H251      1.0  0.13740  0.00394  0.89517  1.0000
  H   H252      1.0  0.08293  0.11113  0.97671  1.0000
  C   C151      1.0  0.24016  0.38266  0.97783  1.0000
  C   C152      1.0  0.99844  0.11796  0.63955  1.0000
  C   C153      1.0  0.13660  0.49365  0.94711  1.0000
  H   H253      1.0  0.01149  0.00513  0.96678  1.0000
  H   H254      1.0  0.99644  0.37048  0.55337  1.0000
  H   H255      1.0  0.24534  0.47867  0.55349  1.0000
  N   N12       1.0  0.21148  0.00581  0.50482  1.0000
  H   H256      1.0  0.99751  0.35267  0.68173  1.0000
  S   S47       1.0  0.24005  0.03567  0.98861  1.0000
  H   H257      1.0  0.99765  0.19396  0.57561  1.0000
  H   H258      1.0  0.99308  0.12705  0.52596  1.0000
  H   H259      1.0  0.99672  0.17669  0.53216  1.0000
  H   H260      1.0  0.10028  0.13311  0.97357  1.0000
  C   C154      1.0  0.99363  0.12120  0.55569  1.0000
  H   H261      1.0  0.99545  0.07382  0.55947  1.0000
  C   C155      1.0  0.22503  0.37039  0.98458  1.0000
  H   H262      1.0  0.08347  0.06047  0.98956  1.0000
  H   H263      1.0  0.21153  0.33047  0.98596  1.0000
  S   S48       1.0  0.32181  0.19729  0.96350  1.0000
  H   H264      1.0  0.99088  0.41776  0.58523  1.0000
  C   C156      1.0  0.99371  0.14551  0.61659  1.0000
  H   H265      1.0  0.06815  0.43935  0.98630  1.0000
  H   H266      1.0  0.10341  0.09626  0.99038  1.0000
  H   H267      1.0  0.13795  0.45935  0.98751  1.0000
  C   C157      1.0  0.22319  0.34015  0.98075  1.0000
  H   H268      1.0  0.99450  0.12110  0.66769  1.0000
  H   H269      1.0  0.99189  0.09865  0.62808  1.0000
  C   C158      1.0  0.99884  0.99845  0.96846  1.0000
  C   C159      1.0  0.05373  0.50792  0.99915  1.0000
  S   S49       1.0  0.26982  0.94497  0.37298  1.0000
  H   H270      1.0  0.19256  0.98443  0.43904  1.0000
  H   H271      1.0  0.23266  0.97580  0.14372  1.0000
  H   H272      1.0  0.25420  0.86562  0.43101  1.0000
  S   S50       1.0  0.23110  0.54591  0.41380  1.0000
  Fe  Fe25      1.0  0.25172  0.95011  0.41701  1.0000
  H   H273      1.0  0.03448  0.77332  0.46240  1.0000
  H   H274      1.0  0.25900  0.59277  0.09965  1.0000
  H   H275      1.0  0.20904  0.60990  0.08354  1.0000
  Fe  Fe26      1.0  0.24860  0.50923  0.39626  1.0000
  H   H276      1.0  0.05148  0.73506  0.47184  1.0000
  H   H277      1.0  0.32027  0.94443  0.38293  1.0000
  H   H278      1.0  0.20990  0.63027  0.48004  1.0000
  H   H279      1.0  0.29770  0.51499  0.31276  1.0000
  C   C160      1.0  0.24604  0.86008  0.45184  1.0000
  Fe  Fe27      1.0  0.21119  0.94419  0.02550  1.0000
  H   H280      1.0  0.30692  0.97884  0.21799  1.0000
  H   H281      1.0  0.18016  0.93231  0.16497  1.0000
  H   H282      1.0  0.19264  0.86616  0.16614  1.0000
  S   S51       1.0  0.18692  0.95760  0.04735  1.0000
  S   S52       1.0  0.19530  0.52115  0.02719  1.0000
  H   H283      1.0  0.20028  0.58798  0.04758  1.0000
  S   S53       1.0  0.26526  0.51451  0.35038  1.0000
  H   H284      1.0  0.22153  0.90874  0.24793  1.0000
  H   H285      1.0  0.22378  0.87522  0.22407  1.0000
  H   H286      1.0  0.23645  0.85623  0.13025  1.0000
  H   H287      1.0  0.17374  0.93351  0.11740  1.0000
  C   C161      1.0  0.25469  0.71329  0.40982  1.0000
  C   C162      1.0  0.22384  0.89920  0.22088  1.0000
  H   H288      1.0  0.23016  0.99210  0.46892  1.0000
  Fe  Fe28      1.0  0.25188  0.97348  0.33685  1.0000
  H   H289      1.0  0.20995  0.56105  0.14964  1.0000
  H   H290      1.0  0.20113  0.50248  0.20731  1.0000
  H   H291      1.0  0.23640  0.52916  0.12971  1.0000
  H   H292      1.0  0.28414  0.93666  0.29493  1.0000
  H   H293      1.0  0.25238  0.88186  0.14006  1.0000
  H   H294      1.0  0.27875  0.97866  0.21178  1.0000
  C   C163      1.0  0.24697  0.58990  0.08303  1.0000
  H   H295      1.0  0.23748  0.63465  0.09280  1.0000
  H   H296      1.0  0.25060  0.63125  0.05631  1.0000
  C   C164      1.0  0.26159  0.69008  0.47104  1.0000
  H   H297      1.0  0.29004  0.52634  0.22933  1.0000
  H   H298      1.0  0.19844  0.90896  0.09988  1.0000
  H   H299      1.0  0.22843  0.55301  0.17945  1.0000
  H   H300      1.0  0.29275  0.94364  0.25236  1.0000
  H   H301      1.0  0.99749  0.94897  0.13447  1.0000
  H   H302      1.0  0.24209  0.52196  0.06230  1.0000
  S   S54       1.0  0.23320  0.97576  0.37920  1.0000
  H   H303      1.0  0.21468  0.54426  0.09058  1.0000
  H   H304      1.0  0.09796  0.79237  0.44216  1.0000
  C   C165      1.0  0.20224  0.85322  0.11537  1.0000
  C   C166      1.0  0.23614  0.97618  0.23796  1.0000
  H   H305      1.0  0.21100  0.93441  0.19156  1.0000
  C   C167      1.0  0.23318  0.57425  0.44718  1.0000
  H   H306      1.0  0.26547  0.62979  0.39340  1.0000
  H   H307      1.0  0.21022  0.86245  0.09528  1.0000
  H   H308      1.0  0.09043  0.75123  0.46970  1.0000
  H   H309      1.0  0.00397  0.78849  0.46408  1.0000
  H   H310      1.0  0.25586  0.50419  0.09631  1.0000
  S   S55       1.0  0.21760  0.89565  0.03269  1.0000
  N   N13       1.0  0.24961  0.69102  0.43710  1.0000
  C   C168      1.0  0.23999  0.87518  0.14765  1.0000
  H   H311      1.0  0.30360  0.87862  0.00267  1.0000
  H   H312      1.0  0.24998  0.57856  0.05749  1.0000
  C   C169      1.0  0.30720  0.52519  0.29686  1.0000
  H   H313      1.0  0.21671  0.51081  0.47786  1.0000
  S   S56       1.0  0.24991  0.96274  0.27517  1.0000
  H   H314      1.0  0.07767  0.80028  0.42216  1.0000
  C   C170      1.0  0.25162  0.52585  0.08511  1.0000
  Fe  Fe29      1.0  0.20187  0.99202  0.07820  1.0000
  H   H315      1.0  0.99706  0.88066  0.07645  1.0000
  H   H316      1.0  0.28687  0.55725  0.28551  1.0000
  H   H317      1.0  0.19821  0.90582  0.20353  1.0000
  H   H318      1.0  0.25522  0.54843  0.13649  1.0000
  H   H319      1.0  0.21062  0.96034  0.48847  1.0000
  C   C171      1.0  0.23777  0.88238  0.46949  1.0000
  H   H320      1.0  0.00505  0.91316  0.09423  1.0000
  C   C172      1.0  0.22010  0.56445  0.08009  1.0000
  H   H321      1.0  0.21665  0.58556  0.18547  1.0000
  H   H322      1.0  0.22520  0.60880  0.13286  1.0000
  H   H323      1.0  0.20528  0.82957  0.11767  1.0000
  Fe  Fe30      1.0  0.28082  0.98737  0.39290  1.0000
  H   H324      1.0  0.99136  0.94555  0.04966  1.0000
  C   C173      1.0  0.29539  0.77941  0.03872  1.0000
  C   C174      1.0  0.22106  0.57060  0.16441  1.0000
  C   C175      1.0  0.23165  0.58763  0.13864  1.0000
  H   H325      1.0  0.28258  0.78705  0.04294  1.0000
  C   C176      1.0  0.21967  0.59360  0.45081  1.0000
  H   H326      1.0  0.24338  0.59337  0.15493  1.0000
  C   C177      1.0  0.24389  0.83051  0.46136  1.0000
  H   H327      1.0  0.18902  0.85499  0.10447  1.0000
  C   C178      1.0  0.20571  0.58734  0.07653  1.0000
  N   N14       1.0  0.21053  0.89814  0.15383  1.0000
  H   H328      1.0  0.29573  0.75540  0.04270  1.0000
  H   H329      1.0  0.23626  0.90670  0.21474  1.0000
  H   H330      1.0  0.24475  0.64473  0.43784  1.0000
  C   C179      1.0  0.24464  0.54403  0.11588  1.0000
  H   H331      1.0  0.27472  0.64217  0.43616  1.0000
  C   C180      1.0  0.22759  0.90095  0.14013  1.0000
  H   H332      1.0  0.24145  0.86817  0.17669  1.0000
  H   H333      1.0  0.06013  0.51563  0.02541  1.0000
  H   H334      1.0  0.23824  0.50703  0.47793  1.0000
  H   H335      1.0  0.13872  0.97082  0.00529  1.0000
  H   H336      1.0  0.31829  0.52597  0.31686  1.0000
  Fe  Fe31      1.0  0.18355  0.98921  0.99992  1.0000
  H   H337      1.0  0.22976  0.68163  0.47118  1.0000
  H   H338      1.0  0.30489  0.57072  0.31225  1.0000
  H   H339      1.0  0.30543  0.56647  0.26434  1.0000
  H   H340      1.0  0.20843  0.59124  0.43298  1.0000
  C   C181      1.0  0.18091  0.92023  0.13894  1.0000
  C   C182      1.0  0.23230  0.69649  0.44826  1.0000
  S   S57       1.0  0.31045  0.50636  0.38886  1.0000
  C   C183      1.0  0.24998  0.66120  0.41984  1.0000
  H   H341      1.0  0.25177  0.96017  0.19720  1.0000
  H   H342      1.0  0.07199  0.75456  0.44006  1.0000
  C   C184      1.0  0.24783  0.74474  0.41328  1.0000
  H   H343      1.0  0.22095  0.70250  0.39137  1.0000
  C   C185      1.0  0.24062  0.62034  0.07002  1.0000
  C   C186      1.0  0.19896  0.91692  0.12864  1.0000
  C   C187      1.0  0.24022  0.97120  0.20177  1.0000
  C   C188      1.0  0.99473  0.88481  0.13371  1.0000
  C   C189      1.0  0.22933  0.97985  0.17129  1.0000
  C   C190      1.0  0.99417  0.89876  0.09514  1.0000
  C   C191      1.0  0.29974  0.78664  0.99943  1.0000
  C   C192      1.0  0.21392  0.99279  0.17656  1.0000
  H   H344      1.0  0.25869  0.67163  0.48916  1.0000
  C   C193      1.0  0.21818  0.69248  0.41774  1.0000
  N   N15       1.0  0.23547  0.57198  0.10406  1.0000
  C   C194      1.0  0.22045  0.61578  0.47757  1.0000
  C   C195      1.0  0.29478  0.94649  0.28243  1.0000
  H   H345      1.0  0.25048  0.81369  0.44756  1.0000
  Fe  Fe32      1.0  0.21716  0.50435  0.99945  1.0000
  C   C196      1.0  0.99662  0.76969  0.46881  1.0000
  C   C197      1.0  0.30066  0.55659  0.28886  1.0000
  H   H346      1.0  0.26253  0.53611  0.07431  1.0000
  H   H347      1.0  0.29970  0.97925  0.32338  1.0000
  H   H348      1.0  0.23360  0.92104  0.15107  1.0000
  C   C198      1.0  0.22862  0.87310  0.00334  1.0000
  H   H349      1.0  0.20390  0.93932  0.12704  1.0000
  C   C199      1.0  0.24759  0.57762  0.47059  1.0000
  C   C200      1.0  0.20470  0.86723  0.15371  1.0000
  H   H350      1.0  0.26845  0.71457  0.41102  1.0000
  H   H351      1.0  0.22464  0.83423  0.03443  1.0000
  H   H352      1.0  0.00772  0.88445  0.14621  1.0000
  S   S58       1.0  0.24028  0.92039  0.45965  1.0000
  H   H353      1.0  0.25393  0.75921  0.39428  1.0000
  H   H354      1.0  0.28208  0.88186  0.01086  1.0000
  C   C201      1.0  0.26716  0.64941  0.41088  1.0000
  H   H355      1.0  0.22334  0.55918  0.05185  1.0000
  H   H356      1.0  0.21562  0.66901  0.41351  1.0000
  C   C202      1.0  0.22097  0.99003  0.24324  1.0000
  H   H357      1.0  0.22683  0.90430  0.10980  1.0000
  H   H358      1.0  0.23005  0.61896  0.04888  1.0000
  C   C203      1.0  0.07912  0.76522  0.46357  1.0000
  H   H359      1.0  0.19548  0.58052  0.09295  1.0000
  H   H360      1.0  0.20660  0.70285  0.42628  1.0000
  H   H361      1.0  0.23432  0.74634  0.40524  1.0000
  H   H362      1.0  0.21328  0.85303  0.17149  1.0000
  H   H363      1.0  0.21757  0.99394  0.27082  1.0000
  H   H364      1.0  0.27402  0.66551  0.39566  1.0000
  H   H365      1.0  0.25085  0.70667  0.38113  1.0000
  C   C204      1.0  0.29429  0.50461  0.24045  1.0000
  H   H366      1.0  0.17468  0.89906  0.14017  1.0000
  H   H367      1.0  0.04941  0.78942  0.43461  1.0000
  C   C205      1.0  0.32042  0.82598  0.01405  1.0000
  H   H368      1.0  0.23074  0.71871  0.45934  1.0000
  H   H369      1.0  0.30418  0.78894  0.06000  1.0000
  H   H370      1.0  0.28997  0.83582  0.03538  1.0000
  C   C206      1.0  0.08482  0.79466  0.44860  1.0000
  H   H371      1.0  0.25811  0.56301  0.46829  1.0000
  C   C207      1.0  0.04351  0.79103  0.46079  1.0000
  C   C208      1.0  0.29046  0.83694  0.00507  1.0000
  H   H372      1.0  0.24201  0.66083  0.39353  1.0000
  H   H373      1.0  0.99784  0.89847  0.01976  1.0000
  C   C209      1.0  0.21022  0.91032  0.19206  1.0000
  H   H374      1.0  0.31819  0.83405  0.04194  1.0000
  H   H375      1.0  0.28302  0.98777  0.29144  1.0000
  S   S59       1.0  0.26428  0.99073  0.43972  1.0000
  H   H376      1.0  0.03726  0.54641  0.00233  1.0000
  C   C210      1.0  0.29584  0.97882  0.29343  1.0000
  N   N16       1.0  0.31039  0.50698  0.26397  1.0000
  S   S60       1.0  0.22610  0.97715  0.05860  1.0000
  H   H377      1.0  0.25017  0.75385  0.44108  1.0000
  H   H378      1.0  0.27450  0.68584  0.46390  1.0000
  H   H379      1.0  0.03616  0.81174  0.46017  1.0000
  H   H380      1.0  0.24002  0.80129  0.99473  1.0000
  H   H381      1.0  0.30604  0.93401  0.29327  1.0000
  C   C211      1.0  0.23025  0.84308  0.01108  1.0000
  C   C212      1.0  0.29117  0.86958  0.99537  1.0000
  H   H382      1.0  0.08424  0.81334  0.46732  1.0000
  S   S61       1.0  0.30964  0.70741  0.99700  1.0000
  H   H383      1.0  0.10865  0.96004  0.99549  1.0000
  H   H384      1.0  0.31776  0.53932  0.22503  1.0000
  H   H385      1.0  0.98989  0.97350  0.09739  1.0000
  H   H386      1.0  0.07958  0.70771  0.48406  1.0000
  H   H387      1.0  0.27821  0.82917  0.99340  1.0000
  H   H388      1.0  0.03323  0.50154  0.05164  1.0000
  H   H389      1.0  0.02106  0.50647  0.00925  1.0000
  H   H390      1.0  0.30968  0.77114  0.99278  1.0000
  C   C213      1.0  0.23332  0.82255  0.48839  1.0000
  N   N17       1.0  0.30731  0.99691  0.27252  1.0000
  H   H391      1.0  0.26914  0.73518  0.48155  1.0000
  N   N18       1.0  0.30435  0.81775  0.99291  1.0000
  H   H392      1.0  0.99030  0.86208  0.13213  1.0000
  C   C214      1.0  0.20990  0.99807  0.21272  1.0000
  Fe  Fe33      1.0  0.21861  0.75325  0.53790  1.0000
  S   S62       1.0  0.23566  0.72405  0.57473  1.0000
  C   C215      1.0  0.25408  0.79006  0.65587  1.0000
  Fe  Fe34      1.0  0.18775  0.71949  0.55895  1.0000
  S   S63       1.0  0.20320  0.68814  0.59593  1.0000
  S   S64       1.0  0.15991  0.71152  0.54621  1.0000
  Fe  Fe35      1.0  0.21679  0.72796  0.61637  1.0000
  S   S65       1.0  0.22045  0.73997  0.67739  1.0000
  Fe  Fe36      1.0  0.22084  0.68629  0.55116  1.0000
  S   S66       1.0  0.23113  0.67118  0.95831  1.0000
  S   S67       1.0  0.20049  0.75976  0.58113  1.0000
  H   H393      1.0  0.22594  0.54781  0.51695  1.0000
  Fe  Fe37      1.0  0.06796  0.74444  0.62591  1.0000
  S   S68       1.0  0.05868  0.73431  0.68095  1.0000
  S   S69       1.0  0.09589  0.75222  0.62643  1.0000
  Fe  Fe38      1.0  0.03219  0.74700  0.58675  1.0000
  S   S70       1.0  0.02106  0.73649  0.63960  1.0000
  S   S71       1.0  0.01803  0.76195  0.53172  1.0000
  Fe  Fe39      1.0  0.03900  0.76890  0.66670  1.0000
  S   S72       1.0  0.02962  0.80149  0.70855  1.0000
  Fe  Fe40      1.0  0.04183  0.70299  0.65001  1.0000
  S   S73       1.0  0.03915  0.65447  0.66347  1.0000
  S   S74       1.0  0.04917  0.78093  0.61351  1.0000
  S   S75       1.0  0.05206  0.71160  0.59517  1.0000
  C   C216      1.0  0.09029  0.79572  0.53751  1.0000
  H   H394      1.0  0.24851  0.64867  0.78330  1.0000
  Fe  Fe41      1.0  0.26984  0.71728  0.87476  1.0000
  S   S76       1.0  0.24602  0.73329  0.89540  1.0000
  S   S77       1.0  0.27196  0.70575  0.81432  1.0000
  Fe  Fe42      1.0  0.28821  0.71702  0.95306  1.0000
  C   C217      1.0  0.20721  0.96057  0.54649  1.0000
  Fe  Fe43      1.0  0.25167  0.70037  0.94113  1.0000
  H   H395      1.0  0.22184  0.79391  0.64028  1.0000
  Fe  Fe44      1.0  0.26174  0.76400  0.93034  1.0000
  S   S78       1.0  0.25778  0.81329  0.92967  1.0000
  S   S79       1.0  0.27474  0.68263  0.91882  1.0000
  S   S80       1.0  0.28558  0.74992  0.90700  1.0000
  Fe  Fe45      1.0  0.04725  0.95852  0.81429  1.0000
  H   H396      1.0  0.20930  0.57423  0.98055  1.0000
  S   S81       1.0  0.05297  0.92730  0.76731  1.0000
  H   H397      1.0  0.21999  0.96135  0.55955  1.0000
  H   H398      1.0  0.19138  0.97493  0.50072  1.0000
  H   H399      1.0  0.23334  0.63484  0.75012  1.0000
  C   C218      1.0  0.13115  0.99425  0.91711  1.0000
  H   H400      1.0  0.13105  0.52595  0.90465  1.0000
  Fe  Fe46      1.0  0.04359  0.52464  0.82346  1.0000
  S   S82       1.0  0.04570  0.57313  0.80796  1.0000
  S   S83       1.0  0.04493  0.94551  0.87308  1.0000
  H   H401      1.0  0.06206  0.81249  0.49523  1.0000
  H   H402      1.0  0.99353  0.71449  0.52978  1.0000
  C   C219      1.0  0.10584  0.97583  0.93962  1.0000
  H   H403      1.0  0.24318  0.52724  0.53772  1.0000
  H   H404      1.0  0.25951  0.60182  0.51563  1.0000
  H   H405      1.0  0.25471  0.99457  0.51348  1.0000
  C   C220      1.0  0.24994  0.58837  0.97299  1.0000
  S   S84       1.0  0.15719  0.50616  0.95707  1.0000
  S   S85       1.0  0.23664  0.64649  0.53569  1.0000
  H   H406      1.0  0.31752  0.78070  0.93872  1.0000
  C   C221      1.0  0.22035  0.58651  0.97720  1.0000
  H   H407      1.0  0.20314  0.83471  0.62991  1.0000
  C   C222      1.0  0.00069  0.75221  0.50027  1.0000
  C   C223      1.0  0.24879  0.61876  0.96765  1.0000
  H   H408      1.0  0.22906  0.66773  0.77327  1.0000
  H   H409      1.0  0.10001  0.79688  0.51795  1.0000
  H   H410      1.0  0.04923  0.79066  0.51949  1.0000
  C   C224      1.0  0.24616  0.83553  0.95820  1.0000
  H   H411      1.0  0.01978  0.82063  0.62902  1.0000
  S   S86       1.0  0.20702  0.97353  0.97601  1.0000
  C   C225      1.0  0.25439  0.79411  0.69785  1.0000
  H   H412      1.0  0.10742  0.99259  0.88507  1.0000
  H   H413      1.0  0.22068  0.89127  0.51040  1.0000
  H   H414      1.0  0.25948  0.81534  0.70686  1.0000
  H   H415      1.0  0.01842  0.84803  0.59443  1.0000
  C   C226      1.0  0.04059  0.63251  0.70427  1.0000
  C   C227      1.0  0.04429  0.64405  0.73929  1.0000
  C   C228      1.0  0.04581  0.62553  0.77047  1.0000
  C   C229      1.0  0.04365  0.59523  0.76729  1.0000
  C   C230      1.0  0.04008  0.58368  0.73222  1.0000
  C   C231      1.0  0.03858  0.60220  0.70103  1.0000
  H   H416      1.0  0.04586  0.66724  0.74245  1.0000
  H   H417      1.0  0.04856  0.63477  0.79740  1.0000
  H   H418      1.0  0.03839  0.56051  0.72915  1.0000
  H   H419      1.0  0.03578  0.59292  0.67415  1.0000
  C   C232      1.0  0.03658  0.83624  0.72490  1.0000
  C   C233      1.0  0.02835  0.85009  0.75277  1.0000
  C   C234      1.0  0.03318  0.87775  0.76625  1.0000
  C   C235      1.0  0.04631  0.89214  0.75189  1.0000
  C   C236      1.0  0.05456  0.87826  0.72407  1.0000
  C   C237      1.0  0.04978  0.85055  0.71071  1.0000
  H   H420      1.0  0.01812  0.83935  0.76406  1.0000
  H   H421      1.0  0.02665  0.88802  0.78755  1.0000
  H   H422      1.0  0.06472  0.88909  0.71264  1.0000
  H   H423      1.0  0.05628  0.84035  0.68931  1.0000
  H   H424      1.0  0.21475  0.83266  0.59094  1.0000
  C   C238      1.0  0.14251  0.72194  0.57048  1.0000
  C   C239      1.0  0.14348  0.74301  0.59804  1.0000
  C   C240      1.0  0.12913  0.75171  0.61500  1.0000
  C   C241      1.0  0.11365  0.73929  0.60503  1.0000
  C   C242      1.0  0.11276  0.71764  0.57820  1.0000
  C   C243      1.0  0.12705  0.70928  0.56080  1.0000
  H   H425      1.0  0.15524  0.75299  0.60582  1.0000
  H   H426      1.0  0.13003  0.76839  0.63581  1.0000
  H   H427      1.0  0.10108  0.70756  0.57054  1.0000
  H   H428      1.0  0.12615  0.69290  0.53961  1.0000
  C   C244      1.0  0.23575  0.57208  0.97772  1.0000
  H   H429      1.0  0.08264  0.81597  0.53700  1.0000
  C   C245      1.0  0.26258  0.79761  0.57953  1.0000
  H   H430      1.0  0.07248  0.76589  0.55571  1.0000
  C   C246      1.0  0.21580  0.83719  0.62073  1.0000
  C   C247      1.0  0.23462  0.72883  0.71507  1.0000
  C   C248      1.0  0.23216  0.73962  0.75024  1.0000
  C   C249      1.0  0.24341  0.73273  0.78079  1.0000
  C   C250      1.0  0.25733  0.71492  0.77662  1.0000
  C   C251      1.0  0.25976  0.70397  0.74149  1.0000
  C   C252      1.0  0.24848  0.71082  0.71089  1.0000
  H   H431      1.0  0.22155  0.75371  0.75383  1.0000
  H   H432      1.0  0.24141  0.74157  0.80746  1.0000
  H   H433      1.0  0.27049  0.69016  0.73790  1.0000
  H   H434      1.0  0.25060  0.70240  0.68407  1.0000
  H   H435      1.0  0.99392  0.81498  0.67968  1.0000
  H   H436      1.0  0.00271  0.52335  0.94069  1.0000
  N   N19       1.0  0.09078  0.88421  0.85923  1.0000
  C   C253      1.0  0.10269  0.90041  0.83716  1.0000
  C   C254      1.0  0.09868  0.85485  0.86889  1.0000
  C   C255      1.0  0.08861  0.90149  0.89362  1.0000
  C   C256      1.0  0.07453  0.88208  0.83609  1.0000
  C   C257      1.0  0.09800  0.93249  0.82780  1.0000
  C   C258      1.0  0.10122  0.83465  0.83613  1.0000
  C   C259      1.0  0.08220  0.88530  0.92648  1.0000
  C   C260      1.0  0.06122  0.86224  0.85015  1.0000
  H   H437      1.0  0.11534  0.90033  0.85184  1.0000
  H   H438      1.0  0.10403  0.88967  0.81034  1.0000
  H   H439      1.0  0.09148  0.84231  0.88779  1.0000
  H   H440      1.0  0.11100  0.85760  0.88443  1.0000
  H   H441      1.0  0.10059  0.91114  0.90440  1.0000
  H   H442      1.0  0.07995  0.92030  0.88741  1.0000
  H   H443      1.0  0.06846  0.90393  0.83275  1.0000
  H   H444      1.0  0.07642  0.87571  0.80732  1.0000
  H   H445      1.0  0.09724  0.94600  0.85267  1.0000
  H   H446      1.0  0.10779  0.94196  0.81212  1.0000
  H   H447      1.0  0.08625  0.93446  0.81001  1.0000
  H   H448      1.0  0.08945  0.83084  0.81919  1.0000
  H   H449      1.0  0.11064  0.84299  0.81863  1.0000
  H   H450      1.0  0.10593  0.81309  0.84677  1.0000
  H   H451      1.0  0.07963  0.90153  0.94786  1.0000
  H   H452      1.0  0.09175  0.86991  0.93934  1.0000
  H   H453      1.0  0.07051  0.87393  0.91931  1.0000
  H   H454      1.0  0.05251  0.87501  0.86607  1.0000
  H   H455      1.0  0.06616  0.84338  0.86666  1.0000
  H   H456      1.0  0.05395  0.85263  0.82624  1.0000
  H   H457      1.0  0.22243  0.52068  0.55031  1.0000
  H   H458      1.0  0.10181  0.51136  0.89049  1.0000
  C   C261      1.0  0.99439  0.83675  0.61226  1.0000
  H   H459      1.0  0.26768  0.83784  0.64475  1.0000
  H   H460      1.0  0.01268  0.81198  0.58198  1.0000
  S   S87       1.0  0.06767  0.99053  0.82943  1.0000
  N   N20       1.0  0.09348  0.65190  0.68365  1.0000
  C   C262      1.0  0.08786  0.66915  0.71559  1.0000
  C   C263      1.0  0.08445  0.62345  0.68267  1.0000
  C   C264      1.0  0.08875  0.66936  0.64897  1.0000
  C   C265      1.0  0.11203  0.64759  0.68940  1.0000
  C   C266      1.0  0.09522  0.69979  0.72080  1.0000
  C   C267      1.0  0.08713  0.60405  0.71732  1.0000
  C   C268      1.0  0.08573  0.65227  0.61288  1.0000
  C   C269      1.0  0.12041  0.62899  0.66096  1.0000
  H   H461      1.0  0.07407  0.67179  0.71309  1.0000
  H   H462      1.0  0.09109  0.65758  0.74207  1.0000
  H   H463      1.0  0.08754  0.60966  0.65935  1.0000
  H   H464      1.0  0.07091  0.62767  0.67764  1.0000
  H   H465      1.0  0.07699  0.68197  0.65145  1.0000
  H   H466      1.0  0.09825  0.68592  0.64442  1.0000
  H   H467      1.0  0.11824  0.66896  0.68883  1.0000
  H   H468      1.0  0.11597  0.63900  0.71736  1.0000
  H   H469      1.0  0.08853  0.71162  0.74172  1.0000
  H   H470      1.0  0.10848  0.69856  0.73132  1.0000
  H   H471      1.0  0.09388  0.71321  0.69543  1.0000
  H   H472      1.0  0.08116  0.58279  0.71153  1.0000
  H   H473      1.0  0.10042  0.59945  0.72539  1.0000
  H   H474      1.0  0.08094  0.61341  0.74068  1.0000
  H   H475      1.0  0.08389  0.66795  0.58963  1.0000
  H   H476      1.0  0.07416  0.63963  0.61263  1.0000
  H   H477      1.0  0.09626  0.63771  0.60739  1.0000
  H   H478      1.0  0.12290  0.64233  0.63664  1.0000
  H   H479      1.0  0.11338  0.60958  0.65202  1.0000
  H   H480      1.0  0.13241  0.62011  0.67377  1.0000
  H   H481      1.0  0.25018  0.85206  0.66564  1.0000
  N   N21       1.0  0.24528  0.81378  0.63241  1.0000
  C   C270      1.0  0.04398  0.53444  0.98161  1.0000
  N   N22       1.0  0.06895  0.76622  0.49636  1.0000
  H   H482      1.0  0.23481  0.90733  0.96687  1.0000
  H   H483      1.0  0.05281  0.54987  0.97074  1.0000
  H   H484      1.0  0.21648  0.83930  0.52596  1.0000
  S   S88       1.0  0.08416  0.96894  0.93462  1.0000
  H   H485      1.0  0.24196  0.79136  0.70792  1.0000
  H   H486      1.0  0.27172  0.81442  0.58789  1.0000
  H   H487      1.0  0.00365  0.78913  0.65381  1.0000
  H   H488      1.0  0.29287  0.81830  0.93727  1.0000
  C   C271      1.0  0.25202  0.86571  0.60930  1.0000
  H   H489      1.0  0.26248  0.77681  0.71168  1.0000
  C   C272      1.0  0.22994  0.52579  0.52728  1.0000
  N   N23       1.0  0.23001  0.63675  0.84581  1.0000
  C   C273      1.0  0.21546  0.62798  0.86650  1.0000
  C   C274      1.0  0.23176  0.66919  0.84998  1.0000
  C   C275      1.0  0.24532  0.62177  0.86411  1.0000
  C   C276      1.0  0.22696  0.62756  0.80620  1.0000
  C   C277      1.0  0.21283  0.59496  0.87049  1.0000
  C   C278      1.0  0.21596  0.68762  0.83883  1.0000
  C   C279      1.0  0.26182  0.62757  0.84767  1.0000
  C   C280      1.0  0.23504  0.64587  0.77710  1.0000
  H   H490      1.0  0.21649  0.63723  0.89469  1.0000
  H   H491      1.0  0.20362  0.63712  0.85304  1.0000
  H   H492      1.0  0.24178  0.67764  0.83427  1.0000
  H   H493      1.0  0.23562  0.67454  0.87906  1.0000
  H   H494      1.0  0.24692  0.62785  0.89359  1.0000
  H   H495      1.0  0.24419  0.59771  0.86356  1.0000
  H   H496      1.0  0.23110  0.60452  0.80291  1.0000
  H   H497      1.0  0.21345  0.62784  0.79730  1.0000
  H   H498      1.0  0.21345  0.58334  0.84413  1.0000
  H   H499      1.0  0.22190  0.58512  0.89174  1.0000
  H   H500      1.0  0.20037  0.59139  0.88017  1.0000
  H   H501      1.0  0.21937  0.71065  0.83489  1.0000
  H   H502      1.0  0.20935  0.68015  0.81293  1.0000
  H   H503      1.0  0.20737  0.68740  0.86100  1.0000
  H   H504      1.0  0.27210  0.61784  0.86611  1.0000
  H   H505      1.0  0.26442  0.65099  0.84556  1.0000
  H   H506      1.0  0.26238  0.61683  0.82071  1.0000
  H   H507      1.0  0.23926  0.82057  0.57363  1.0000
  H   H508      1.0  0.25981  0.63101  0.96403  1.0000
  C   C281      1.0  0.31821  0.80436  0.93346  1.0000
  H   H509      1.0  0.24854  0.76847  0.64932  1.0000
  S   S89       1.0  0.00065  0.97426  0.89830  1.0000
  C   C282      1.0  0.25406  0.84211  0.63988  1.0000
  H   H510      1.0  0.05079  0.73916  0.51986  1.0000
  H   H511      1.0  0.22713  0.82214  0.67188  1.0000
  S   S90       1.0  0.02700  0.99333  0.81419  1.0000
  C   C283      1.0  0.11413  0.98788  0.91130  1.0000
  H   H512      1.0  0.24038  0.86519  0.59131  1.0000
  C   C284      1.0  0.07995  0.76812  0.53163  1.0000
  C   C285      1.0  0.05945  0.73828  0.49774  1.0000
  C   C286      1.0  0.21918  0.61690  0.97168  1.0000
  H   H513      1.0  0.03505  0.52831  0.95852  1.0000
  C   C287      1.0  0.11490  0.96945  0.97337  1.0000
  S   S91       1.0  0.20464  0.71512  0.51274  1.0000
  C   C288      1.0  0.23336  0.63316  0.96664  1.0000
  H   H514      1.0  0.25032  0.87448  0.92741  1.0000
  H   H515      1.0  0.21923  0.86005  0.62633  1.0000
  C   C289      1.0  0.01225  0.82836  0.60400  1.0000
  C   C290      1.0  0.22762  0.81567  0.64273  1.0000
  Fe  Fe47      1.0  0.02588  0.98214  0.87467  1.0000
  C   C291      1.0  0.14020  0.98825  0.95102  1.0000
  C   C292      1.0  0.23593  0.88429  0.97308  1.0000
  S   S92       1.0  0.26511  0.73285  0.97809  1.0000
  C   C293      1.0  0.24471  0.86559  0.95076  1.0000
  H   H516      1.0  0.26731  0.78781  0.65004  1.0000
  H   H517      1.0  0.25236  0.88753  0.62228  1.0000
  H   H518      1.0  0.26995  0.71238  0.52108  1.0000
  C   C294      1.0  0.99079  0.98344  0.93907  1.0000
  C   C295      1.0  0.06992  0.70993  0.50368  1.0000
  H   H519      1.0  0.31594  0.80736  0.90326  1.0000
  H   H520      1.0  0.19859  0.97050  0.56524  1.0000
  H   H521      1.0  0.23776  0.78463  0.58821  1.0000
  Fe  Fe48      1.0  0.06410  0.97945  0.88800  1.0000
  C   C296      1.0  0.13197  0.97553  0.97905  1.0000
  H   H522      1.0  0.26275  0.86496  0.59220  1.0000
  C   C297      1.0  0.22724  0.87440  0.49662  1.0000
  H   H523      1.0  0.26733  0.77589  0.58946  1.0000
  C   C298      1.0  0.22491  0.84483  0.50575  1.0000
  H   H524      1.0  0.30792  0.84551  0.94601  1.0000
  C   C299      1.0  0.12623  0.50804  0.91956  1.0000
  C   C300      1.0  0.99075  0.72823  0.50587  1.0000
  H   H525      1.0  0.26151  0.79675  0.54905  1.0000
  C   C301      1.0  0.24534  0.80435  0.59296  1.0000
  H   H526      1.0  0.20400  0.93724  0.54362  1.0000
  C   C302      1.0  0.24833  0.59967  0.49752  1.0000
  H   H527      1.0  0.08920  0.74991  0.53385  1.0000
  C   C303      1.0  0.23477  0.61887  0.50136  1.0000
  H   H528      1.0  0.20718  0.62783  0.97095  1.0000
  H   H529      1.0  0.25030  0.72559  0.50235  1.0000
  S   S93       1.0  0.04243  0.51601  0.88444  1.0000
  C   C304      1.0  0.30515  0.82250  0.95220  1.0000
  S   S94       1.0  0.23138  0.78460  0.49949  1.0000
  H   H530      1.0  0.09703  0.79452  0.56525  1.0000
  H   H531      1.0  0.19514  0.50079  0.54035  1.0000
  H   H532      1.0  0.07562  0.70808  0.53225  1.0000
  C   C305      1.0  0.26254  0.71763  0.49483  1.0000
  H   H533      1.0  0.24059  0.96790  0.52599  1.0000
  H   H534      1.0  0.26191  0.57740  0.97338  1.0000
  C   C306      1.0  0.22783  0.50373  0.49557  1.0000
  H   H535      1.0  0.99462  0.77695  0.59240  1.0000
  H   H536      1.0  0.06162  0.69104  0.49947  1.0000
  H   H537      1.0  0.99566  0.85305  0.63466  1.0000
  C   C307      1.0  0.23894  0.82434  0.98860  1.0000
  C   C308      1.0  0.99446  0.50870  0.95308  1.0000
  C   C309      1.0  0.99122  0.79849  0.65785  1.0000
  C   C310      1.0  0.10962  0.49979  0.91144  1.0000
  C   C311      1.0  0.24219  0.99166  0.52303  1.0000
  H   H538      1.0  0.28880  0.78082  0.98057  1.0000
  S   S95       1.0  0.23791  0.53388  0.98428  1.0000
  C   C312      1.0  0.05630  0.79089  0.49457  1.0000
  C   C313      1.0  0.20501  0.97528  0.50825  1.0000
  H   H539      1.0  0.28735  0.87352  0.96584  1.0000
  H   H540      1.0  0.06381  0.50295  0.98098  1.0000
  S   S96       1.0  0.16145  0.99820  0.95692  1.0000
  Fe  Fe49      1.0  0.40710  0.24157  0.07854  1.0000
  S   S97       1.0  0.42874  0.27183  0.08781  1.0000
  S   S98       1.0  0.38267  0.26021  0.05106  1.0000
  Fe  Fe50      1.0  0.42448  0.19256  0.12564  1.0000
  S   S99       1.0  0.44726  0.21941  0.13802  1.0000
  S   S100      1.0  0.41845  0.14542  0.14206  1.0000
  Fe  Fe51      1.0  0.42982  0.25751  0.14669  1.0000
  S   S101      1.0  0.43499  0.28695  0.19716  1.0000
  Fe  Fe52      1.0  0.44504  0.23255  0.07786  1.0000
  S   S102      1.0  0.46991  0.23932  0.05179  1.0000
  S   S103      1.0  0.40723  0.22962  0.13837  1.0000
  S   S104      1.0  0.42321  0.20319  0.06461  1.0000
  Fe  Fe53      1.0  0.40530  0.47384  0.33570  1.0000
  C   C314      1.0  0.36194  0.20031  0.09934  1.0000
  H   H541      1.0  0.36314  0.12935  0.07226  1.0000
  H   H542      1.0  0.62535  0.28144  0.12284  1.0000
  H   H543      1.0  0.35831  0.16200  0.04712  1.0000
  S   S105      1.0  0.46691  0.47122  0.39423  1.0000
  H   H544      1.0  0.64572  0.24762  0.15069  1.0000
  S   S106      1.0  0.43132  0.06229  0.28442  1.0000
  Fe  Fe54      1.0  0.42886  0.45491  0.27801  1.0000
  S   S107      1.0  0.42821  0.42412  0.22803  1.0000
  C   C315      1.0  0.57360  0.00391  0.42741  1.0000
  S   S108      1.0  0.42695  0.44184  0.33666  1.0000
  N   N24       1.0  0.64605  0.28469  0.08954  1.0000
  C   C316      1.0  0.44033  0.00366  0.20670  1.0000
  C   C317      1.0  0.63702  0.26233  0.06561  1.0000
  H   H545      1.0  0.50396  0.31157  0.15037  1.0000
  H   H546      1.0  0.35011  0.42713  0.36249  1.0000
  H   H547      1.0  0.33213  0.15479  0.05900  1.0000
  C   C318      1.0  0.49799  0.35297  0.12560  1.0000
  C   C319      1.0  0.43249  0.32508  0.20525  1.0000
  C   C320      1.0  0.42605  0.34464  0.17796  1.0000
  C   C321      1.0  0.42490  0.37474  0.18552  1.0000
  C   C322      1.0  0.42991  0.38578  0.22052  1.0000
  C   C323      1.0  0.43618  0.36619  0.24792  1.0000
  C   C324      1.0  0.43752  0.33612  0.24024  1.0000
  H   H548      1.0  0.42202  0.33662  0.15097  1.0000
  H   H549      1.0  0.42003  0.38962  0.16404  1.0000
  H   H550      1.0  0.44018  0.37423  0.27491  1.0000
  H   H551      1.0  0.44254  0.32129  0.26162  1.0000
  C   C325      1.0  0.42174  0.12322  0.18257  1.0000
  C   C326      1.0  0.43215  0.13132  0.21317  1.0000
  C   C327      1.0  0.43478  0.11249  0.24395  1.0000
  C   C328      1.0  0.42702  0.08533  0.24489  1.0000
  C   C329      1.0  0.41637  0.07742  0.21454  1.0000
  C   C330      1.0  0.41385  0.09615  0.18360  1.0000
  H   H552      1.0  0.43832  0.15198  0.21301  1.0000
  H   H553      1.0  0.44296  0.11902  0.26724  1.0000
  H   H554      1.0  0.41014  0.05685  0.21482  1.0000
  H   H555      1.0  0.40575  0.08957  0.16022  1.0000
  Fe  Fe55      1.0  0.44353  0.47962  0.35308  1.0000
  C   C331      1.0  0.47156  0.49791  0.46383  1.0000
  H   H556      1.0  0.46171  0.27728  0.15075  1.0000
  H   H557      1.0  0.48179  0.01527  0.19939  1.0000
  H   H558      1.0  0.48911  0.31789  0.20154  1.0000
  H   H559      1.0  0.50543  0.36149  0.14998  1.0000
  C   C332      1.0  0.36622  0.24318  0.02442  1.0000
  C   C333      1.0  0.35046  0.25695  0.02077  1.0000
  H   H560      1.0  0.34874  0.27799  0.03321  1.0000
  H   H561      1.0  0.38161  0.15624  0.19497  1.0000
  H   H562      1.0  0.50281  0.24886  0.03016  1.0000
  C   C334      1.0  0.47878  0.23427  0.00872  1.0000
  C   C335      1.0  0.35714  0.22041  0.13047  1.0000
  H   H563      1.0  0.39256  0.14014  0.07978  1.0000
  H   H564      1.0  0.61595  0.25531  0.02586  1.0000
  H   H565      1.0  0.47304  0.33205  0.06937  1.0000
  C   C336      1.0  0.37496  0.15905  0.13636  1.0000
  H   H566      1.0  0.34533  0.13371  0.11895  1.0000
  C   C337      1.0  0.38426  0.15462  0.06178  1.0000
  H   H567      1.0  0.38907  0.17696  0.06333  1.0000
  H   H568      1.0  0.65271  0.47867  0.48217  1.0000
  Fe  Fe56      1.0  0.42634  0.01557  0.30381  1.0000
  C   C338      1.0  0.46213  0.32331  0.08182  1.0000
  H   H569      1.0  0.36477  0.01428  0.36201  1.0000
  C   C339      1.0  0.36826  0.21610  0.00788  1.0000
  H   H570      1.0  0.48249  0.37118  0.18198  1.0000
  H   H571      1.0  0.36558  0.18267  0.18362  1.0000
  H   H572      1.0  0.32875  0.18911  0.08175  1.0000
  C   C340      1.0  0.33967  0.00901  0.37726  1.0000
  S   S109      1.0  0.38103  0.45391  0.35163  1.0000
  H   H573      1.0  0.50547  0.35457  0.10156  1.0000
  C   C341      1.0  0.33247  0.46126  0.37339  1.0000
  H   H574      1.0  0.46747  0.31203  0.19967  1.0000
  C   C342      1.0  0.48873  0.01031  0.48399  1.0000
  C   C343      1.0  0.48629  0.26340  0.17081  1.0000
  H   H575      1.0  0.46083  0.36323  0.18498  1.0000
  C   C344      1.0  0.47457  0.28245  0.14466  1.0000
  H   H576      1.0  0.64102  0.29654  0.17374  1.0000
  H   H577      1.0  0.41355  0.00072  0.19846  1.0000
  H   H578      1.0  0.51531  0.46247  0.48610  1.0000
  H   H579      1.0  0.38515  0.14703  0.03320  1.0000
  C   C345      1.0  0.65250  0.30718  0.06440  1.0000
  C   C346      1.0  0.37028  0.16093  0.17633  1.0000
  H   H580      1.0  0.46796  0.01883  0.14175  1.0000
  H   H581      1.0  0.46096  0.29991  0.07525  1.0000
  H   H582      1.0  0.62612  0.31519  0.09908  1.0000
  C   C347      1.0  0.34815  0.45036  0.36503  1.0000
  H   H583      1.0  0.62720  0.28673  0.01597  1.0000
  H   H584      1.0  0.44449  0.05925  0.12889  1.0000
  N   N25       1.0  0.47718  0.31493  0.14630  1.0000
  C   C348      1.0  0.34502  0.15779  0.11487  1.0000
  N   N26       1.0  0.38024  0.38544  0.26803  1.0000
  C   C349      1.0  0.37911  0.35283  0.26430  1.0000
  C   C350      1.0  0.36500  0.39650  0.28516  1.0000
  C   C351      1.0  0.39540  0.39368  0.29217  1.0000
  C   C352      1.0  0.38149  0.39851  0.23049  1.0000
  C   C353      1.0  0.39466  0.33684  0.25212  1.0000
  C   C354      1.0  0.34858  0.39557  0.26060  1.0000
  C   C355      1.0  0.39692  0.38021  0.33109  1.0000
  C   C356      1.0  0.38073  0.43219  0.22811  1.0000
  H   H585      1.0  0.37603  0.34255  0.29046  1.0000
  H   H586      1.0  0.36876  0.34708  0.24386  1.0000
  H   H587      1.0  0.36647  0.41919  0.29498  1.0000
  H   H588      1.0  0.36306  0.38384  0.31044  1.0000
  H   H589      1.0  0.40695  0.38816  0.27903  1.0000
  H   H590      1.0  0.39583  0.41768  0.29570  1.0000
  H   H591      1.0  0.39337  0.39167  0.21948  1.0000
  H   H592      1.0  0.37175  0.38988  0.21034  1.0000
  H   H593      1.0  0.39219  0.31318  0.24990  1.0000
  H   H594      1.0  0.39781  0.34412  0.22468  1.0000
  H   H595      1.0  0.40555  0.33901  0.27231  1.0000
  H   H596      1.0  0.34859  0.41056  0.23676  1.0000
  H   H597      1.0  0.34571  0.37325  0.25104  1.0000
  H   H598      1.0  0.33830  0.40297  0.27690  1.0000
  H   H599      1.0  0.40868  0.38727  0.34586  1.0000
  H   H600      1.0  0.39741  0.35612  0.33076  1.0000
  H   H601      1.0  0.36811  0.22489  0.14980  1.0000
  H   H602      1.0  0.39258  0.44040  0.21917  1.0000
  H   H603      1.0  0.37859  0.44328  0.25411  1.0000
  H   H604      1.0  0.37077  0.43946  0.20716  1.0000
  H   H605      1.0  0.45094  0.33449  0.06821  1.0000
  H   H606      1.0  0.63149  0.24552  0.08256  1.0000
  H   H607      1.0  0.43813  0.02549  0.21821  1.0000
  H   H608      1.0  0.38629  0.17215  0.13458  1.0000
  C   C357      1.0  0.63403  0.29823  0.11429  1.0000
  H   H609      1.0  0.64370  0.20487  0.99200  1.0000
  H   H610      1.0  0.64583  0.25021  0.04906  1.0000
  H   H611      1.0  0.35399  0.20653  0.07418  1.0000
  H   H612      1.0  0.46201  0.06530  0.16156  1.0000
  H   H613      1.0  0.37900  0.13592  0.13305  1.0000
  H   H614      1.0  0.48432  0.26742  0.20005  1.0000
  S   S110      1.0  0.41945  0.00660  0.36186  1.0000
  N   N27       1.0  0.36188  0.16794  0.10621  1.0000
  H   H615      1.0  0.48712  0.36755  0.11900  1.0000
  H   H616      1.0  0.49174  0.03309  0.48629  1.0000
  C   C358      1.0  0.35516  0.99897  0.36658  1.0000
  C   C359      1.0  0.49381  0.46653  0.44672  1.0000
  C   C360      1.0  0.36141  0.46918  0.36082  1.0000
  C   C361      1.0  0.36604  0.15295  0.07128  1.0000
  H   H617      1.0  0.48342  0.24015  0.16560  1.0000
  H   H618      1.0  0.35234  0.24145  0.11825  1.0000
  H   H619      1.0  0.61345  0.28720  0.05281  1.0000
  H   H620      1.0  0.34694  0.21218  0.14560  1.0000
  C   C362      1.0  0.32987  0.49118  0.37793  1.0000
  C   C363      1.0  0.62262  0.27404  0.03882  1.0000
  C   C364      1.0  0.46808  0.03700  0.23940  1.0000
  S   S111      1.0  0.40665  0.48553  0.27645  1.0000
  H   H621      1.0  0.65421  0.32013  0.14988  1.0000
  H   H622      1.0  0.33753  0.03210  0.38088  1.0000
  H   H623      1.0  0.46249  0.35311  0.12629  1.0000
  C   C365      1.0  0.49559  0.24103  0.00612  1.0000
  H   H624      1.0  0.37446  0.20728  0.09307  1.0000
  H   H625      1.0  0.45084  0.32208  0.13331  1.0000
  C   C366      1.0  0.47711  0.32401  0.18600  1.0000
  H   H626      1.0  0.34240  0.01813  0.28104  1.0000
  H   H627      1.0  0.36116  0.14415  0.18217  1.0000
  H   H628      1.0  0.47593  0.27397  0.11666  1.0000
  H   H629      1.0  0.38678  0.38797  0.34745  1.0000
  C   C367      1.0  0.46281  0.32914  0.12345  1.0000
  H   H630      1.0  0.34133  0.16674  0.14112  1.0000
  H   H631      1.0  0.44191  0.05667  0.17585  1.0000
  C   C368      1.0  0.64149  0.31200  0.15041  1.0000
  H   H632      1.0  0.47136  0.01716  0.43598  1.0000
  H   H633      1.0  0.49498  0.30903  0.10538  1.0000
  H   H634      1.0  0.39550  0.01573  0.45346  1.0000
  C   C369      1.0  0.45566  0.01931  0.15321  1.0000
  C   C370      1.0  0.33057  0.16528  0.08579  1.0000
  H   H635      1.0  0.65330  0.22358  0.11626  1.0000
  H   H636      1.0  0.47515  0.35977  0.22413  1.0000
  C   C371      1.0  0.49365  0.32083  0.13160  1.0000
  H   H637      1.0  0.49950  0.26603  0.16603  1.0000
  S   S112      1.0  0.44679  0.49110  0.29342  1.0000
  C   C372      1.0  0.47377  0.35646  0.19394  1.0000
  H   H638      1.0  0.42268  0.01045  0.15762  1.0000
  C   C373      1.0  0.45087  0.05187  0.15552  1.0000
  H   H639      1.0  0.57905  0.02096  0.41071  1.0000
  H   H640      1.0  0.38038  0.20564  0.00952  1.0000
  C   C374      1.0  0.47796  0.47936  0.43784  1.0000
  H   H641      1.0  0.46015  0.03124  0.26156  1.0000
  H   H642      1.0  0.37690  0.00302  0.43044  1.0000
  H   H643      1.0  0.48019  0.04336  0.25324  1.0000
  C   C375      1.0  0.33680  0.24354  0.00166  1.0000
  H   H644      1.0  0.55691  0.03333  0.45103  1.0000
  C   C376      1.0  0.50310  0.47219  0.48050  1.0000
  H   H645      1.0  0.64215  0.31898  0.04839  1.0000
  H   H646      1.0  0.63359  0.33097  0.15711  1.0000
  N   N28       1.0  0.45632  0.00172  0.18825  1.0000
  H   H647      1.0  0.57725  0.03232  0.47375  1.0000
  H   H648      1.0  0.32472  0.25425  0.99948  1.0000
  C   C377      1.0  0.47076  0.01058  0.21453  1.0000
  C   C378      1.0  0.56718  0.01821  0.46174  1.0000
  H   H649      1.0  0.49903  0.45230  0.42701  1.0000
  H   H650      1.0  0.46271  0.05639  0.22450  1.0000
  H   H651      1.0  0.33590  0.00680  0.23446  1.0000
  H   H652      1.0  0.44734  0.00934  0.13111  1.0000
  H   H653      1.0  0.32811  0.47975  0.29687  1.0000
  C   C379      1.0  0.47711  0.00131  0.45525  1.0000
  H   H654      1.0  0.32251  0.44646  0.37716  1.0000
  C   C380      1.0  0.33876  0.99943  0.26323  1.0000
  H   H655      1.0  0.51061  0.40394  0.63390  1.0000
  Fe  Fe57      1.0  0.56721  0.22512  0.88199  1.0000
  S   S113      1.0  0.54849  0.26089  0.89139  1.0000
  S   S114      1.0  0.58869  0.20967  0.92310  1.0000
  Fe  Fe58      1.0  0.54758  0.20451  0.81146  1.0000
  S   S115      1.0  0.52777  0.23939  0.81604  1.0000
  S   S116      1.0  0.54536  0.17500  0.76038  1.0000
  Fe  Fe59      1.0  0.54852  0.27025  0.83029  1.0000
  S   S117      1.0  0.54766  0.31914  0.81442  1.0000
  Fe  Fe60      1.0  0.52881  0.22806  0.87645  1.0000
  S   S118      1.0  0.50312  0.22181  0.89857  1.0000
  S   S119      1.0  0.56849  0.23626  0.82205  1.0000
  S   S120      1.0  0.54738  0.19139  0.87068  1.0000
  C   C381      1.0  0.50346  0.38812  0.61609  1.0000
  S   S121      1.0  0.54520  0.02474  0.61986  1.0000
  S   S122      1.0  0.53779  0.03856  0.72722  1.0000
  Fe  Fe61      1.0  0.54653  0.44674  0.65268  1.0000
  S   S123      1.0  0.55205  0.45728  0.59410  1.0000
  S   S124      1.0  0.54447  0.39795  0.66724  1.0000
  H   H656      1.0  0.51402  0.28516  0.85948  1.0000
  H   H657      1.0  0.48780  0.32445  0.91843  1.0000
  H   H658      1.0  0.51288  0.10952  0.87060  1.0000
  C   C382      1.0  0.51505  0.37188  0.83945  1.0000
  C   C383      1.0  0.55001  0.01588  0.51348  1.0000
  C   C384      1.0  0.52209  0.31515  0.93749  1.0000
  H   H659      1.0  0.49005  0.29596  0.81263  1.0000
  S   S125      1.0  0.52426  0.47717  0.64983  1.0000
  H   H660      1.0  0.63217  0.06287  0.70643  1.0000
  C   C385      1.0  0.54710  0.34042  0.77295  1.0000
  C   C386      1.0  0.54526  0.32807  0.73794  1.0000
  C   C387      1.0  0.54455  0.34598  0.70616  1.0000
  C   C388      1.0  0.54568  0.37653  0.70866  1.0000
  C   C389      1.0  0.54751  0.38888  0.74367  1.0000
  C   C390      1.0  0.54821  0.37098  0.77544  1.0000
  H   H661      1.0  0.54443  0.30470  0.73531  1.0000
  H   H662      1.0  0.54324  0.33599  0.67939  1.0000
  H   H663      1.0  0.54846  0.41224  0.74631  1.0000
  H   H664      1.0  0.54980  0.38094  0.80220  1.0000
  C   C391      1.0  0.54367  0.13686  0.75200  1.0000
  C   C392      1.0  0.54548  0.11600  0.78014  1.0000
  C   C393      1.0  0.54373  0.08611  0.77197  1.0000
  C   C394      1.0  0.54036  0.07653  0.73560  1.0000
  C   C395      1.0  0.53876  0.09736  0.70743  1.0000
  C   C396      1.0  0.54040  0.12726  0.71562  1.0000
  H   H665      1.0  0.54831  0.12286  0.80816  1.0000
  H   H666      1.0  0.54506  0.07023  0.79403  1.0000
  H   H667      1.0  0.53599  0.09047  0.67937  1.0000
  H   H668      1.0  0.53896  0.14314  0.69356  1.0000
  C   C397      1.0  0.49420  0.22698  0.94154  1.0000
  C   C398      1.0  0.47737  0.22048  0.94400  1.0000
  H   H669      1.0  0.59496  0.03713  0.75288  1.0000
  C   C399      1.0  0.49892  0.42786  0.57220  1.0000
  H   H670      1.0  0.56822  0.04062  0.54888  1.0000
  H   H671      1.0  0.51221  0.17334  0.85246  1.0000
  H   H672      1.0  0.49353  0.34624  0.82538  1.0000
  H   H673      1.0  0.63237  0.28401  0.93136  1.0000
  H   H674      1.0  0.64917  0.01552  0.58031  1.0000
  C   C400      1.0  0.61964  0.20737  0.96110  1.0000
  C   C401      1.0  0.60849  0.22410  0.93743  1.0000
  C   C402      1.0  0.61327  0.25175  0.92670  1.0000
  H   H675      1.0  0.47868  0.45926  0.57480  1.0000
  H   H676      1.0  0.59485  0.13950  0.76014  1.0000
  H   H677      1.0  0.49058  0.38930  0.62448  1.0000
  H   H678      1.0  0.60488  0.26493  0.90860  1.0000
  H   H679      1.0  0.52344  0.35424  0.62241  1.0000
  C   C403      1.0  0.51020  0.35738  0.62742  1.0000
  H   H680      1.0  0.49996  0.43614  0.54410  1.0000
  C   C404      1.0  0.63062  0.45365  0.58641  1.0000
  C   C405      1.0  0.61489  0.46513  0.59354  1.0000
  C   C406      1.0  0.64438  0.47178  0.58516  1.0000
  H   H681      1.0  0.49391  0.20835  0.76243  1.0000
  C   C407      1.0  0.52680  0.40840  0.53234  1.0000
  H   H682      1.0  0.63205  0.43058  0.58144  1.0000
  H   H683      1.0  0.60439  0.45098  0.59392  1.0000
  H   H684      1.0  0.48766  0.26359  0.83841  1.0000
  H   H685      1.0  0.53055  0.39848  0.58934  1.0000
  H   H686      1.0  0.47177  0.14380  0.89294  1.0000
  H   H687      1.0  0.62064  0.07557  0.74285  1.0000
  H   H688      1.0  0.51241  0.32383  0.95447  1.0000
  H   H689      1.0  0.53270  0.12352  0.86390  1.0000
  H   H690      1.0  0.51859  0.40472  0.50723  1.0000
  C   C408      1.0  0.51285  0.15185  0.83865  1.0000
  H   H691      1.0  0.53169  0.32071  0.88458  1.0000
  H   H692      1.0  0.61264  0.09936  0.68036  1.0000
  C   C409      1.0  0.50614  0.34251  0.83945  1.0000
  N   N29       1.0  0.50513  0.32747  0.87607  1.0000
  H   H693      1.0  0.47169  0.42342  0.56469  1.0000
  H   H694      1.0  0.49151  0.16028  0.89228  1.0000
  H   H695      1.0  0.52753  0.43211  0.53770  1.0000
  H   H696      1.0  0.49381  0.08160  0.81418  1.0000
  H   H697      1.0  0.58696  0.14520  0.71390  1.0000
  H   H698      1.0  0.49712  0.35377  0.55522  1.0000
  H   H699      1.0  0.52440  0.36827  0.56168  1.0000
  H   H700      1.0  0.48884  0.19105  0.82148  1.0000
  H   H701      1.0  0.59524  0.08801  0.75598  1.0000
  S   S126      1.0  0.56377  0.48062  0.67783  1.0000
  H   H702      1.0  0.51563  0.09095  0.81472  1.0000
  H   H703      1.0  0.51621  0.24235  0.97182  1.0000
  H   H704      1.0  0.47168  0.13096  0.82653  1.0000
  H   H705      1.0  0.52041  0.14044  0.89606  1.0000
  C   C410      1.0  0.48010  0.15494  0.87494  1.0000
  Fe  Fe62      1.0  0.54032  0.00981  0.67627  1.0000
  H   H706      1.0  0.47597  0.29525  0.84890  1.0000
  H   H707      1.0  0.50954  0.35463  0.65748  1.0000
  H   H708      1.0  0.52857  0.36896  0.84681  1.0000
  H   H709      1.0  0.48679  0.12285  0.76933  1.0000
  H   H710      1.0  0.49746  0.17299  0.74437  1.0000
  H   H711      1.0  0.50272  0.33997  0.61382  1.0000
  C   C411      1.0  0.49230  0.37663  0.55378  1.0000
  C   C412      1.0  0.49846  0.12391  0.78777  1.0000
  H   H712      1.0  0.50371  0.37739  0.91915  1.0000
  H   H713      1.0  0.51377  0.38105  0.81114  1.0000
  C   C413      1.0  0.48370  0.13470  0.84284  1.0000
  H   H714      1.0  0.53811  0.02171  0.49719  1.0000
  C   C414      1.0  0.59509  0.13051  0.73201  1.0000
  H   H715      1.0  0.52126  0.29114  0.93549  1.0000
  H   H716      1.0  0.53431  0.31954  0.95241  1.0000
  C   C415      1.0  0.49894  0.18621  0.76971  1.0000
  N   N30       1.0  0.50396  0.39618  0.57607  1.0000
  H   H717      1.0  0.48714  0.11320  0.85520  1.0000
  H   H718      1.0  0.50826  0.13100  0.77020  1.0000
  H   H719      1.0  0.45681  0.21877  0.97850  1.0000
  C   C416      1.0  0.55706  0.04451  0.52967  1.0000
  H   H720      1.0  0.47014  0.21254  0.92006  1.0000
  H   H721      1.0  0.52256  0.15441  0.81911  1.0000
  H   H722      1.0  0.47633  0.17067  0.78894  1.0000
  C   C417      1.0  0.58234  0.03864  0.73896  1.0000
  H   H723      1.0  0.48014  0.37522  0.56579  1.0000
  N   N31       1.0  0.49636  0.14546  0.81818  1.0000
  C   C418      1.0  0.51974  0.12986  0.86870  1.0000
  H   H724      1.0  0.54754  0.05505  0.54571  1.0000
  H   H725      1.0  0.51287  0.32834  0.82067  1.0000
  N   N32       1.0  0.58973  0.08205  0.69715  1.0000
  C   C419      1.0  0.58035  0.09915  0.66641  1.0000
  C   C420      1.0  0.58856  0.09920  0.73201  1.0000
  C   C421      1.0  0.58157  0.05284  0.70036  1.0000
  C   C422      1.0  0.60739  0.07807  0.68745  1.0000
  C   C423      1.0  0.57871  0.08425  0.62856  1.0000
  H   H726      1.0  0.48586  0.38585  0.88748  1.0000
  H   H727      1.0  0.58357  0.00520  0.52645  1.0000
  S   S127      1.0  0.59067  0.01052  0.60735  1.0000
  H   H728      1.0  0.56758  0.10467  0.67367  1.0000
  H   H729      1.0  0.58632  0.12029  0.66177  1.0000
  C   C424      1.0  0.46972  0.22402  0.97723  1.0000
  C   C425      1.0  0.63534  0.21801  0.97380  1.0000
  H   H730      1.0  0.56807  0.05455  0.69146  1.0000
  H   H731      1.0  0.58668  0.03662  0.68151  1.0000
  H   H732      1.0  0.60791  0.06442  0.66247  1.0000
  C   C426      1.0  0.49118  0.37044  0.90906  1.0000
  H   H733      1.0  0.57048  0.09786  0.60924  1.0000
  H   H734      1.0  0.59080  0.08203  0.61655  1.0000
  H   H735      1.0  0.57300  0.06267  0.62967  1.0000
  H   H736      1.0  0.50455  0.07941  0.77382  1.0000
  H   H737      1.0  0.47617  0.37637  0.50303  1.0000
  H   H738      1.0  0.61609  0.18597  0.96963  1.0000
  H   H739      1.0  0.62207  0.03587  0.59674  1.0000
  H   H740      1.0  0.57412  0.05050  0.75692  1.0000
  C   C427      1.0  0.50258  0.29546  0.86894  1.0000
  C   C428      1.0  0.62891  0.26249  0.93966  1.0000
  C   C429      1.0  0.64006  0.24574  0.96322  1.0000
  H   H741      1.0  0.57538  0.10088  0.73866  1.0000
  H   H742      1.0  0.50015  0.28378  0.89460  1.0000
  H   H743      1.0  0.61638  0.04049  0.72137  1.0000
  H   H744      1.0  0.47897  0.33787  0.87643  1.0000
  H   H745      1.0  0.50986  0.38823  0.85755  1.0000
  C   C430      1.0  0.52161  0.39175  0.56617  1.0000
  H   H746      1.0  0.57762  0.01617  0.73655  1.0000
  C   C431      1.0  0.62350  0.01268  0.59277  1.0000
  C   C432      1.0  0.50325  0.23739  0.97293  1.0000
  C   C433      1.0  0.52132  0.32999  0.89940  1.0000
  C   C434      1.0  0.50334  0.09237  0.79912  1.0000
  H   H747      1.0  0.51227  0.18847  0.77828  1.0000
  C   C435      1.0  0.48936  0.17348  0.80067  1.0000
  C   C436      1.0  0.49051  0.33883  0.89512  1.0000
  H   H748      1.0  0.52477  0.35291  0.90436  1.0000
  H   H749      1.0  0.47358  0.17537  0.86527  1.0000
  H   H750      1.0  0.60808  0.13135  0.72470  1.0000
  H   H751      1.0  0.48375  0.37239  0.93320  1.0000
  C   C437      1.0  0.61961  0.06343  0.71668  1.0000
  C   C438      1.0  0.48817  0.28769  0.84049  1.0000
  C   C439      1.0  0.35459  0.20264  0.98890  1.0000
  C   C440      1.0  0.33876  0.21615  0.98585  1.0000
  H   H752      1.0  0.48874  0.40696  0.50536  1.0000
  Fe  Fe63      1.0  0.53045  0.48944  0.59266  1.0000
  H   H753      1.0  0.35628  0.18162  0.97638  1.0000
  C   C441      1.0  0.48884  0.38355  0.51243  1.0000
  H   H754      1.0  0.53948  0.40097  0.52663  1.0000
  C   C442      1.0  0.48115  0.43584  0.58142  1.0000
  C   C443      1.0  0.49668  0.49069  0.50648  1.0000
  H   H755      1.0  0.49782  0.37178  0.49615  1.0000
  H   H756      1.0  0.50762  0.44136  0.58980  1.0000
  H   H757      1.0  0.47957  0.43315  0.61106  1.0000
  C   C444      1.0  0.63893  0.00121  0.58344  1.0000
  H   H758      1.0  0.54647  0.00299  0.53729  1.0000
  S   S128      1.0  0.51099  0.00334  0.54580  1.0000
  H   H759      1.0  0.65213  0.44893  0.67173  1.0000
  C   C445      1.0  0.61272  0.49501  0.59925  1.0000
  H   H760      1.0  0.55978  0.06036  0.50814  1.0000
  H   H761      1.0  0.64703  0.48744  0.66769  1.0000
  H   H762      1.0  0.63723  0.46530  0.69923  1.0000
  C   C446      1.0  0.64917  0.46885  0.68707  1.0000
  Fe  Fe64      1.0  0.56798  0.49306  0.61954  1.0000
  S   S129      1.0  0.50765  0.49817  0.55040  1.0000
  Fe  Fe65      1.0  0.40652  0.73846  0.06354  1.0000
  S   S130      1.0  0.42385  0.77588  0.07559  1.0000
  S   S131      1.0  0.38598  0.74177  0.01632  1.0000
  Fe  Fe66      1.0  0.42666  0.69706  0.11783  1.0000
  S   S132      1.0  0.44545  0.73156  0.13310  1.0000
  S   S133      1.0  0.42878  0.64832  0.13421  1.0000
  Fe  Fe67      1.0  0.42358  0.76275  0.13501  1.0000
  S   S134      1.0  0.41974  0.79106  0.18573  1.0000
  Fe  Fe68      1.0  0.44470  0.74258  0.07251  1.0000
  S   S135      1.0  0.46894  0.75401  0.04696  1.0000
  S   S136      1.0  0.40471  0.72734  0.12308  1.0000
  S   S137      1.0  0.42747  0.70622  0.05714  1.0000
  Fe  Fe69      1.0  0.40289  0.97204  0.33562  1.0000
  C   C447      1.0  0.45905  0.97010  0.17879  1.0000
  S   S138      1.0  0.37767  0.95491  0.35016  1.0000
  H   H763      1.0  0.36983  0.59743  0.04960  1.0000
  H   H764      1.0  0.47465  0.99234  0.23384  1.0000
  H   H765      1.0  0.45945  0.50802  0.45774  1.0000
  H   H766      1.0  0.33286  0.71083  0.06044  1.0000
  S   S139      1.0  0.41970  0.56860  0.27649  1.0000
  Fe  Fe70      1.0  0.42945  0.95024  0.28606  1.0000
  S   S140      1.0  0.43629  0.92191  0.23740  1.0000
  H   H767      1.0  0.47603  0.97266  0.13450  1.0000
  S   S141      1.0  0.42316  0.93735  0.34245  1.0000
  H   H768      1.0  0.34772  0.92653  0.36524  1.0000
  C   C448      1.0  0.32990  0.95972  0.37844  1.0000
  H   H769      1.0  0.37741  0.65642  0.13895  1.0000
  C   C449      1.0  0.37275  0.64988  0.08019  1.0000
  H   H770      1.0  0.47609  0.93849  0.15773  1.0000
  H   H771      1.0  0.39012  0.58481  0.09499  1.0000
  H   H772      1.0  0.38593  0.95378  0.43030  1.0000
  C   C450      1.0  0.42427  0.82777  0.19895  1.0000
  C   C451      1.0  0.43340  0.84630  0.17818  1.0000
  C   C452      1.0  0.43691  0.87489  0.19038  1.0000
  C   C453      1.0  0.43132  0.88554  0.22342  1.0000
  C   C454      1.0  0.42218  0.86701  0.24417  1.0000
  C   C455      1.0  0.41874  0.83838  0.23206  1.0000
  H   H773      1.0  0.43782  0.83858  0.15277  1.0000
  H   H774      1.0  0.44402  0.88887  0.17403  1.0000
  H   H775      1.0  0.41777  0.87471  0.26959  1.0000
  H   H776      1.0  0.41166  0.82438  0.24844  1.0000
  C   C456      1.0  0.42596  0.62648  0.17393  1.0000
  C   C457      1.0  0.41833  0.63735  0.20414  1.0000
  C   C458      1.0  0.41656  0.61936  0.23507  1.0000
  C   C459      1.0  0.42219  0.59005  0.23623  1.0000
  C   C460      1.0  0.42956  0.57904  0.20569  1.0000
  C   C461      1.0  0.43141  0.59712  0.17486  1.0000
  H   H777      1.0  0.41367  0.65953  0.20345  1.0000
  H   H778      1.0  0.41070  0.62811  0.25827  1.0000
  H   H779      1.0  0.43397  0.55665  0.20595  1.0000
  H   H780      1.0  0.43727  0.58830  0.15168  1.0000
  H   H781      1.0  0.39391  0.66796  0.11380  1.0000
  H   H782      1.0  0.48650  0.96805  0.18021  1.0000
  C   C462      1.0  0.41645  0.92869  0.45038  1.0000
  H   H783      1.0  0.36233  0.63571  0.08641  1.0000
  H   H784      1.0  0.36736  0.67234  0.07688  1.0000
  C   C463      1.0  0.34964  0.64208  0.01512  1.0000
  H   H785      1.0  0.56332  0.99439  0.40965  1.0000
  H   H786      1.0  0.32609  0.84460  0.00041  1.0000
  C   C464      1.0  0.55106  0.97424  0.47300  1.0000
  C   C465      1.0  0.33917  0.71802  0.03717  1.0000
  H   H787      1.0  0.42588  0.93490  0.43134  1.0000
  H   H788      1.0  0.53783  0.93469  0.48313  1.0000
  S   S142      1.0  0.44790  0.98325  0.30904  1.0000
  C   C466      1.0  0.40459  0.64805  0.00602  1.0000
  C   C467      1.0  0.36441  0.73441  0.01233  1.0000
  C   C468      1.0  0.35823  0.96916  0.36239  1.0000
  C   C469      1.0  0.34550  0.94965  0.36841  1.0000
  H   H789      1.0  0.47748  0.92918  0.47536  1.0000
  C   C470      1.0  0.47884  0.74229  0.00733  1.0000
  C   C471      1.0  0.39530  0.59274  0.06965  1.0000
  H   H790      1.0  0.34393  0.65304  0.03808  1.0000
  Fe  Fe71      1.0  0.42421  0.52068  0.29583  1.0000
  S   S143      1.0  0.42161  0.51078  0.35621  1.0000
  N   N33       1.0  0.37991  0.64041  0.04518  1.0000
  C   C472      1.0  0.35599  0.72579  0.04233  1.0000
  H   H791      1.0  0.36250  0.72481  0.06938  1.0000
  C   C473      1.0  0.33401  0.80188  0.02035  1.0000
  H   H792      1.0  0.50035  0.76827  0.02080  1.0000
  C   C474      1.0  0.38164  0.60769  0.04357  1.0000
  H   H793      1.0  0.34793  0.53857  0.24448  1.0000
  H   H794      1.0  0.34130  0.53315  0.37714  1.0000
  H   H795      1.0  0.36812  0.67441  0.01000  1.0000
  H   H796      1.0  0.40712  0.71889  0.27810  1.0000
  H   H797      1.0  0.40051  0.57363  0.05569  1.0000
  C   C475      1.0  0.39603  0.65550  0.04107  1.0000
  H   H798      1.0  0.55797  0.96139  0.45351  1.0000
  H   H799      1.0  0.39400  0.67958  0.04144  1.0000
  C   C476      1.0  0.42233  0.97746  0.47349  1.0000
  H   H800      1.0  0.41683  0.68711  0.25948  1.0000
  H   H801      1.0  0.39100  0.62973  0.12227  1.0000
  N   N34       1.0  0.56130  0.99825  0.49075  1.0000
  H   H802      1.0  0.37743  0.93380  0.47743  1.0000
  C   C477      1.0  0.36797  0.65032  0.01328  1.0000
  N   N35       1.0  0.40877  0.95554  0.46643  1.0000
  C   C478      1.0  0.38709  0.99696  0.45146  1.0000
  H   H803      1.0  0.32783  0.97869  0.30770  1.0000
  H   H804      1.0  0.34988  0.98473  0.26394  1.0000
  H   H805      1.0  0.40005  0.91817  0.40130  1.0000
  H   H806      1.0  0.40611  0.60630  0.07758  1.0000
  C   C479      1.0  0.42442  0.99648  0.18248  1.0000
  H   H807      1.0  0.61330  0.57121  0.47405  1.0000
  H   H808      1.0  0.38342  0.60025  0.01519  1.0000
  H   H809      1.0  0.40535  0.65112  0.06445  1.0000
  H   H810      1.0  0.34532  0.51356  0.28095  1.0000
  H   H811      1.0  0.42716  0.98441  0.44715  1.0000
  H   H812      1.0  0.34559  0.81166  0.03276  1.0000
  C   C480      1.0  0.47544  0.96244  0.16187  1.0000
  C   C481      1.0  0.48057  0.95193  0.47751  1.0000
  H   H813      1.0  0.38134  0.99375  0.47760  1.0000
  C   C482      1.0  0.33898  0.53111  0.26383  1.0000
  H   H814      1.0  0.63578  0.56487  0.44411  1.0000
  H   H815      1.0  0.41178  0.88816  0.42125  1.0000
  Fe  Fe72      1.0  0.44018  0.97263  0.36541  1.0000
  H   H816      1.0  0.54017  0.98371  0.45593  1.0000
  H   H817      1.0  0.41689  0.65846  0.00743  1.0000
  C   C483      1.0  0.38463  0.65074  0.11537  1.0000
  C   C484      1.0  0.40470  0.90814  0.42796  1.0000
  H   H818      1.0  0.42332  0.91523  0.47227  1.0000
  C   C485      1.0  0.34310  0.50999  0.37347  1.0000
  C   C486      1.0  0.39588  0.96907  0.43898  1.0000
  C   C487      1.0  0.64751  0.56879  0.46129  1.0000
  H   H819      1.0  0.44896  0.96222  0.15904  1.0000
  S   S144      1.0  0.45771  0.95912  0.41678  1.0000
  H   H820      1.0  0.39411  0.90123  0.44279  1.0000
  H   H821      1.0  0.40318  0.70886  0.23065  1.0000
  H   H822      1.0  0.44364  0.94759  0.48952  1.0000
  H   H823      1.0  0.58194  0.95027  0.47925  1.0000
  C   C488      1.0  0.32690  0.98953  0.38306  1.0000
  S   S145      1.0  0.40843  0.98329  0.27771  1.0000
  C   C489      1.0  0.47287  0.97196  0.45170  1.0000
  H   H824      1.0  0.45878  0.95616  0.20374  1.0000
  N   N36       1.0  0.44416  0.72358  0.26013  1.0000
  C   C490      1.0  0.45558  0.74465  0.24339  1.0000
  C   C491      1.0  0.45026  0.69316  0.25229  1.0000
  C   C492      1.0  0.44520  0.72866  0.30106  1.0000
  C   C493      1.0  0.42683  0.72969  0.24285  1.0000
  C   C494      1.0  0.45435  0.77671  0.25584  1.0000
  C   C495      1.0  0.45136  0.68579  0.21152  1.0000
  C   C496      1.0  0.44010  0.70352  0.32568  1.0000
  C   C497      1.0  0.41290  0.70993  0.25392  1.0000
  H   H825      1.0  0.46881  0.73762  0.24929  1.0000
  H   H826      1.0  0.45333  0.74506  0.21290  1.0000
  H   H827      1.0  0.44250  0.67622  0.26350  1.0000
  H   H828      1.0  0.46287  0.68926  0.26638  1.0000
  H   H829      1.0  0.45823  0.73334  0.31144  1.0000
  H   H830      1.0  0.43766  0.74827  0.30750  1.0000
  H   H831      1.0  0.42269  0.75212  0.24943  1.0000
  H   H832      1.0  0.42642  0.73012  0.21233  1.0000
  H   H833      1.0  0.44147  0.78543  0.25401  1.0000
  H   H834      1.0  0.46004  0.77960  0.28422  1.0000
  H   H835      1.0  0.46130  0.79053  0.23762  1.0000
  H   H836      1.0  0.45463  0.66230  0.20903  1.0000
  H   H837      1.0  0.43937  0.68951  0.19515  1.0000
  H   H838      1.0  0.46125  0.69806  0.19940  1.0000
  H   H839      1.0  0.44062  0.71117  0.35453  1.0000
  H   H840      1.0  0.44888  0.68464  0.32539  1.0000
  H   H841      1.0  0.42733  0.69623  0.31866  1.0000
  H   H842      1.0  0.36880  0.51387  0.36172  1.0000
  H   H843      1.0  0.33055  0.78496  0.03990  1.0000
  H   H844      1.0  0.41756  0.99764  0.48593  1.0000
  C   C498      1.0  0.49454  0.75326  0.00123  1.0000
  H   H845      1.0  0.40692  0.62434  0.00333  1.0000
  H   H846      1.0  0.34807  0.61824  0.01684  1.0000
  H   H847      1.0  0.33635  0.54995  0.28146  1.0000
  H   H848      1.0  0.42401  0.97313  0.17498  1.0000
  C   C499      1.0  0.33048  0.71933  0.00216  1.0000
  H   H849      1.0  0.40155  0.97430  0.41310  1.0000
  H   H850      1.0  0.58343  0.98726  0.43404  1.0000
  H   H851      1.0  0.64757  0.59293  0.46399  1.0000
  H   H852      1.0  0.63385  0.51898  0.46978  1.0000
  H   H853      1.0  0.32454  0.96091  0.26500  1.0000
  C   C500      1.0  0.32436  0.98271  0.27810  1.0000
  H   H854      1.0  0.32735  0.50492  0.22114  1.0000
  C   C501      1.0  0.32313  0.52060  0.24172  1.0000
  H   H855      1.0  0.44098  0.98875  0.23086  1.0000
  H   H856      1.0  0.33715  0.79109  0.99487  1.0000
  C   C502      1.0  0.35872  0.49913  0.36464  1.0000
  H   H857      1.0  0.59838  0.97586  0.48956  1.0000
  H   H858      1.0  0.65281  0.51557  0.59182  1.0000
  Fe  Fe73      1.0  0.56653  0.72283  0.87046  1.0000
  S   S146      1.0  0.54864  0.75736  0.88801  1.0000
  S   S147      1.0  0.59223  0.70626  0.89349  1.0000
  Fe  Fe74      1.0  0.54341  0.70528  0.80335  1.0000
  S   S148      1.0  0.52395  0.73918  0.81535  1.0000
  S   S149      1.0  0.54389  0.67755  0.75118  1.0000
  Fe  Fe75      1.0  0.54508  0.76977  0.82767  1.0000
  S   S150      1.0  0.54439  0.81910  0.81636  1.0000
  Fe  Fe76      1.0  0.52848  0.72489  0.87481  1.0000
  S   S151      1.0  0.50535  0.71403  0.90476  1.0000
  S   S152      1.0  0.56422  0.73724  0.81136  1.0000
  S   S153      1.0  0.54666  0.68918  0.86157  1.0000
  C   C503      1.0  0.48377  0.52142  0.63784  1.0000
  S   S154      1.0  0.54672  0.52614  0.61415  1.0000
  S   S155      1.0  0.53423  0.54187  0.71732  1.0000
  Fe  Fe77      1.0  0.54416  0.94535  0.65528  1.0000
  S   S156      1.0  0.54978  0.95674  0.59707  1.0000
  S   S157      1.0  0.54441  0.89638  0.66937  1.0000
  H   H859      1.0  0.48996  0.55228  0.67933  1.0000
  H   H860      1.0  0.50992  0.62334  0.69461  1.0000
  S   S158      1.0  0.56203  0.97794  0.68062  1.0000
  H   H861      1.0  0.51895  0.58557  0.65107  1.0000
  C   C504      1.0  0.46553  0.57541  0.59063  1.0000
  H   H862      1.0  0.47415  0.69912  0.93152  1.0000
  H   H863      1.0  0.58693  0.68576  0.77710  1.0000
  H   H864      1.0  0.61664  0.79703  0.79530  1.0000
  C   C505      1.0  0.59546  0.84441  0.77010  1.0000
  C   C506      1.0  0.54421  0.84010  0.77504  1.0000
  C   C507      1.0  0.54406  0.87071  0.77726  1.0000
  C   C508      1.0  0.54414  0.88831  0.74542  1.0000
  C   C509      1.0  0.54438  0.87550  0.71078  1.0000
  C   C510      1.0  0.54463  0.84486  0.70867  1.0000
  C   C511      1.0  0.54455  0.82727  0.74049  1.0000
  H   H865      1.0  0.54386  0.88097  0.80378  1.0000
  H   H866      1.0  0.54396  0.91179  0.74762  1.0000
  H   H867      1.0  0.54482  0.83465  0.68210  1.0000
  H   H868      1.0  0.54471  0.80380  0.73817  1.0000
  C   C512      1.0  0.54205  0.63934  0.74373  1.0000
  C   C513      1.0  0.53435  0.62113  0.76765  1.0000
  C   C514      1.0  0.53248  0.59126  0.75957  1.0000
  C   C515      1.0  0.53834  0.57910  0.72765  1.0000
  C   C516      1.0  0.54639  0.59718  0.70419  1.0000
  C   C517      1.0  0.54810  0.62710  0.71207  1.0000
  H   H869      1.0  0.52944  0.63019  0.79186  1.0000
  H   H870      1.0  0.52614  0.57759  0.77785  1.0000
  H   H871      1.0  0.55097  0.58827  0.67954  1.0000
  H   H872      1.0  0.55404  0.64096  0.69328  1.0000
  C   C518      1.0  0.49566  0.72518  0.94491  1.0000
  H   H873      1.0  0.48866  0.61489  0.68431  1.0000
  H   H874      1.0  0.64983  0.71176  0.94781  1.0000
  H   H875      1.0  0.38969  0.90643  0.50372  1.0000
  C   C519      1.0  0.47994  0.71429  0.95091  1.0000
  C   C520      1.0  0.62317  0.82120  0.87931  1.0000
  H   H876      1.0  0.49370  0.60628  0.56298  1.0000
  C   C521      1.0  0.63576  0.74993  0.96097  1.0000
  C   C522      1.0  0.63784  0.72276  0.94466  1.0000
  C   C523      1.0  0.62439  0.70980  0.92420  1.0000
  C   C524      1.0  0.60868  0.72372  0.91981  1.0000
  C   C525      1.0  0.60654  0.75075  0.93643  1.0000
  C   C526      1.0  0.57571  0.98693  0.51609  1.0000
  H   H877      1.0  0.49064  0.77845  0.90463  1.0000
  H   H878      1.0  0.62620  0.68880  0.91183  1.0000
  H   H879      1.0  0.59445  0.76133  0.93437  1.0000
  C   C527      1.0  0.33876  0.72882  0.97237  1.0000
  H   H880      1.0  0.51581  0.60279  0.57560  1.0000
  H   H881      1.0  0.58144  0.57377  0.75202  1.0000
  C   C528      1.0  0.61160  0.83370  0.84710  1.0000
  H   H882      1.0  0.58569  0.85547  0.75144  1.0000
  H   H883      1.0  0.55572  0.61387  0.89147  1.0000
  C   C529      1.0  0.61207  0.96454  0.59148  1.0000
  H   H884      1.0  0.62034  0.76687  0.85688  1.0000
  H   H885      1.0  0.36203  0.74281  0.95405  1.0000
  H   H886      1.0  0.59001  0.60896  0.75101  1.0000
  H   H887      1.0  0.45258  0.57730  0.59851  1.0000
  C   C530      1.0  0.47159  0.72271  0.98182  1.0000
  H   H888      1.0  0.63418  0.80997  0.86926  1.0000
  H   H889      1.0  0.58120  0.85025  0.81619  1.0000
  H   H890      1.0  0.51370  0.55366  0.59816  1.0000
  C   C531      1.0  0.58686  0.66157  0.77695  1.0000
  H   H891      1.0  0.61934  0.74762  0.81458  1.0000
  S   S159      1.0  0.52193  0.97619  0.65414  1.0000
  C   C532      1.0  0.58754  0.80235  0.85856  1.0000
  H   H892      1.0  0.60155  0.74910  0.83996  1.0000
  H   H893      1.0  0.62752  0.83925  0.89757  1.0000
  C   C533      1.0  0.60419  0.61930  0.83396  1.0000
  H   H894      1.0  0.59988  0.65481  0.77452  1.0000
  C   C534      1.0  0.57919  0.59710  0.80288  1.0000
  C   C535      1.0  0.51714  0.81307  0.90816  1.0000
  C   C536      1.0  0.50609  0.59498  0.64734  1.0000
  H   H895      1.0  0.50693  0.61511  0.63064  1.0000
  H   H896      1.0  0.47091  0.58622  0.64791  1.0000
  H   H897      1.0  0.59415  0.78605  0.87699  1.0000
  C   C537      1.0  0.50292  0.74474  0.97041  1.0000
  S   S160      1.0  0.59302  0.51131  0.60565  1.0000
  C   C538      1.0  0.64097  0.97132  0.57751  1.0000
  C   C539      1.0  0.50144  0.60566  0.68523  1.0000
  N   N37       1.0  0.49447  0.57358  0.62799  1.0000
  Fe  Fe78      1.0  0.54188  0.51202  0.67097  1.0000
  H   H898      1.0  0.59277  0.94974  0.52283  1.0000
  H   H899      1.0  0.60616  0.85474  0.85595  1.0000
  C   C540      1.0  0.62003  0.76381  0.95665  1.0000
  H   H900      1.0  0.41146  0.93661  0.52090  1.0000
  H   H901      1.0  0.50839  0.82654  0.79337  1.0000
  H   H902      1.0  0.49785  0.94511  0.52570  1.0000
  C   C541      1.0  0.61234  0.64327  0.85824  1.0000
  C   C542      1.0  0.64231  0.50150  0.59189  1.0000
  H   H903      1.0  0.47843  0.61112  0.61602  1.0000
  H   H904      1.0  0.57178  0.84104  0.86894  1.0000
  H   H905      1.0  0.49872  0.86896  0.87158  1.0000
  H   H906      1.0  0.60717  0.57528  0.51950  1.0000
  C   C543      1.0  0.60598  0.78929  0.80982  1.0000
  H   H907      1.0  0.46578  0.58906  0.56552  1.0000
  H   H908      1.0  0.61996  0.84043  0.82607  1.0000
  C   C544      1.0  0.49637  0.99030  0.50990  1.0000
  H   H909      1.0  0.60184  0.95019  0.59461  1.0000
  H   H910      1.0  0.62599  0.63949  0.86105  1.0000
  C   C545      1.0  0.58721  0.83153  0.80298  1.0000
  C   C546      1.0  0.47737  0.58747  0.62220  1.0000
  H   H911      1.0  0.50646  0.58200  0.53872  1.0000
  H   H912      1.0  0.62881  0.92999  0.57702  1.0000
  H   H913      1.0  0.60128  0.82743  0.75366  1.0000
  C   C547      1.0  0.58862  0.58997  0.76897  1.0000
  H   H914      1.0  0.44678  0.98481  0.50074  1.0000
  C   C548      1.0  0.62741  0.95312  0.58153  1.0000
  H   H915      1.0  0.57274  0.81361  0.90348  1.0000
  H   H916      1.0  0.50315  0.58829  0.70644  1.0000
  H   H917      1.0  0.60093  0.57969  0.77694  1.0000
  C   C549      1.0  0.49447  0.54689  0.65224  1.0000
  H   H918      1.0  0.48900  0.83434  0.76839  1.0000
  H   H919      1.0  0.48252  0.87708  0.89905  1.0000
  H   H920      1.0  0.57148  0.97747  0.54170  1.0000
  C   C550      1.0  0.61215  0.76199  0.83208  1.0000
  H   H921      1.0  0.62504  0.53610  0.60347  1.0000
  H   H922      1.0  0.57907  0.65475  0.75217  1.0000
  H   H923      1.0  0.58145  0.66825  0.83306  1.0000
  H   H924      1.0  0.59686  0.78101  0.78790  1.0000
  N   N38       1.0  0.59838  0.81400  0.83042  1.0000
  H   H925      1.0  0.47782  0.87335  0.85022  1.0000
  H   H926      1.0  0.61033  0.61967  0.80802  1.0000
  H   H927      1.0  0.47557  0.51777  0.51730  1.0000
  H   H928      1.0  0.57925  0.57629  0.81872  1.0000
  H   H929      1.0  0.46759  0.55233  0.58369  1.0000
  H   H930      1.0  0.60460  0.86119  0.77877  1.0000
  H   H931      1.0  0.55218  0.62776  0.84579  1.0000
  H   H932      1.0  0.59008  0.83659  0.90088  1.0000
  H   H933      1.0  0.61703  0.80625  0.89737  1.0000
  N   N39       1.0  0.58556  0.62150  0.82746  1.0000
  C   C551      1.0  0.57856  0.61783  0.86430  1.0000
  C   C552      1.0  0.57964  0.65080  0.81219  1.0000
  C   C553      1.0  0.55977  0.61198  0.86325  1.0000
  H   H934      1.0  0.57690  0.81787  0.79114  1.0000
  H   H935      1.0  0.57699  0.79036  0.84479  1.0000
  H   H936      1.0  0.56604  0.60144  0.79266  1.0000
  H   H937      1.0  0.56600  0.65103  0.80601  1.0000
  C   C554      1.0  0.58026  0.82509  0.88405  1.0000
  H   H938      1.0  0.53053  0.81824  0.90960  1.0000
  C   C555      1.0  0.50443  0.59089  0.56626  1.0000
  H   H939      1.0  0.60821  0.64312  0.88641  1.0000
  N   N40       1.0  0.49172  0.81009  0.86054  1.0000
  C   C556      1.0  0.48780  0.78022  0.87442  1.0000
  C   C557      1.0  0.51020  0.81360  0.86758  1.0000
  C   C558      1.0  0.48669  0.81113  0.81975  1.0000
  C   C559      1.0  0.48194  0.83215  0.88076  1.0000
  C   C560      1.0  0.46966  0.77059  0.86710  1.0000
  H   H940      1.0  0.37175  0.64147  0.98689  1.0000
  C   C561      1.0  0.49536  0.83343  0.79652  1.0000
  C   C562      1.0  0.48553  0.86453  0.87448  1.0000
  H   H941      1.0  0.49569  0.76337  0.86212  1.0000
  H   H942      1.0  0.39958  0.96882  0.51826  1.0000
  H   H943      1.0  0.51448  0.83410  0.85580  1.0000
  H   H944      1.0  0.51685  0.79612  0.85332  1.0000
  H   H945      1.0  0.48918  0.78963  0.80697  1.0000
  H   H946      1.0  0.47309  0.81526  0.81450  1.0000
  H   H947      1.0  0.46843  0.82998  0.87307  1.0000
  H   H948      1.0  0.48302  0.82779  0.91090  1.0000
  H   H949      1.0  0.51636  0.79117  0.92063  1.0000
  H   H950      1.0  0.46550  0.77027  0.83746  1.0000
  H   H951      1.0  0.46879  0.74792  0.87747  1.0000
  H   H952      1.0  0.63738  0.51370  0.51786  1.0000
  N   N41       1.0  0.64729  0.55390  0.49808  1.0000
  H   H953      1.0  0.46103  0.78408  0.88224  1.0000
  H   H954      1.0  0.49511  0.85573  0.80762  1.0000
  H   H955      1.0  0.61005  0.66520  0.84578  1.0000
  H   H956      1.0  0.50737  0.53815  0.65818  1.0000
  C   C563      1.0  0.38631  0.92996  0.50165  1.0000
  H   H957      1.0  0.48597  0.50278  0.65724  1.0000
  C   C564      1.0  0.50159  0.56543  0.59251  1.0000
  H   H958      1.0  0.51507  0.75302  0.96674  1.0000
  H   H959      1.0  0.58072  0.63752  0.88163  1.0000
  C   C565      1.0  0.49219  0.96093  0.50625  1.0000
  H   H960      1.0  0.55688  0.58961  0.85372  1.0000
  H   H961      1.0  0.51102  0.82957  0.92477  1.0000
  C   C566      1.0  0.62656  0.51304  0.59860  1.0000
  C   C567      1.0  0.63378  0.56825  0.51831  1.0000
  H   H962      1.0  0.37921  0.93578  0.52542  1.0000
  H   H963      1.0  0.33231  0.72967  0.94524  1.0000
  Fe  Fe79      1.0  0.56614  0.99141  0.62295  1.0000
  H   H964      1.0  0.49374  0.54987  0.57644  1.0000
  H   H965      1.0  0.58495  0.59947  0.88018  1.0000
  H   H966      1.0  0.60799  0.59787  0.84680  1.0000
  H   H967      1.0  0.47036  0.52707  0.63714  1.0000
  C   C568      1.0  0.40197  0.94865  0.50257  1.0000
  C   C569      1.0  0.35564  0.73617  0.97746  1.0000
  H   H968      1.0  0.33089  0.81221  0.94102  1.0000
  C   C570      1.0  0.61575  0.56309  0.50261  1.0000
  H   H969      1.0  0.53512  0.96187  0.51651  1.0000
  H   H970      1.0  0.45956  0.71403  0.98595  1.0000
  H   H971      1.0  0.63463  0.56080  0.54749  1.0000
  C   C571      1.0  0.60998  0.99446  0.59689  1.0000
  H   H972      1.0  0.63518  0.59228  0.51923  1.0000
  H   H973      1.0  0.39750  0.65688  0.98101  1.0000
  H   H974      1.0  0.43411  0.96389  0.52794  1.0000
  H   H975      1.0  0.61234  0.53987  0.50422  1.0000
  Fe  Fe80      1.0  0.52838  0.98910  0.59711  1.0000
  H   H976      1.0  0.48706  0.51346  0.61081  1.0000
  H   H977      1.0  0.61823  0.78466  0.96951  1.0000
  C   C572      1.0  0.48081  0.50343  0.49774  1.0000
  S   S161      1.0  0.65238  0.76778  0.98617  1.0000
  C   C573      1.0  0.58775  0.96469  0.50043  1.0000
  C   C574      1.0  0.54439  0.95194  0.49943  1.0000
  C   C575      1.0  0.43743  0.96739  0.49947  1.0000
  H   H978      1.0  0.55450  0.94104  0.51708  1.0000
  C   C576      1.0  0.64323  0.52206  0.49346  1.0000
  H   H979      1.0  0.34242  0.64984  0.98958  1.0000
  Fe  Fe81      1.0  0.75110  0.23402  0.34842  1.0000
  S   S162      1.0  0.77239  0.20927  0.37857  1.0000
  S   S163      1.0  0.74661  0.21659  0.28988  1.0000
  Fe  Fe82      1.0  0.74627  0.27212  0.41622  1.0000
  S   S164      1.0  0.76724  0.24934  0.45046  1.0000
  S   S165      1.0  0.72888  0.30895  0.43371  1.0000
  Fe  Fe83      1.0  0.78129  0.25222  0.39960  1.0000
  S   S166      1.0  0.80771  0.26908  0.39798  1.0000
  Fe  Fe84      1.0  0.75668  0.20747  0.42664  1.0000
  H   H980      1.0  0.95738  0.45079  0.19810  1.0000
  S   S167      1.0  0.76089  0.27750  0.36677  1.0000
  S   S168      1.0  0.73484  0.22983  0.39523  1.0000
  Fe  Fe85      1.0  0.92932  0.20558  0.29693  1.0000
  S   S169      1.0  0.92107  0.19826  0.35353  1.0000
  S   S170      1.0  0.94124  0.16920  0.26394  1.0000
  Fe  Fe86      1.0  0.91958  0.27090  0.29696  1.0000
  S   S171      1.0  0.91058  0.26713  0.35366  1.0000
  S   S172      1.0  0.91310  0.31456  0.26683  1.0000
  Fe  Fe87      1.0  0.93385  0.24013  0.36989  1.0000
  S   S173      1.0  0.94524  0.24758  0.42987  1.0000
  Fe  Fe88      1.0  0.89856  0.22578  0.33410  1.0000
  S   S174      1.0  0.87292  0.20799  0.34342  1.0000
  S   S175      1.0  0.94359  0.24635  0.31393  1.0000
  S   S176      1.0  0.90618  0.23060  0.27666  1.0000
  Fe  Fe89      1.0  0.93009  0.45251  0.12660  1.0000
  C   C577      1.0  0.91362  0.17734  0.15262  1.0000
  S   S177      1.0  0.93807  0.40793  0.15278  1.0000
  C   C578      1.0  0.69596  0.03194  0.01415  1.0000
  S   S178      1.0  0.91599  0.02304  0.06767  1.0000
  H   H981      1.0  0.95003  0.17977  0.19057  1.0000
  C   C579      1.0  0.93474  0.23540  0.13178  1.0000
  H   H982      1.0  0.71764  0.33834  0.02006  1.0000
  Fe  Fe90      1.0  0.91896  0.02572  0.12982  1.0000
  S   S179      1.0  0.91089  0.06511  0.16396  1.0000
  S   S180      1.0  0.92621  0.46177  0.06519  1.0000
  H   H983      1.0  0.71857  0.39232  0.01638  1.0000
  Fe  Fe91      1.0  0.70352  0.25008  0.08911  1.0000
  S   S181      1.0  0.72706  0.23656  0.06544  1.0000
  S   S182      1.0  0.70183  0.26424  0.14866  1.0000
  H   H984      1.0  0.90668  0.28007  0.45196  1.0000
  Fe  Fe92      1.0  0.71169  0.20273  0.03488  1.0000
  C   C580      1.0  0.89425  0.01372  0.22898  1.0000
  Fe  Fe93      1.0  0.71922  0.26651  0.01808  1.0000
  H   H985      1.0  0.76090  0.12042  0.32500  1.0000
  S   S183      1.0  0.68822  0.21469  0.06133  1.0000
  S   S184      1.0  0.69665  0.28276  0.04377  1.0000
  H   H986      1.0  0.74360  0.19865  0.21467  1.0000
  H   H987      1.0  0.70543  0.28336  0.22367  1.0000
  S   S185      1.0  0.72376  0.15738  0.03992  1.0000
  H   H988      1.0  0.96624  0.21336  0.12952  1.0000
  H   H989      1.0  0.93737  0.23220  0.07315  1.0000
  S   S186      1.0  0.90957  0.48338  0.14060  1.0000
  H   H990      1.0  0.90954  0.22162  0.16819  1.0000
  H   H991      1.0  0.72475  0.17338  0.32299  1.0000
  H   H992      1.0  0.72437  0.16319  0.25909  1.0000
  N   N42       1.0  0.92378  0.00722  0.26207  1.0000
  C   C581      1.0  0.66340  0.33109  0.08242  1.0000
  H   H993      1.0  0.76820  0.21341  0.06603  1.0000
  Fe  Fe94      1.0  0.68311  0.24620  0.01377  1.0000
  C   C582      1.0  0.93300  0.01592  0.29776  1.0000
  H   H994      1.0  0.74257  0.44618  0.08575  1.0000
  H   H995      1.0  0.65989  0.29639  0.04377  1.0000
  C   C583      1.0  0.72326  0.38957  0.47871  1.0000
  C   C584      1.0  0.93068  0.26173  0.20571  1.0000
  H   H996      1.0  0.66818  0.34447  0.06033  1.0000
  C   C585      1.0  0.72096  0.36408  0.45752  1.0000
  C   C586      1.0  0.93254  0.13960  0.23765  1.0000
  C   C587      1.0  0.91547  0.13479  0.23331  1.0000
  C   C588      1.0  0.90916  0.11190  0.21083  1.0000
  C   C589      1.0  0.91976  0.09341  0.19232  1.0000
  C   C590      1.0  0.93686  0.09799  0.19703  1.0000
  C   C591      1.0  0.94317  0.12088  0.21950  1.0000
  H   H997      1.0  0.90708  0.14889  0.24696  1.0000
  H   H998      1.0  0.89592  0.10864  0.20752  1.0000
  H   H999      1.0  0.94522  0.08407  0.18306  1.0000
  H   H1000     1.0  0.95640  0.12428  0.22258  1.0000
  C   C592      1.0  0.92037  0.34002  0.23486  1.0000
  C   C593      1.0  0.90957  0.36263  0.22088  1.0000
  C   C594      1.0  0.91465  0.38346  0.19571  1.0000
  C   C595      1.0  0.93070  0.38208  0.18412  1.0000
  C   C596      1.0  0.94153  0.35953  0.19818  1.0000
  C   C597      1.0  0.93647  0.33875  0.22343  1.0000
  H   H1001     1.0  0.89710  0.36394  0.22942  1.0000
  H   H1002     1.0  0.90608  0.40043  0.18506  1.0000
  H   H1003     1.0  0.95400  0.35823  0.18962  1.0000
  H   H1004     1.0  0.94509  0.32196  0.23425  1.0000
  C   C598      1.0  0.96483  0.24450  0.45732  1.0000
  H   H1005     1.0  0.97908  0.22678  0.41530  1.0000
  H   H1006     1.0  0.65610  0.34613  0.09871  1.0000
  H   H1007     1.0  0.66779  0.28384  0.12920  1.0000
  H   H1008     1.0  0.72665  0.21676  0.15906  1.0000
  C   C599      1.0  0.82546  0.25175  0.38150  1.0000
  C   C600      1.0  0.82647  0.22166  0.37628  1.0000
  C   C601      1.0  0.84103  0.20874  0.36432  1.0000
  C   C602      1.0  0.85469  0.22570  0.35710  1.0000
  C   C603      1.0  0.85352  0.25588  0.36139  1.0000
  C   C604      1.0  0.83907  0.26876  0.37393  1.0000
  H   H1009     1.0  0.81616  0.20827  0.38217  1.0000
  H   H1010     1.0  0.84176  0.18537  0.36095  1.0000
  H   H1011     1.0  0.86373  0.26928  0.35500  1.0000
  H   H1012     1.0  0.83836  0.29210  0.37756  1.0000
  C   C605      1.0  0.73312  0.34160  0.45890  1.0000
  H   H1013     1.0  0.94246  0.44020  0.31925  1.0000
  C   C606      1.0  0.72717  0.14395  0.47510  1.0000
  H   H1014     1.0  0.86449  0.28644  0.49014  1.0000
  C   C607      1.0  0.91066  0.47415  0.23588  1.0000
  H   H1015     1.0  0.87012  0.29797  0.43037  1.0000
  H   H1016     1.0  0.75015  0.47824  0.03501  1.0000
  H   H1017     1.0  0.89958  0.18670  0.45676  1.0000
  C   C608      1.0  0.89210  0.19674  0.43308  1.0000
  H   H1018     1.0  0.91305  0.18000  0.12254  1.0000
  C   C609      1.0  0.94814  0.48501  0.27292  1.0000
  H   H1019     1.0  0.94464  0.05202  0.32763  1.0000
  C   C610      1.0  0.73433  0.23088  0.25094  1.0000
  C   C611      1.0  0.72359  0.25493  0.25313  1.0000
  C   C612      1.0  0.71383  0.26494  0.22155  1.0000
  C   C613      1.0  0.71483  0.25133  0.18735  1.0000
  C   C614      1.0  0.72577  0.22754  0.18510  1.0000
  C   C615      1.0  0.73537  0.21731  0.21674  1.0000
  H   H1020     1.0  0.72265  0.26564  0.27918  1.0000
  H   H1021     1.0  0.88738  0.23736  0.40489  1.0000
  N   N43       1.0  0.72882  0.13015  0.34684  1.0000
  C   C616      1.0  0.71623  0.13029  0.37517  1.0000
  C   C617      1.0  0.73033  0.09927  0.33347  1.0000
  C   C618      1.0  0.72236  0.15021  0.31571  1.0000
  C   C619      1.0  0.74493  0.14090  0.36506  1.0000
  C   C620      1.0  0.71074  0.16051  0.38860  1.0000
  C   C621      1.0  0.73683  0.07652  0.36272  1.0000
  H   H1022     1.0  0.70473  0.11907  0.36450  1.0000
  H   H1023     1.0  0.72103  0.11804  0.40033  1.0000
  H   H1024     1.0  0.73861  0.09739  0.31091  1.0000
  H   H1025     1.0  0.71806  0.09186  0.32122  1.0000
  H   H1026     1.0  0.70862  0.14870  0.31070  1.0000
  H   H1027     1.0  0.74357  0.16406  0.37315  1.0000
  H   H1028     1.0  0.74829  0.12958  0.39168  1.0000
  H   H1029     1.0  0.72124  0.17215  0.40273  1.0000
  H   H1030     1.0  0.70466  0.17434  0.36624  1.0000
  H   H1031     1.0  0.74925  0.08194  0.37571  1.0000
  H   H1032     1.0  0.72809  0.07346  0.38416  1.0000
  H   H1033     1.0  0.73815  0.05506  0.34926  1.0000
  H   H1034     1.0  0.75721  0.32815  0.48307  1.0000
  H   H1035     1.0  0.77157  0.13814  0.36195  1.0000
  N   N44       1.0  0.79309  0.24742  0.26125  1.0000
  C   C622      1.0  0.77845  0.25933  0.23691  1.0000
  C   C623      1.0  0.79153  0.25950  0.29909  1.0000
  C   C624      1.0  0.79200  0.21461  0.26196  1.0000
  C   C625      1.0  0.80872  0.25679  0.24512  1.0000
  C   C626      1.0  0.77577  0.24598  0.19822  1.0000
  C   C627      1.0  0.79253  0.29290  0.30240  1.0000
  C   C628      1.0  0.80152  0.19820  0.29435  1.0000
  C   C629      1.0  0.82536  0.25092  0.26810  1.0000
  H   H1036     1.0  0.76668  0.25648  0.25023  1.0000
  H   H1037     1.0  0.77941  0.28320  0.23259  1.0000
  H   H1038     1.0  0.80106  0.25037  0.31961  1.0000
  H   H1039     1.0  0.77958  0.25278  0.30927  1.0000
  H   H1040     1.0  0.77884  0.20805  0.26273  1.0000
  H   H1041     1.0  0.79626  0.20509  0.23634  1.0000
  H   H1042     1.0  0.80998  0.24583  0.21842  1.0000
  H   H1043     1.0  0.80809  0.28033  0.23756  1.0000
  H   H1044     1.0  0.77281  0.22254  0.19928  1.0000
  H   H1045     1.0  0.76486  0.25704  0.18321  1.0000
  H   H1046     1.0  0.78650  0.24924  0.18183  1.0000
  H   H1047     1.0  0.78178  0.30423  0.28738  1.0000
  H   H1048     1.0  0.79217  0.29896  0.33170  1.0000
  H   H1049     1.0  0.80433  0.30117  0.29349  1.0000
  H   H1050     1.0  0.79576  0.20220  0.32038  1.0000
  H   H1051     1.0  0.81480  0.20342  0.29791  1.0000
  H   H1052     1.0  0.80079  0.17442  0.28931  1.0000
  H   H1053     1.0  0.83087  0.22950  0.26121  1.0000
  H   H1054     1.0  0.82461  0.25211  0.29804  1.0000
  H   H1055     1.0  0.83425  0.26807  0.26206  1.0000
  C   C630      1.0  0.76023  0.13975  0.34264  1.0000
  H   H1056     1.0  0.90075  0.46183  0.22024  1.0000
  C   C631      1.0  0.88347  0.29550  0.42611  1.0000
  C   C632      1.0  0.96633  0.20077  0.15547  1.0000
  C   C633      1.0  0.74375  0.13674  0.47060  1.0000
  H   H1057     1.0  0.90757  0.23389  0.42692  1.0000
  S   S187      1.0  0.94977  0.48652  0.13554  1.0000
  C   C634      1.0  0.92773  0.45979  0.23027  1.0000
  C   C635      1.0  0.95094  0.00561  0.22833  1.0000
  C   C636      1.0  0.74944  0.10807  0.47892  1.0000
  H   H1058     1.0  0.72425  0.12470  0.26521  1.0000
  H   H1059     1.0  0.72266  0.16600  0.46976  1.0000
  H   H1060     1.0  0.90721  0.47477  0.26436  1.0000
  H   H1061     1.0  0.94823  0.41429  0.24349  1.0000
  H   H1062     1.0  0.92372  0.45898  0.30787  1.0000
  H   H1063     1.0  0.92526  0.43848  0.21693  1.0000
  H   H1064     1.0  0.76557  0.23825  0.00943  1.0000
  H   H1065     1.0  0.93551  0.27179  0.23189  1.0000
  C   C637      1.0  0.96472  0.44527  0.22410  1.0000
  H   H1066     1.0  0.92092  0.21838  0.48093  1.0000
  H   H1067     1.0  0.95798  0.00416  0.25542  1.0000
  H   H1068     1.0  0.94588  0.24907  0.13019  1.0000
  C   C638      1.0  0.72899  0.14514  0.27785  1.0000
  H   H1069     1.0  0.67895  0.39918  0.48349  1.0000
  H   H1070     1.0  0.84846  0.26038  0.48872  1.0000
  H   H1071     1.0  0.69785  0.01898  0.03974  1.0000
  H   H1072     1.0  0.92135  0.15787  0.16110  1.0000
  H   H1073     1.0  0.75173  0.19519  0.04069  1.0000
  Fe  Fe95      1.0  0.90698  0.49512  0.08028  1.0000
  H   H1074     1.0  0.86929  0.01956  0.02605  1.0000
  C   C639      1.0  0.73324  0.46181  0.07248  1.0000
  C   C640      1.0  0.92358  0.41479  0.28975  1.0000
  N   N45       1.0  0.93620  0.21661  0.16586  1.0000
  H   H1075     1.0  0.76226  0.10220  0.47583  1.0000
  C   C641      1.0  0.94876  0.19201  0.16411  1.0000
  C   C642      1.0  0.95358  0.43514  0.25371  1.0000
  H   H1076     1.0  0.93218  0.39659  0.28397  1.0000
  C   C643      1.0  0.86550  0.46531  0.01414  1.0000
  C   C644      1.0  0.93269  0.01580  0.22920  1.0000
  C   C645      1.0  0.93132  0.22004  0.09455  1.0000
  C   C646      1.0  0.72716  0.34860  0.00576  1.0000
  H   H1077     1.0  0.76128  0.15894  0.99290  1.0000
  H   H1078     1.0  0.89878  0.01625  0.20154  1.0000
  H   H1079     1.0  0.94498  0.05568  0.27911  1.0000
  N   N46       1.0  0.88875  0.24732  0.46270  1.0000
  H   H1080     1.0  0.95432  0.24497  0.19393  1.0000
  H   H1081     1.0  0.71710  0.06137  0.02538  1.0000
  H   H1082     1.0  0.90124  0.02142  0.28591  1.0000
  H   H1083     1.0  0.93073  0.27884  0.18420  1.0000
  S   S188      1.0  0.75800  0.16259  0.45556  1.0000
  H   H1084     1.0  0.70150  0.15753  0.40907  1.0000
  H   H1085     1.0  0.66955  0.26138  0.09123  1.0000
  C   C647      1.0  0.74244  0.48739  0.05627  1.0000
  H   H1086     1.0  0.97282  0.21289  0.17835  1.0000
  H   H1087     1.0  0.72509  0.46895  0.09378  1.0000
  C   C648      1.0  0.85176  0.45376  0.99302  1.0000
  H   H1088     1.0  0.87893  0.19082  0.43367  1.0000
  H   H1089     1.0  0.66714  0.23652  0.15273  1.0000
  C   C649      1.0  0.93266  0.44379  0.29630  1.0000
  H   H1090     1.0  0.92448  0.25180  0.13312  1.0000
  C   C650      1.0  0.93728  0.04847  0.30106  1.0000
  H   H1091     1.0  0.90086  0.17245  0.15964  1.0000
  C   C651      1.0  0.94206  0.23551  0.19788  1.0000
  H   H1092     1.0  0.93650  0.19768  0.09368  1.0000
  H   H1093     1.0  0.69895  0.07867  0.00178  1.0000
  H   H1094     1.0  0.95978  0.48130  0.29102  1.0000
  C   C652      1.0  0.97937  0.23356  0.44364  1.0000
  H   H1095     1.0  0.92604  0.06270  0.30110  1.0000
  H   H1096     1.0  0.71384  0.40663  0.47709  1.0000
  H   H1097     1.0  0.76090  0.15982  0.32583  1.0000
  C   C653      1.0  0.74773  0.34516  0.48159  1.0000
  H   H1098     1.0  0.87625  0.45163  0.02208  1.0000
  H   H1099     1.0  0.89231  0.29127  0.48325  1.0000
  H   H1100     1.0  0.74266  0.14521  0.27870  1.0000
  H   H1101     1.0  0.73645  0.02090  0.03634  1.0000
  H   H1102     1.0  0.96201  0.42931  0.27846  1.0000
  C   C654      1.0  0.86534  0.49459  0.02451  1.0000
  C   C655      1.0  0.87026  0.24440  0.46364  1.0000
  C   C656      1.0  0.72912  0.00272  0.02394  1.0000
  H   H1103     1.0  0.93310  0.47270  0.20850  1.0000
  C   C657      1.0  0.90722  0.02336  0.25964  1.0000
  C   C658      1.0  0.89340  0.27864  0.45763  1.0000
  H   H1104     1.0  0.91942  0.19899  0.20332  1.0000
  N   N47       1.0  0.94009  0.45635  0.26333  1.0000
  C   C659      1.0  0.66052  0.26918  0.11048  1.0000
  C   C660      1.0  0.85925  0.00496  0.01863  1.0000
  H   H1105     1.0  0.89648  0.18663  0.40802  1.0000
  C   C661      1.0  0.70337  0.06211  0.02274  1.0000
  H   H1106     1.0  0.74543  0.10747  0.03934  1.0000
  H   H1107     1.0  0.91776  0.25560  0.20928  1.0000
  H   H1108     1.0  0.91772  0.40861  0.31499  1.0000
  H   H1109     1.0  0.86369  0.24949  0.43634  1.0000
  H   H1110     1.0  0.91779  0.21972  0.08638  1.0000
  H   H1111     1.0  0.91352  0.41660  0.26729  1.0000
  H   H1112     1.0  0.88478  0.28531  0.39919  1.0000
  C   C662      1.0  0.91953  0.20477  0.17366  1.0000
  H   H1113     1.0  0.88843  0.31780  0.42451  1.0000
  H   H1114     1.0  0.94479  0.17549  0.14346  1.0000
  H   H1115     1.0  0.95188  0.49603  0.24773  1.0000
  H   H1116     1.0  0.69930  0.06994  0.04931  1.0000
  C   C663      1.0  0.84433  0.01575  0.00018  1.0000
  C   C664      1.0  0.89430  0.23000  0.43086  1.0000
  H   H1117     1.0  0.97389  0.18065  0.15201  1.0000
  H   H1118     1.0  0.94393  0.22235  0.22364  1.0000
  H   H1119     1.0  0.95760  0.02186  0.21277  1.0000
  H   H1120     1.0  0.72604  0.44928  0.05102  1.0000
  H   H1121     1.0  0.88302  0.02802  0.22929  1.0000
  H   H1122     1.0  0.90880  0.04711  0.25505  1.0000
  H   H1123     1.0  0.67450  0.32229  0.09899  1.0000
  H   H1124     1.0  0.77225  0.17868  0.04654  1.0000
  H   H1125     1.0  0.70966  0.36172  0.43987  1.0000
  C   C665      1.0  0.73911  0.10962  0.01216  1.0000
  H   H1126     1.0  0.97250  0.46388  0.23329  1.0000
  H   H1127     1.0  0.84304  0.03872  0.99364  1.0000
  C   C666      1.0  0.71644  0.12273  0.48728  1.0000
  H   H1128     1.0  0.78372  0.21583  0.00889  1.0000
  H   H1129     1.0  0.93221  0.03976  0.22484  1.0000
  H   H1130     1.0  0.94486  0.00360  0.30330  1.0000
  C   C667      1.0  0.76991  0.21520  0.00690  1.0000
  H   H1131     1.0  0.86703  0.22152  0.46939  1.0000
  H   H1132     1.0  0.96465  0.45657  0.99817  1.0000
  H   H1133     1.0  0.92609  0.00748  0.20363  1.0000
  H   H1134     1.0  0.68224  0.03506  0.00987  1.0000
  H   H1135     1.0  0.97329  0.42708  0.21791  1.0000
  H   H1136     1.0  0.75138  0.49461  0.07899  1.0000
  C   C668      1.0  0.72773  0.37925  0.00365  1.0000
  S   S189      1.0  0.96440  0.00448  0.04460  1.0000
  H   H1137     1.0  0.71242  0.48363  0.01941  1.0000
  C   C669      1.0  0.72773  0.13281  0.00443  1.0000
  H   H1138     1.0  0.92571  0.01024  0.32125  1.0000
  C   C670      1.0  0.76515  0.19946  0.04176  1.0000
  S   S190      1.0  0.94360  0.00209  0.13365  1.0000
  S   S191      1.0  0.73889  0.29260  0.99178  1.0000
  H   H1139     1.0  0.91002  0.49677  0.22495  1.0000
  Fe  Fe96      1.0  0.94476  0.49743  0.07542  1.0000
  C   C671      1.0  0.65616  0.24279  0.13380  1.0000
  H   H1140     1.0  0.70366  0.12867  0.49073  1.0000
  C   C672      1.0  0.73874  0.08689  0.49145  1.0000
  Fe  Fe97      1.0  0.70955  0.02255  0.53788  1.0000
  S   S192      1.0  0.65914  0.26144  0.98036  1.0000
  C   C673      1.0  0.89716  0.23618  0.49853  1.0000
  Fe  Fe98      1.0  0.68856  0.47821  0.56836  1.0000
  S   S193      1.0  0.71050  0.45665  0.60008  1.0000
  C   C674      1.0  0.74001  0.39306  0.98515  1.0000
  H   H1141     1.0  0.98120  0.35690  0.60190  1.0000
  H   H1142     1.0  0.72264  0.34738  0.61442  1.0000
  Fe  Fe99      1.0  0.72358  0.46085  0.54827  1.0000
  S   S194      1.0  0.74052  0.42290  0.53263  1.0000
  S   S195      1.0  0.69442  0.01822  0.58671  1.0000
  C   C675      1.0  0.68183  0.39839  0.51373  1.0000
  H   H1143     1.0  0.71893  0.36330  0.54703  1.0000
  C   C676      1.0  0.75197  0.47985  0.77665  1.0000
  C   C677      1.0  0.76330  0.15308  0.93606  1.0000
  H   H1144     1.0  0.96867  0.18391  0.58276  1.0000
  H   H1145     1.0  0.76132  0.38606  0.95459  1.0000
  H   H1146     1.0  0.74146  0.22919  0.97725  1.0000
  Fe  Fe100     1.0  0.75794  0.45889  0.95261  1.0000
  H   H1147     1.0  0.97997  0.14683  0.61549  1.0000
  Fe  Fe101     1.0  0.75337  0.02429  0.92114  1.0000
  S   S196      1.0  0.73697  0.06536  0.91553  1.0000
  S   S197      1.0  0.77590  0.44177  0.91441  1.0000
  S   S198      1.0  0.77672  0.02104  0.89232  1.0000
  H   H1148     1.0  0.79759  0.46026  0.79112  1.0000
  H   H1149     1.0  0.81552  0.47111  0.88148  1.0000
  H   H1150     1.0  0.76118  0.37267  0.52101  1.0000
  C   C678      1.0  0.85109  0.45674  0.80957  1.0000
  H   H1151     1.0  0.76044  0.33207  0.95845  1.0000
  H   H1152     1.0  0.71620  0.11651  0.91527  1.0000
  C   C679      1.0  0.73405  0.09138  0.95006  1.0000
  S   S199      1.0  0.74021  0.43181  0.98357  1.0000
  H   H1153     1.0  0.97815  0.44155  0.94239  1.0000
  H   H1154     1.0  0.86611  0.25531  0.52093  1.0000
  H   H1155     1.0  0.71159  0.39759  0.56078  1.0000
  C   C680      1.0  0.72213  0.09409  0.49577  1.0000
  H   H1156     1.0  0.73657  0.06777  0.57473  1.0000
  Fe  Fe102     1.0  0.79425  0.47326  0.94095  1.0000
  H   H1157     1.0  0.93665  0.45260  0.95057  1.0000
  H   H1158     1.0  0.69542  0.45143  0.77310  1.0000
  H   H1159     1.0  0.85169  0.00615  0.87579  1.0000
  S   S200      1.0  0.74742  0.49424  0.91362  1.0000
  H   H1160     1.0  0.72899  0.08877  0.70485  1.0000
  H   H1161     1.0  0.74293  0.46409  0.68559  1.0000
  H   H1162     1.0  0.76853  0.20876  0.91350  1.0000
  H   H1163     1.0  0.89256  0.21432  0.50544  1.0000
  S   S201      1.0  0.70554  0.23161  0.98546  1.0000
  H   H1164     1.0  0.69395  0.49301  0.66315  1.0000
  C   C681      1.0  0.70466  0.44022  0.69759  1.0000
  H   H1165     1.0  0.73983  0.06165  0.67928  1.0000
  H   H1166     1.0  0.71163  0.44173  0.72492  1.0000
  H   H1167     1.0  0.79304  0.42631  0.84198  1.0000
  C   C682      1.0  0.77197  0.21753  0.94112  1.0000
  H   H1168     1.0  0.98068  0.11608  0.56127  1.0000
  H   H1169     1.0  0.68205  0.43017  0.72142  1.0000
  H   H1170     1.0  0.70478  0.05621  0.95025  1.0000
  C   C683      1.0  0.92963  0.47009  0.96382  1.0000
  H   H1171     1.0  0.85193  0.43263  0.80915  1.0000
  H   H1172     1.0  0.69727  0.32771  0.60456  1.0000
  H   H1173     1.0  0.86597  0.00178  0.93841  1.0000
  H   H1174     1.0  0.69167  0.00584  0.90225  1.0000
  H   H1175     1.0  0.66163  0.45929  0.73998  1.0000
  H   H1176     1.0  0.72337  0.13976  0.60388  1.0000
  H   H1177     1.0  0.67047  0.40575  0.52629  1.0000
  C   C684      1.0  0.91630  0.23420  0.50069  1.0000
  H   H1178     1.0  0.73137  0.22803  0.91802  1.0000
  N   N48       1.0  0.82073  0.46222  0.82577  1.0000
  H   H1179     1.0  0.71635  0.38414  0.62650  1.0000
  C   C685      1.0  0.66562  0.37229  0.59055  1.0000
  C   C686      1.0  0.74472  0.99863  0.77664  1.0000
  C   C687      1.0  0.72902  0.12002  0.59212  1.0000
  H   H1180     1.0  0.85943  0.46466  0.78920  1.0000
  H   H1181     1.0  0.92188  0.25566  0.49638  1.0000
  H   H1182     1.0  0.78124  0.16703  0.97875  1.0000
  H   H1183     1.0  0.72468  0.19256  0.92773  1.0000
  H   H1184     1.0  0.80826  0.42444  0.88142  1.0000
  N   N49       1.0  0.68021  0.47616  0.70655  1.0000
  H   H1185     1.0  0.85596  0.46484  0.83680  1.0000
  H   H1186     1.0  0.72558  0.02584  0.74856  1.0000
  C   C688      1.0  0.76769  0.17039  0.97137  1.0000
  H   H1187     1.0  0.75037  0.11315  0.55946  1.0000
  H   H1188     1.0  0.72728  0.03182  0.97779  1.0000
  C   C689      1.0  0.75178  0.37581  0.96882  1.0000
  H   H1189     1.0  0.71068  0.15291  0.96313  1.0000
  C   C690      1.0  0.83758  0.47111  0.98251  1.0000
  H   H1190     1.0  0.67401  0.48317  0.64783  1.0000
  C   C691      1.0  0.73443  0.00822  0.74567  1.0000
  H   H1191     1.0  0.92133  0.49043  0.91199  1.0000
  H   H1192     1.0  0.79570  0.47614  0.83470  1.0000
  C   C692      1.0  0.74508  0.13013  0.57675  1.0000
  C   C693      1.0  0.72150  0.37038  0.60520  1.0000
  H   H1193     1.0  0.77463  0.25917  0.91362  1.0000
  S   S202      1.0  0.76249  0.46366  0.81657  1.0000
  H   H1194     1.0  0.73431  0.37800  0.60252  1.0000
  C   C694      1.0  0.73768  0.39277  0.50215  1.0000
  C   C695      1.0  0.75885  0.06808  0.61222  1.0000
  C   C696      1.0  0.74471  0.20736  0.96647  1.0000
  H   H1195     1.0  0.91739  0.46121  0.96895  1.0000
  H   H1196     1.0  0.81676  0.01963  0.85983  1.0000
  N   N50       1.0  0.69406  0.36300  0.56474  1.0000
  C   C697      1.0  0.96572  0.25318  0.49446  1.0000
  C   C698      1.0  0.76909  0.25083  0.93831  1.0000
  H   H1197     1.0  0.89402  0.25045  0.52155  1.0000
  C   C699      1.0  0.69779  0.03560  0.94848  1.0000
  H   H1198     1.0  0.97631  0.34770  0.66623  1.0000
  H   H1199     1.0  0.71001  0.45568  0.67882  1.0000
  H   H1200     1.0  0.75711  0.44293  0.74289  1.0000
  H   H1201     1.0  0.74215  0.14922  0.55839  1.0000
  C   C700      1.0  0.71152  0.37401  0.56758  1.0000
  H   H1202     1.0  0.76508  0.08822  0.60502  1.0000
  C   C701      1.0  0.70496  0.31093  0.55332  1.0000
  C   C702      1.0  0.71960  0.13535  0.96928  1.0000
  H   H1203     1.0  0.72043  0.11393  0.56810  1.0000
  H   H1204     1.0  0.83590  0.45932  0.87804  1.0000
  C   C703      1.0  0.80396  0.47481  0.81196  1.0000
  H   H1205     1.0  0.70588  0.11684  0.66714  1.0000
  H   H1206     1.0  0.76943  0.16124  0.91219  1.0000
  C   C704      1.0  0.82590  0.47325  0.86371  1.0000
  Fe  Fe103     1.0  0.76659  0.47850  0.87646  1.0000
  C   C705      1.0  0.68112  0.49338  0.67161  1.0000
  N   N51       1.0  0.76327  0.20249  0.97062  1.0000
  C   C706      1.0  0.74327  0.47626  0.71089  1.0000
  H   H1207     1.0  0.73551  0.04886  0.61639  1.0000
  C   C707      1.0  0.73957  0.08468  0.68792  1.0000
  H   H1208     1.0  0.69597  0.35924  0.50615  1.0000
  H   H1209     1.0  0.81653  0.42007  0.80044  1.0000
  H   H1210     1.0  0.65916  0.49672  0.73039  1.0000
  H   H1211     1.0  0.92105  0.22652  0.52851  1.0000
  C   C708      1.0  0.72270  0.11463  0.94229  1.0000
  C   C709      1.0  0.75125  0.34515  0.97107  1.0000
  H   H1212     1.0  0.68941  0.09769  0.64339  1.0000
  H   H1213     1.0  0.95468  0.26174  0.50562  1.0000
  H   H1214     1.0  0.68521  0.40383  0.58690  1.0000
  H   H1215     1.0  0.76374  0.05026  0.59545  1.0000
  H   H1216     1.0  0.73855  0.19165  0.98382  1.0000
  C   C710      1.0  0.68415  0.37990  0.59086  1.0000
  H   H1217     1.0  0.78562  0.21339  0.94545  1.0000
  C   C711      1.0  0.98050  0.46285  0.95395  1.0000
  H   H1218     1.0  0.70406  0.49198  0.72842  1.0000
  H   H1219     1.0  0.80554  0.39439  0.85119  1.0000
  H   H1220     1.0  0.93662  0.47490  0.99033  1.0000
  H   H1221     1.0  0.68936  0.37627  0.61966  1.0000
  S   S203      1.0  0.77676  0.48799  0.98202  1.0000
  C   C712      1.0  0.69380  0.33118  0.57474  1.0000
  C   C713      1.0  0.74994  0.37049  0.50312  1.0000
  H   H1222     1.0  0.66377  0.35518  0.61131  1.0000
  H   H1223     1.0  0.66018  0.36481  0.56357  1.0000
  C   C714      1.0  0.71344  0.08555  0.62546  1.0000
  H   H1224     1.0  0.71373  0.06661  0.64462  1.0000
  C   C715      1.0  0.69120  0.49010  0.73654  1.0000
  H   H1225     1.0  0.73268  0.12664  0.66404  1.0000
  H   H1226     1.0  0.69182  0.41404  0.52051  1.0000
  C   C716      1.0  0.81915  0.42955  0.82830  1.0000
  C   C717      1.0  0.68582  0.44523  0.69980  1.0000
  H   H1227     1.0  0.70197  0.31258  0.52320  1.0000
  H   H1228     1.0  0.76771  0.13016  0.94065  1.0000
  N   N52       1.0  0.73074  0.09557  0.61999  1.0000
  C   C718      1.0  0.97266  0.47144  0.98546  1.0000
  H   H1229     1.0  0.70743  0.07728  0.59905  1.0000
  H   H1230     1.0  0.75442  0.13711  0.59867  1.0000
  H   H1231     1.0  0.75574  0.25702  0.93535  1.0000
  C   C719      1.0  0.98077  0.25106  0.51737  1.0000
  H   H1232     1.0  0.82919  0.45867  0.77142  1.0000
  C   C720      1.0  0.80566  0.41854  0.85215  1.0000
  C   C721      1.0  0.73909  0.10646  0.65551  1.0000
  C   C722      1.0  0.97362  0.17800  0.55634  1.0000
  H   H1233     1.0  0.74972  0.15196  0.92968  1.0000
  H   H1234     1.0  0.75096  0.08800  0.70642  1.0000
  H   H1235     1.0  0.75199  0.11310  0.65211  1.0000
  C   C723      1.0  0.68693  0.36694  0.52547  1.0000
  S   S204      1.0  0.70107  0.47951  0.51541  1.0000
  C   C724      1.0  0.73976  0.06966  0.60489  1.0000
  H   H1236     1.0  0.85207  0.43114  0.98500  1.0000
  S   S205      1.0  0.66381  0.45627  0.57510  1.0000
  H   H1237     1.0  0.68097  0.32283  0.57017  1.0000
  H   H1238     1.0  0.98108  0.25786  0.54567  1.0000
  C   C725      1.0  0.73593  0.20598  0.92720  1.0000
  S   S206      1.0  0.81321  0.01192  0.96404  1.0000
  C   C726      1.0  0.70138  0.10838  0.63987  1.0000
  H   H1239     1.0  0.69857  0.12651  0.62008  1.0000
  H   H1240     1.0  0.77520  0.26230  0.96225  1.0000
  H   H1241     1.0  0.70160  0.48527  0.79303  1.0000
  S   S207      1.0  0.72231  0.00891  0.67311  1.0000
  S   S208      1.0  0.82085  0.45561  0.95479  1.0000
  C   C727      1.0  0.73894  0.33134  0.98951  1.0000
  H   H1242     1.0  0.65831  0.39212  0.59686  1.0000
  H   H1243     1.0  0.71833  0.31510  0.55989  1.0000
  N   N53       1.0  0.70241  0.01647  0.98172  1.0000
  H   H1244     1.0  0.83094  0.41908  0.84006  1.0000
  H   H1245     1.0  0.76258  0.06246  0.64132  1.0000
  C   C728      1.0  0.75131  0.46433  0.74345  1.0000
  S   S209      1.0  0.73198  0.99989  0.56645  1.0000
  H   H1246     1.0  0.71359  0.01327  0.91056  1.0000
  H   H1247     1.0  0.74328  0.19653  0.90597  1.0000
  H   H1248     1.0  0.70697  0.41795  0.68725  1.0000
  H   H1249     1.0  0.69965  0.04008  0.88970  1.0000
  C   C729      1.0  0.66271  0.47573  0.71785  1.0000
  C   C730      1.0  0.72099  0.01167  0.98551  1.0000
  C   C731      1.0  0.83330  0.46818  0.79860  1.0000
  H   H1250     1.0  0.68002  0.47728  0.78698  1.0000
  H   H1251     1.0  0.70297  0.28798  0.56129  1.0000
  C   C732      1.0  0.69196  0.47482  0.77433  1.0000
  H   H1252     1.0  0.97010  0.19624  0.53704  1.0000
  S   S210      1.0  0.76464  0.00190  0.97220  1.0000
  H   H1253     1.0  0.68442  0.04226  0.94704  1.0000
  H   H1254     1.0  0.66577  0.49815  0.51447  1.0000
  H   H1255     1.0  0.89525  0.48223  0.92873  1.0000
  C   C733      1.0  0.74234  0.08907  0.98507  1.0000
  S   S211      1.0  0.70802  0.06881  0.51259  1.0000
  H   H1256     1.0  0.74374  0.00891  0.80296  1.0000
  H   H1257     1.0  0.67596  0.35310  0.51911  1.0000
  H   H1258     1.0  0.74337  0.06503  0.49786  1.0000
  C   C734      1.0  0.70090  0.02252  0.91085  1.0000
  H   H1259     1.0  0.83431  0.49176  0.79294  1.0000
  H   H1260     1.0  0.96740  0.15849  0.54469  1.0000
  H   H1261     1.0  0.67960  0.43703  0.67363  1.0000
  C   C735      1.0  0.86213  0.26289  0.49266  1.0000
  H   H1262     1.0  0.83802  0.00247  0.91043  1.0000
  C   C736      1.0  0.92806  0.49701  0.93834  1.0000
  H   H1263     1.0  0.87953  0.49775  0.95428  1.0000
  H   H1264     1.0  0.72777  0.49064  0.98868  1.0000
  H   H1265     1.0  0.98702  0.38663  0.63047  1.0000
  H   H1266     1.0  0.75113  0.07132  0.99137  1.0000
  Fe  Fe104     1.0  0.75415  0.73317  0.33777  1.0000
  S   S212      1.0  0.77354  0.70693  0.37241  1.0000
  S   S213      1.0  0.75088  0.71523  0.27909  1.0000
  Fe  Fe105     1.0  0.74802  0.77394  0.40235  1.0000
  S   S214      1.0  0.76689  0.74986  0.44070  1.0000
  S   S215      1.0  0.73083  0.81235  0.41653  1.0000
  Fe  Fe106     1.0  0.78317  0.74962  0.39318  1.0000
  S   S216      1.0  0.81060  0.76181  0.40288  1.0000
  Fe  Fe107     1.0  0.75587  0.70837  0.41704  1.0000
  S   S217      1.0  0.75440  0.66661  0.45236  1.0000
  S   S218      1.0  0.76489  0.77615  0.35601  1.0000
  S   S219      1.0  0.73591  0.73226  0.38127  1.0000
  Fe  Fe108     1.0  0.93094  0.71092  0.28585  1.0000
  S   S220      1.0  0.92444  0.69837  0.34222  1.0000
  S   S221      1.0  0.93569  0.68091  0.23712  1.0000
  Fe  Fe109     1.0  0.92323  0.77704  0.29922  1.0000
  S   S222      1.0  0.91621  0.76773  0.35693  1.0000
  S   S223      1.0  0.91412  0.81968  0.26914  1.0000
  Fe  Fe110     1.0  0.93906  0.73778  0.36265  1.0000
  S   S224      1.0  0.95554  0.73000  0.41753  1.0000
  Fe  Fe111     1.0  0.90242  0.72918  0.33307  1.0000
  S   S225      1.0  0.87568  0.71333  0.33315  1.0000
  S   S226      1.0  0.94675  0.74897  0.30579  1.0000
  S   S227      1.0  0.90835  0.73980  0.27583  1.0000
  Fe  Fe112     1.0  0.92958  0.96044  0.13836  1.0000
  H   H1267     1.0  0.76176  0.61029  0.31454  1.0000
  S   S228      1.0  0.94149  0.92807  0.18174  1.0000
  C   C737      1.0  0.65773  0.50057  0.48853  1.0000
  S   S229      1.0  0.92537  0.53144  0.08760  1.0000
  H   H1268     1.0  0.91682  0.96737  0.23346  1.0000
  H   H1269     1.0  0.72539  0.63824  0.24250  1.0000
  C   C738      1.0  0.83305  0.96748  0.99848  1.0000
  Fe  Fe113     1.0  0.92909  0.51792  0.14686  1.0000
  S   S230      1.0  0.93024  0.54429  0.20065  1.0000
  S   S231      1.0  0.92746  0.95352  0.07715  1.0000
  H   H1270     1.0  0.84949  0.93359  0.02255  1.0000
  Fe  Fe114     1.0  0.70332  0.74314  0.07460  1.0000
  S   S232      1.0  0.72406  0.72812  0.04136  1.0000
  S   S233      1.0  0.70521  0.75550  0.13552  1.0000
  H   H1271     1.0  0.89023  0.99106  0.23277  1.0000
  C   C739      1.0  0.74785  0.84690  0.46970  1.0000
  H   H1272     1.0  0.71269  0.83833  0.06579  1.0000
  H   H1273     1.0  0.94494  0.52823  0.29499  1.0000
  H   H1274     1.0  0.70422  0.56014  0.07939  1.0000
  S   S234      1.0  0.68444  0.71358  0.04599  1.0000
  S   S235      1.0  0.69580  0.78098  0.03676  1.0000
  H   H1275     1.0  0.74852  0.69479  0.20489  1.0000
  H   H1276     1.0  0.70732  0.77541  0.20988  1.0000
  H   H1277     1.0  0.94603  0.90080  0.11241  1.0000
  C   C740      1.0  0.92051  0.97491  0.26190  1.0000
  Fe  Fe115     1.0  0.67841  0.75017  0.00556  1.0000
  H   H1278     1.0  0.93606  0.57019  0.02349  1.0000
  H   H1279     1.0  0.76602  0.79784  0.07440  1.0000
  H   H1280     1.0  0.76375  0.84924  0.05949  1.0000
  C   C741      1.0  0.72128  0.86554  0.44399  1.0000
  H   H1281     1.0  0.71868  0.58115  0.38984  1.0000
  C   C742      1.0  0.75518  0.78349  0.07399  1.0000
  H   H1282     1.0  0.75344  0.77391  0.04615  1.0000
  H   H1283     1.0  0.65790  0.54076  0.41992  1.0000
  H   H1284     1.0  0.90985  0.97011  0.27827  1.0000
  H   H1285     1.0  0.72981  0.52409  0.09742  1.0000
  C   C743      1.0  0.92735  0.56544  0.99920  1.0000
  H   H1286     1.0  0.93085  0.93143  0.27254  1.0000
  H   H1287     1.0  0.72064  0.99490  0.04374  1.0000
  H   H1288     1.0  0.73820  0.98461  0.02088  1.0000
  H   H1289     1.0  0.98764  0.89715  0.15328  1.0000
  C   C744      1.0  0.93430  0.64272  0.22794  1.0000
  C   C745      1.0  0.93206  0.62204  0.25529  1.0000
  C   C746      1.0  0.93101  0.59213  0.24646  1.0000
  C   C747      1.0  0.93196  0.58238  0.21014  1.0000
  C   C748      1.0  0.93406  0.60308  0.18278  1.0000
  C   C749      1.0  0.93530  0.63293  0.19169  1.0000
  H   H1290     1.0  0.93135  0.62908  0.28331  1.0000
  H   H1291     1.0  0.92940  0.57646  0.26794  1.0000
  H   H1292     1.0  0.93484  0.59609  0.15475  1.0000
  H   H1293     1.0  0.93705  0.64861  0.17026  1.0000
  C   C750      1.0  0.92234  0.84836  0.24308  1.0000
  C   C751      1.0  0.91130  0.86606  0.22033  1.0000
  C   C752      1.0  0.91693  0.89008  0.20083  1.0000
  C   C753      1.0  0.93374  0.89697  0.20395  1.0000
  C   C754      1.0  0.94482  0.87921  0.22648  1.0000
  C   C755      1.0  0.93921  0.85500  0.24573  1.0000
  H   H1294     1.0  0.89828  0.86105  0.21745  1.0000
  H   H1295     1.0  0.90822  0.90335  0.18358  1.0000
  H   H1296     1.0  0.95785  0.88428  0.22927  1.0000
  H   H1297     1.0  0.94788  0.84181  0.26313  1.0000
  C   C756      1.0  0.97308  0.73924  0.44878  1.0000
  C   C757      1.0  0.98122  0.92961  0.04571  1.0000
  H   H1298     1.0  0.74912  0.52494  0.00175  1.0000
  H   H1299     1.0  0.72490  0.57201  0.08176  1.0000
  H   H1300     1.0  0.73089  0.70940  0.14848  1.0000
  C   C758      1.0  0.82852  0.74695  0.38402  1.0000
  C   C759      1.0  0.82748  0.72759  0.35453  1.0000
  C   C760      1.0  0.84204  0.71737  0.33957  1.0000
  C   C761      1.0  0.85781  0.72642  0.35376  1.0000
  C   C762      1.0  0.85887  0.74541  0.38357  1.0000
  C   C763      1.0  0.84432  0.75574  0.39841  1.0000
  H   H1301     1.0  0.81544  0.72065  0.34315  1.0000
  H   H1302     1.0  0.84103  0.70251  0.31672  1.0000
  H   H1303     1.0  0.87092  0.75187  0.39545  1.0000
  H   H1304     1.0  0.84528  0.77052  0.42141  1.0000
  C   C764      1.0  0.73382  0.84371  0.44504  1.0000
  C   C765      1.0  0.98574  0.90997  0.01370  1.0000
  C   C766      1.0  0.76976  0.62973  0.36598  1.0000
  H   H1305     1.0  0.76746  0.52942  0.05675  1.0000
  H   H1306     1.0  0.91462  0.56742  0.00815  1.0000
  H   H1307     1.0  0.95177  0.98434  0.21427  1.0000
  C   C767      1.0  0.74071  0.63852  0.46426  1.0000
  H   H1308     1.0  0.92599  0.51363  0.27662  1.0000
  H   H1309     1.0  0.74179  0.85725  0.05627  1.0000
  C   C768      1.0  0.72380  0.63875  0.45237  1.0000
  H   H1310     1.0  0.66531  0.50670  0.46605  1.0000
  H   H1311     1.0  0.73903  0.66106  0.37910  1.0000
  C   C769      1.0  0.73805  0.72691  0.23956  1.0000
  C   C770      1.0  0.72640  0.74972  0.24063  1.0000
  C   C771      1.0  0.71632  0.75779  0.20865  1.0000
  C   C772      1.0  0.71779  0.74331  0.17517  1.0000
  C   C773      1.0  0.72954  0.72065  0.17401  1.0000
  C   C774      1.0  0.73954  0.71245  0.20606  1.0000
  H   H1312     1.0  0.72507  0.76104  0.26614  1.0000
  N   N54       1.0  0.87769  0.64505  0.24922  1.0000
  C   C775      1.0  0.88492  0.62414  0.27855  1.0000
  C   C776      1.0  0.87481  0.62848  0.21378  1.0000
  C   C777      1.0  0.86142  0.65815  0.25885  1.0000
  C   C778      1.0  0.88968  0.66935  0.24585  1.0000
  C   C779      1.0  0.88701  0.63621  0.31798  1.0000
  C   C780      1.0  0.89050  0.61940  0.19516  1.0000
  C   C781      1.0  0.84802  0.63626  0.26724  1.0000
  C   C782      1.0  0.88489  0.69232  0.21561  1.0000
  H   H1313     1.0  0.87742  0.60415  0.27929  1.0000
  H   H1314     1.0  0.89746  0.61632  0.27223  1.0000
  H   H1315     1.0  0.86649  0.64085  0.19322  1.0000
  H   H1316     1.0  0.86810  0.60802  0.21828  1.0000
  H   H1317     1.0  0.86323  0.67287  0.28274  1.0000
  H   H1318     1.0  0.85590  0.67245  0.23615  1.0000
  H   H1319     1.0  0.89121  0.68182  0.27184  1.0000
  H   H1320     1.0  0.90242  0.66093  0.24262  1.0000
  H   H1321     1.0  0.87514  0.64393  0.32797  1.0000
  H   H1322     1.0  0.89193  0.61852  0.33692  1.0000
  H   H1323     1.0  0.89616  0.65387  0.32065  1.0000
  H   H1324     1.0  0.88686  0.60679  0.17003  1.0000
  H   H1325     1.0  0.89745  0.63842  0.18637  1.0000
  H   H1326     1.0  0.89879  0.60503  0.21314  1.0000
  H   H1327     1.0  0.84448  0.62231  0.24332  1.0000
  H   H1328     1.0  0.83669  0.64857  0.27375  1.0000
  H   H1329     1.0  0.85190  0.62252  0.29158  1.0000
  H   H1330     1.0  0.87751  0.71045  0.22659  1.0000
  H   H1331     1.0  0.87789  0.68347  0.19108  1.0000
  H   H1332     1.0  0.89640  0.70120  0.20566  1.0000
  H   H1333     1.0  0.95501  0.90221  0.05185  1.0000
  H   H1334     1.0  0.94626  0.95690  0.26395  1.0000
  C   C783      1.0  0.86130  0.97523  0.02658  1.0000
  H   H1335     1.0  0.73481  0.81223  0.05694  1.0000
  H   H1336     1.0  0.71363  0.56540  0.03787  1.0000
  H   H1337     1.0  0.76608  0.64645  0.38550  1.0000
  C   C784      1.0  0.72013  0.59205  0.48389  1.0000
  H   H1338     1.0  0.98876  0.53878  0.99580  1.0000
  C   C785      1.0  0.98634  0.95959  0.12018  1.0000
  H   H1339     1.0  0.74573  0.64699  0.26100  1.0000
  Fe  Fe116     1.0  0.71537  0.76445  0.00197  1.0000
  C   C786      1.0  0.74314  0.53436  0.02547  1.0000
  C   C787      1.0  0.71363  0.61566  0.46200  1.0000
  H   H1340     1.0  0.69862  0.53066  0.00710  1.0000
  H   H1341     1.0  0.75600  0.88176  0.07798  1.0000
  H   H1342     1.0  0.71198  0.61742  0.38000  1.0000
  C   C788      1.0  0.73467  0.65893  0.34962  1.0000
  C   C789      1.0  0.72206  0.52517  0.07076  1.0000
  C   C790      1.0  0.96454  0.89294  0.07278  1.0000
  C   C791      1.0  0.72037  0.50099  0.00969  1.0000
  H   H1343     1.0  0.70746  0.65085  0.33478  1.0000
  Fe  Fe117     1.0  0.70482  0.70110  0.00985  1.0000
  H   H1344     1.0  0.71742  0.61963  0.29981  1.0000
  S   S236      1.0  0.90506  0.98419  0.13791  1.0000
  C   C792      1.0  0.71863  0.59868  0.36874  1.0000
  C   C793      1.0  0.97304  0.93740  0.10735  1.0000
  H   H1345     1.0  0.93711  0.95656  0.30762  1.0000
  H   H1346     1.0  0.96218  0.95005  0.09464  1.0000
  H   H1347     1.0  0.71287  0.90652  0.46612  1.0000
  H   H1348     1.0  0.98020  0.77693  0.41932  1.0000
  H   H1349     1.0  0.76237  0.56548  0.04113  1.0000
  C   C794      1.0  0.85123  0.51199  0.01365  1.0000
  C   C795      1.0  0.84806  0.95662  0.01651  1.0000
  N   N55       1.0  0.73176  0.51264  0.04075  1.0000
  H   H1350     1.0  0.77043  0.60813  0.37983  1.0000
  H   H1351     1.0  0.75264  0.55152  0.07961  1.0000
  C   C796      1.0  0.74717  0.61495  0.48617  1.0000
  H   H1352     1.0  0.71172  0.59021  0.34376  1.0000
  H   H1353     1.0  0.98105  0.97455  0.14016  1.0000
  C   C797      1.0  0.97398  0.99656  0.00307  1.0000
  Fe  Fe118     1.0  0.90351  0.98018  0.07629  1.0000
  H   H1354     1.0  0.72783  0.66685  0.27508  1.0000
  C   C798      1.0  0.72261  0.88999  0.46740  1.0000
  H   H1355     1.0  0.96956  0.70330  0.48524  1.0000
  Fe  Fe119     1.0  0.94009  0.99650  0.07208  1.0000
  N   N56       1.0  0.86208  0.81634  0.30481  1.0000
  C   C799      1.0  0.86497  0.80542  0.26687  1.0000
  C   C800      1.0  0.86120  0.84913  0.30263  1.0000
  C   C801      1.0  0.84570  0.80470  0.31484  1.0000
  C   C802      1.0  0.87622  0.80511  0.33093  1.0000
  C   C803      1.0  0.86401  0.77218  0.26137  1.0000
  C   C804      1.0  0.87718  0.86397  0.29276  1.0000
  C   C805      1.0  0.83714  0.82040  0.34558  1.0000
  C   C806      1.0  0.87780  0.81760  0.37016  1.0000
  H   H1356     1.0  0.85589  0.81571  0.24583  1.0000
  H   H1357     1.0  0.87746  0.81151  0.25904  1.0000
  H   H1358     1.0  0.85788  0.85906  0.32863  1.0000
  H   H1359     1.0  0.85099  0.85635  0.28201  1.0000
  H   H1360     1.0  0.83640  0.80530  0.29053  1.0000
  H   H1361     1.0  0.84705  0.78139  0.32303  1.0000
  H   H1362     1.0  0.87553  0.78114  0.33437  1.0000
  H   H1363     1.0  0.88839  0.80772  0.31925  1.0000
  H   H1364     1.0  0.85154  0.76373  0.26528  1.0000
  H   H1365     1.0  0.86670  0.76701  0.23279  1.0000
  H   H1366     1.0  0.87345  0.76028  0.27961  1.0000
  H   H1367     1.0  0.87552  0.88794  0.29484  1.0000
  H   H1368     1.0  0.88809  0.85756  0.31166  1.0000
  H   H1369     1.0  0.87984  0.85943  0.26411  1.0000
  H   H1370     1.0  0.83222  0.84222  0.33655  1.0000
  H   H1371     1.0  0.84520  0.82219  0.37129  1.0000
  H   H1372     1.0  0.82625  0.80763  0.35227  1.0000
  H   H1373     1.0  0.87095  0.80432  0.38903  1.0000
  H   H1374     1.0  0.87385  0.84061  0.37206  1.0000
  H   H1375     1.0  0.89110  0.81716  0.38061  1.0000
  H   H1376     1.0  0.71853  0.65683  0.43603  1.0000
  H   H1377     1.0  0.96993  0.94243  0.03552  1.0000
  H   H1378     1.0  0.75763  0.83041  0.47097  1.0000
  H   H1379     1.0  0.70061  0.61617  0.45256  1.0000
  C   C807      1.0  0.73989  0.63714  0.99472  1.0000
  H   H1380     1.0  0.69210  0.97309  0.03318  1.0000
  H   H1381     1.0  0.78251  0.63474  0.35907  1.0000
  H   H1382     1.0  0.73540  0.60105  0.28875  1.0000
  C   C808      1.0  0.75336  0.85826  0.07426  1.0000
  N   N57       1.0  0.74073  0.81948  0.11560  1.0000
  C   C809      1.0  0.74671  0.80027  0.14795  1.0000
  C   C810      1.0  0.73918  0.80016  0.08228  1.0000
  C   C811      1.0  0.72382  0.83157  0.12271  1.0000
  C   C812      1.0  0.75295  0.84360  0.11241  1.0000
  C   C813      1.0  0.74662  0.81415  0.18628  1.0000
  C   C814      1.0  0.71459  0.85013  0.09204  1.0000
  H   H1383     1.0  0.73919  0.78031  0.14842  1.0000
  H   H1384     1.0  0.75966  0.79233  0.14563  1.0000
  H   H1385     1.0  0.72948  0.78367  0.08537  1.0000
  H   H1386     1.0  0.71546  0.81356  0.12895  1.0000
  H   H1387     1.0  0.72456  0.84578  0.14729  1.0000
  H   H1388     1.0  0.75085  0.86105  0.13266  1.0000
  H   H1389     1.0  0.76582  0.83515  0.11966  1.0000
  H   H1390     1.0  0.73381  0.81665  0.19473  1.0000
  H   H1391     1.0  0.75330  0.79927  0.20686  1.0000
  H   H1392     1.0  0.75294  0.83533  0.18781  1.0000
  H   H1393     1.0  0.75788  0.76505  0.09344  1.0000
  H   H1394     1.0  0.70200  0.85566  0.10026  1.0000
  H   H1395     1.0  0.72078  0.87111  0.08829  1.0000
  H   H1396     1.0  0.76553  0.62261  0.99888  1.0000
  H   H1397     1.0  0.93567  0.50099  0.32076  1.0000
  N   N58       1.0  0.97830  0.91432  0.08120  1.0000
  H   H1398     1.0  0.74117  0.67643  0.33573  1.0000
  H   H1399     1.0  0.74255  0.61124  0.39058  1.0000
  H   H1400     1.0  0.96942  0.87278  0.06032  1.0000
  H   H1401     1.0  0.74283  0.58498  0.35492  1.0000
  C   C815      1.0  0.71601  0.66770  0.34553  1.0000
  H   H1402     1.0  0.76123  0.64897  0.31426  1.0000
  S   S237      1.0  0.88035  0.95987  0.04680  1.0000
  C   C816      1.0  0.73674  0.60573  0.36282  1.0000
  H   H1403     1.0  0.73630  0.55375  0.01389  1.0000
  N   N59       1.0  0.73961  0.62947  0.33547  1.0000
  H   H1404     1.0  0.71040  0.86346  0.42496  1.0000
  C   C817      1.0  0.97708  0.72192  0.48044  1.0000
  C   C818      1.0  0.73088  0.62247  0.29857  1.0000
  H   H1405     1.0  0.71201  0.67433  0.37266  1.0000
  C   C819      1.0  0.75800  0.62959  0.33050  1.0000
  H   H1406     1.0  0.67352  0.55489  0.45296  1.0000
  H   H1407     1.0  0.94678  0.86458  0.09585  1.0000
  C   C820      1.0  0.73272  0.64510  0.26792  1.0000
  C   C821      1.0  0.69616  0.96517  0.00677  1.0000
  H   H1408     1.0  0.97592  0.89423  0.00565  1.0000
  H   H1409     1.0  0.96250  0.87601  0.12947  1.0000
  C   C822      1.0  0.95465  0.88319  0.10483  1.0000
  H   H1410     1.0  0.71403  0.68720  0.32741  1.0000
  C   C823      1.0  0.93468  0.95428  0.27747  1.0000
  H   H1411     1.0  0.96867  0.92800  0.13266  1.0000
  C   C824      1.0  0.93782  0.50780  0.29244  1.0000
  S   S238      1.0  0.88265  0.51114  0.04898  1.0000
  C   C825      1.0  0.71608  0.55738  0.06638  1.0000
  H   H1412     1.0  0.68849  0.94602  0.99902  1.0000
  H   H1413     1.0  0.74215  0.65580  0.01218  1.0000
  S   S239      1.0  0.96577  0.51145  0.04027  1.0000
  H   H1414     1.0  0.75355  0.70755  0.00824  1.0000
  C   C826      1.0  0.75710  0.54565  0.05275  1.0000
  H   H1415     1.0  0.93100  0.51984  0.00977  1.0000
  H   H1416     1.0  0.85096  0.53469  0.02135  1.0000
  C   C827      1.0  0.98303  0.76325  0.44327  1.0000
  H   H1417     1.0  0.71099  0.51175  0.07445  1.0000
  H   H1418     1.0  0.69731  0.81480  0.48130  1.0000
  C   C828      1.0  0.66152  0.55973  0.43728  1.0000
  H   H1419     1.0  0.70917  0.95685  0.01011  1.0000
  C   C829      1.0  0.97545  0.49897  0.00074  1.0000
  H   H1420     1.0  0.66413  0.57824  0.41910  1.0000
  H   H1421     1.0  0.71267  0.83739  0.99922  1.0000
  H   H1422     1.0  0.71507  0.89128  0.99968  1.0000
  C   C830      1.0  0.83739  0.50033  0.99306  1.0000
  H   H1423     1.0  0.90522  0.50207  0.99222  1.0000
  Fe  Fe120     1.0  0.71056  0.52371  0.53388  1.0000
  C   C831      1.0  0.93323  0.55665  0.90711  1.0000
  C   C832      1.0  0.98645  0.51744  0.98432  1.0000
  C   C833      1.0  0.98158  0.77322  0.67350  1.0000
  S   S240      1.0  0.70680  0.95034  0.59385  1.0000
  C   C834      1.0  0.74147  0.71030  0.95277  1.0000
  H   H1424     1.0  0.66832  0.88186  0.55184  1.0000
  H   H1425     1.0  0.73357  0.72962  0.95834  1.0000
  Fe  Fe121     1.0  0.72079  0.95802  0.54381  1.0000
  C   C835      1.0  0.73818  0.89152  0.97432  1.0000
  S   S241      1.0  0.69622  0.52324  0.58436  1.0000
  H   H1426     1.0  0.79028  0.51278  0.78937  1.0000
  H   H1427     1.0  0.69737  0.88886  0.58091  1.0000
  H   H1428     1.0  0.72857  0.71067  0.86127  1.0000
  H   H1429     1.0  0.82022  0.51972  0.87124  1.0000
  H   H1430     1.0  0.76548  0.66068  0.86029  1.0000
  N   N60       1.0  0.69777  0.85009  0.54713  1.0000
  H   H1431     1.0  0.68079  0.90785  0.52996  1.0000
  Fe  Fe122     1.0  0.75592  0.96001  0.94511  1.0000
  H   H1432     1.0  0.72090  0.73077  0.89707  1.0000
  Fe  Fe123     1.0  0.76774  0.52204  0.93985  1.0000
  C   C836      1.0  0.90357  0.51679  0.96784  1.0000
  S   S242      1.0  0.77979  0.95218  0.91832  1.0000
  C   C837      1.0  0.66338  0.55730  0.52153  1.0000
  H   H1433     1.0  0.75882  0.83011  0.94975  1.0000
  H   H1434     1.0  0.68697  0.53936  0.68098  1.0000
  S   S243      1.0  0.74318  0.98309  0.89580  1.0000
  Fe  Fe124     1.0  0.76735  0.97833  0.87057  1.0000
  C   C838      1.0  0.66922  0.58880  0.52757  1.0000
  Fe  Fe125     1.0  0.71642  0.99341  0.61408  1.0000
  C   C839      1.0  0.96647  0.82427  0.62695  1.0000
  C   C840      1.0  0.73417  0.58754  0.95123  1.0000
  C   C841      1.0  0.72097  0.60654  0.95858  1.0000
  H   H1435     1.0  0.76275  0.73322  0.98016  1.0000
  H   H1436     1.0  0.73189  0.56853  0.93435  1.0000
  H   H1437     1.0  0.70851  0.60194  0.94732  1.0000
  H   H1438     1.0  0.74478  0.65051  0.86411  1.0000
  H   H1439     1.0  0.68008  0.99193  0.96989  1.0000
  H   H1440     1.0  0.76091  0.88405  0.94893  1.0000
  S   S244      1.0  0.76997  0.96389  0.81156  1.0000
  C   C842      1.0  0.74445  0.50750  0.77695  1.0000
  S   S245      1.0  0.73961  0.93013  0.97668  1.0000
  H   H1441     1.0  0.95713  0.80678  0.62612  1.0000
  C   C843      1.0  0.67324  0.81667  0.56015  1.0000
  H   H1442     1.0  0.98545  0.75205  0.66197  1.0000
  C   C844      1.0  0.70534  0.80677  0.50542  1.0000
  C   C845      1.0  0.69368  0.98797  0.97568  1.0000
  C   C846      1.0  0.75741  0.96301  0.73886  1.0000
  C   C847      1.0  0.74697  0.97239  0.70792  1.0000
  S   S246      1.0  0.65987  0.95574  0.56375  1.0000
  C   C848      1.0  0.75030  0.59314  0.96586  1.0000
  H   H1443     1.0  0.95175  0.85182  0.66064  1.0000
  S   S247      1.0  0.73837  0.92202  0.52483  1.0000
  H   H1444     1.0  0.75042  0.66351  0.92364  1.0000
  H   H1445     1.0  0.82665  0.51403  0.98512  1.0000
  H   H1446     1.0  0.98706  0.92397  0.98925  1.0000
  H   H1447     1.0  0.69725  0.81764  0.59037  1.0000
  Fe  Fe126     1.0  0.78765  0.99561  0.94195  1.0000
  C   C849      1.0  0.73568  0.82987  0.97503  1.0000
  H   H1448     1.0  0.89751  0.53679  0.97799  1.0000
  H   H1449     1.0  0.80730  0.93496  0.86914  1.0000
  H   H1450     1.0  0.67158  0.59960  0.50137  1.0000
  H   H1451     1.0  0.68709  0.51296  0.74109  1.0000
  C   C850      1.0  0.75712  0.71138  0.98000  1.0000
  H   H1452     1.0  0.97324  0.86052  0.66467  1.0000
  C   C851      1.0  0.74915  0.87126  0.49323  1.0000
  H   H1453     1.0  0.69953  0.78888  0.51973  1.0000
  H   H1454     1.0  0.71906  0.82028  0.55447  1.0000
  H   H1455     1.0  0.72445  0.88744  0.61064  1.0000
  H   H1456     1.0  0.67050  0.53317  0.64563  1.0000
  H   H1457     1.0  0.81294  0.91205  0.90778  1.0000
  C   C852      1.0  0.75799  0.73990  0.86393  1.0000
  H   H1458     1.0  0.66277  0.83170  0.55114  1.0000
  H   H1459     1.0  0.71954  0.84478  0.51726  1.0000
  H   H1460     1.0  0.71732  0.85097  0.61498  1.0000
  Fe  Fe127     1.0  0.68572  0.97570  0.56342  1.0000
  H   H1461     1.0  0.74227  0.57408  0.51279  1.0000
  H   H1462     1.0  0.96797  0.77574  0.66839  1.0000
  N   N61       1.0  0.83901  0.96487  0.87516  1.0000
  H   H1463     1.0  0.93617  0.54274  0.88363  1.0000
  H   H1464     1.0  0.76693  0.72293  0.85598  1.0000
  H   H1465     1.0  0.83942  0.93468  0.92113  1.0000
  H   H1466     1.0  0.74687  0.75585  0.91165  1.0000
  C   C853      1.0  0.72374  0.63147  0.98026  1.0000
  H   H1467     1.0  0.67562  0.80187  0.53742  1.0000
  H   H1468     1.0  0.67383  0.54537  0.51032  1.0000
  H   H1469     1.0  0.76020  0.61446  0.49570  1.0000
  H   H1470     1.0  0.71024  0.68828  0.92476  1.0000
  S   S248      1.0  0.78638  0.50870  0.89996  1.0000
  H   H1471     1.0  0.66902  0.80312  0.58269  1.0000
  S   S249      1.0  0.69922  0.98115  0.51202  1.0000
  H   H1472     1.0  0.76423  0.76108  0.86158  1.0000
  H   H1473     1.0  0.94087  0.50180  0.93123  1.0000
  H   H1474     1.0  0.68432  0.84832  0.59626  1.0000
  H   H1475     1.0  0.96607  0.82848  0.68707  1.0000
  C   C854      1.0  0.75311  0.66946  0.86635  1.0000
  H   H1476     1.0  0.97373  0.77182  0.60036  1.0000
  N   N62       1.0  0.98366  0.81206  0.62265  1.0000
  C   C855      1.0  0.71105  0.83115  0.53200  1.0000
  H   H1477     1.0  0.97499  0.78047  0.53621  1.0000
  C   C856      1.0  0.97694  0.79964  0.55432  1.0000
  H   H1478     1.0  0.84527  0.92780  0.84229  1.0000
  H   H1479     1.0  0.98418  0.77245  0.70383  1.0000
  C   C857      1.0  0.93130  0.53455  0.98561  1.0000
  H   H1480     1.0  0.83779  0.51347  0.84458  1.0000
  H   H1481     1.0  0.82160  0.95952  0.82678  1.0000
  S   S250      1.0  0.69764  0.73631  0.96790  1.0000
  H   H1482     1.0  0.88647  0.51820  0.91739  1.0000
  S   S251      1.0  0.73500  0.79114  0.97611  1.0000
  C   C858      1.0  0.91741  0.54621  0.92379  1.0000
  H   H1483     1.0  0.94431  0.55688  0.92697  1.0000
  H   H1484     1.0  0.73442  0.69120  0.96096  1.0000
  H   H1485     1.0  0.80832  0.50441  0.76635  1.0000
  C   C859      1.0  0.72765  0.71009  0.89125  1.0000
  H   H1486     1.0  0.69366  0.87144  0.49420  1.0000
  H   H1487     1.0  0.74928  0.68537  0.84441  1.0000
  C   C860      1.0  0.73643  0.51946  0.74436  1.0000
  H   H1488     1.0  0.87220  0.94428  0.82408  1.0000
  N   N63       1.0  0.74444  0.70899  0.91257  1.0000
  C   C861      1.0  0.75435  0.68155  0.90594  1.0000
  H   H1489     1.0  0.93131  0.57952  0.89742  1.0000
  C   C862      1.0  0.70631  0.87541  0.56630  1.0000
  H   H1490     1.0  0.91017  0.56546  0.93257  1.0000
  C   C863      1.0  0.71607  0.68484  0.89875  1.0000
  H   H1491     1.0  0.74795  0.96217  0.68159  1.0000
  H   H1492     1.0  0.85974  0.93397  0.88021  1.0000
  C   C864      1.0  0.74919  0.84338  0.96055  1.0000
  H   H1493     1.0  0.73193  0.86009  0.58161  1.0000
  H   H1494     1.0  0.70577  0.68426  0.87672  1.0000
  C   C865      1.0  0.85156  0.94543  0.85847  1.0000
  C   C866      1.0  0.81805  0.92441  0.88523  1.0000
  H   H1495     1.0  0.92928  0.58234  0.97832  1.0000
  C   C867      1.0  0.67598  0.52591  0.67307  1.0000
  H   H1496     1.0  0.76773  0.68466  0.91439  1.0000
  C   C868      1.0  0.89070  0.50295  0.93998  1.0000
  C   C869      1.0  0.72463  0.87800  0.98866  1.0000
  H   H1497     1.0  0.71123  0.89037  0.54597  1.0000
  S   S252      1.0  0.76731  0.56946  0.95872  1.0000
  H   H1498     1.0  0.76647  0.69428  0.97480  1.0000
  C   C870      1.0  0.68871  0.83350  0.57486  1.0000
  H   H1499     1.0  0.74684  0.74095  0.84423  1.0000
  H   H1500     1.0  0.72242  0.66325  0.89982  1.0000
  H   H1501     1.0  0.90945  0.53757  0.90023  1.0000
  H   H1502     1.0  0.76636  0.94554  0.73599  1.0000
  C   C871      1.0  0.67428  0.88686  0.52638  1.0000
  C   C872      1.0  0.75633  0.97601  0.77343  1.0000
  C   C873      1.0  0.75384  0.73587  0.90394  1.0000
  C   C874      1.0  0.96594  0.98146  0.97375  1.0000
  C   C875      1.0  0.75040  0.87401  0.95999  1.0000
  Fe  Fe128     1.0  0.71904  0.50184  0.61348  1.0000
  C   C876      1.0  0.73648  0.89283  0.49261  1.0000
  H   H1503     1.0  0.74487  0.51972  0.80221  1.0000
  H   H1504     1.0  0.82411  0.90838  0.86792  1.0000
  C   C877      1.0  0.83110  0.50528  0.86747  1.0000
  N   N64       1.0  0.92007  0.52365  0.95382  1.0000
  S   S253      1.0  0.72493  0.51979  0.67139  1.0000
  C   C878      1.0  0.73579  0.50396  0.71115  1.0000
  H   H1505     1.0  0.73069  0.54091  0.74488  1.0000
  C   C879      1.0  0.97429  0.97499  0.94212  1.0000
  C   C880      1.0  0.72079  0.86755  0.59504  1.0000
  H   H1506     1.0  0.76600  0.73632  0.92044  1.0000
  C   C881      1.0  0.80344  0.50522  0.79383  1.0000
  H   H1507     1.0  0.66249  0.54730  0.54903  1.0000
  H   H1508     1.0  0.70160  0.51175  0.96575  1.0000
  H   H1509     1.0  0.96788  0.96338  0.91970  1.0000
  C   C882      1.0  0.68633  0.86239  0.51589  1.0000
  H   H1510     1.0  0.81008  0.52168  0.81098  1.0000
  H   H1511     1.0  0.96225  0.83876  0.60336  1.0000
  H   H1512     1.0  0.98655  0.81290  0.54265  1.0000
  C   C883      1.0  0.98257  0.78890  0.59352  1.0000
  H   H1513     1.0  0.66640  0.53047  0.69222  1.0000
  C   C884      1.0  0.73542  0.99514  0.71116  1.0000
  H   H1514     1.0  0.75999  0.87320  0.51241  1.0000
  H   H1515     1.0  0.69796  0.97662  0.95124  1.0000
  H   H1516     1.0  0.83356  0.99070  0.82581  1.0000
  C   C885      1.0  0.96451  0.84225  0.66195  1.0000
  H   H1517     1.0  0.96498  0.81192  0.55292  1.0000
  H   H1518     1.0  0.71457  0.54150  0.97767  1.0000
  H   H1519     1.0  0.82338  0.96095  0.92060  1.0000
  C   C886      1.0  0.73700  0.59195  0.49599  1.0000
  S   S254      1.0  0.70654  0.65424  0.98902  1.0000
  H   H1520     1.0  0.80836  0.98970  0.88342  1.0000
  H   H1521     1.0  0.95329  0.97480  0.97537  1.0000
  H   H1522     1.0  0.68126  0.58818  0.54465  1.0000
  S   S255      1.0  0.73391  0.50515  0.56398  1.0000
  C   C887      1.0  0.72329  0.84740  0.98867  1.0000
  H   H1523     1.0  0.94451  0.53401  0.97935  1.0000
  C   C888      1.0  0.83029  0.94695  0.90213  1.0000
  H   H1524     1.0  0.66053  0.60213  0.54269  1.0000
  H   H1525     1.0  0.83994  0.50725  0.89225  1.0000
  H   H1526     1.0  0.72473  0.99494  0.96566  1.0000
  C   C889      1.0  0.82701  0.97695  0.84486  1.0000
  H   H1527     1.0  0.85574  0.96807  0.80667  1.0000
  C   C890      1.0  0.75309  0.61818  0.98731  1.0000
  C   C891      1.0  0.86282  0.96043  0.83231  1.0000
  C   C892      1.0  0.70824  0.52294  0.98932  1.0000
  H   H1528     1.0  0.85827  0.96618  0.94435  1.0000
  H   H1529     1.0  0.66433  0.89028  0.50385  1.0000
  S   S256      1.0  0.70670  0.56314  0.49438  1.0000
  H   H1530     1.0  0.67876  0.84527  0.50182  1.0000
  H   H1531     1.0  0.86975  0.97873  0.84535  1.0000
  H   H1532     1.0  0.87269  0.97302  0.91031  1.0000
  C   C893      1.0  0.86184  0.98186  0.92348  1.0000
  H   H1533     1.0  0.82305  0.95286  0.99094  1.0000
  C   C894      1.0  0.83116  0.99713  0.98980  1.0000
  C   C895      1.0  0.84720  0.99001  0.89527  1.0000
  H   H1534     1.0  0.71650  0.79695  0.49410  1.0000
  H   H1535     1.0  0.98855  0.84887  0.58793  1.0000
  C   C896      1.0  0.81286  0.99664  0.85713  1.0000
  H   H1536     1.0  0.80193  0.99543  0.83668  1.0000
