data_image0
_chemical_formula_structural       S3FeS2FeS2FeSFeHS2FeS2FeS2FeSFeS3CH3C7H4C6H4C2HFeHC6H3C6H4CH3NC8H23C3NHNCH2CH8CH4CHFeCNH5CH2C2HSHNC3H4CHCHCNC8H18CH5CH2CH2CH3C2H8CH2FeS2H4SHSFeS2HCFeCS2HSH2CNC3H7CHC6H3FeH2CHCSH2CHCHCHCHSH3SHC2HCH2C3HCHC2HCHCFeH3NH3CH3CH2CHC2FeCH3CHCFeH2NH4SC2HCH2FeCHFeS2FeS2FeSFeS3FeHFeHSH2CS2H2CH2C7H4C3H3C3H3C7H5CH3SHSH3CHCHCH4NC5H6C2HSCHCH6NC8H22C2H5SHCH3CH7SH4NH2C2HNH2C2HCHCHC2H3C2H2C2HCFeS2FeS2FeSFeS3FeS2FeSCFeSFeS6C6H3C6H4C6H4C6H4CH2C6H4NC7H15NH6C3H4NCH4CFeHCH3CHC2HC4H15FeCH2SHCH3C3H9CHCH3CH2CH6CH2NH3CH2SHCFeS2HCHSHFeS2FeSHFe2S2C6H5C7H4NFeSH2CHCHNH2C4H2C2H2CH6CH3CH3CH3CH4CH3CH2CHCH2CH2SHSH3CH4CSHC4HCH2NC3H5FeHCHSH6CSH3SHCSC2FeS2FeSHFeS2FeSFeS3CH2SC6H5C2H4C6H5C3HNHC2H6CHC3H3CH2CH3CHC2H2SHCHCH6CHNCH2C2HCH3C2H6C2H2NH5C2H2FeHFeCH4CH5C2HSH5C2H3CH2NC2SCFeSH2CFeS2FeS2FeSFeS3CH3C6H4C3H4C4H3C6H6CH4SCH6C2H6C2HCH5CHNC8H10SH3CH5NHC2SH2CH4CH3CHC2HNH3CHFeH4C3H6C2HCH2FeS2FeHSHCFeS2FeCFeSFeCS2H3SHC7H5C2HC3HCH2C3HC2H3SCHFeHCNH3CH3CH3NH4CH3CHCH3SCH2CH4SH2CH2C2HCH3FeH2SH2CHCHC2HC2HC2NH2CH4SH6SC2HFeS2FeS2FeSFeS3FeS2FeS2FeSFeS3CS2FeSH8C6H4CHCH2C2HC6H4C6H4C3H2CH6FeH8C2HCH2NH2C2HC3H5CHCH2C3H4NCH6SCH2CH2NCHCH4CH2CHC5H2CH3NC3H3CHCH4NH2CHC2H7C2HCHCH6CH5CH3CH3C2H3NFeS2FeS2FeCFeS4HSFeSHC2H2CH2C6H5C4H6C5H3CNCH3C3H2CH4C2HCH2NC5H11CH3NH2CH2C2HCH3SHNSH3CH3FeH2C2H4CHCH5CH3C4H3CH2CH6CH4C2HCH3SNH5CHCFeH4C2FeS2FeSFeSFeS3FeCSH3SCSNH3CHC6H3CHCHC3H2C6H4SH8CHCH12CHCH3CH4CH5C2HCHCHC2H2CHNHFeCH5C2HC2H3CH3CHCHCHCHSH2CH3NCH2C4FeS2FeCFeSFeS2FeS2FeSFeS3FeS2FeS2FeSFeS3CH2CHCHC7H4C6HSH2CH3C6H4C6H6CH5CHCH8C3H2NC7H17NCH2C2H3CH3CH2CH5C2HCH2NC5HC2H9CHCHCH3CNH13CHS2H3SH4
_chemical_formula_sum              "S192 Fe96 H1152 C672 N48"
_cell_length_a       46.4466
_cell_length_b       46.6357
_cell_length_c       46.5176
_cell_angle_alpha    89.9915
_cell_angle_beta     89.96
_cell_angle_gamma    90.0352

_space_group_name_H-M_alt    "P 1"
_space_group_IT_number       1

loop_
  _space_group_symop_operation_xyz
  'x, y, z'

loop_
  _atom_site_type_symbol
  _atom_site_label
  _atom_site_symmetry_multiplicity
  _atom_site_fract_x
  _atom_site_fract_y
  _atom_site_fract_z
  _atom_site_occupancy
  S   S1        1.0  0.11327  0.15519  0.30326  1.0000
  S   S2        1.0  0.14161  0.23708  0.29927  1.0000
  S   S3        1.0  0.17287  0.09955  0.28717  1.0000
  Fe  Fe1       1.0  0.32968  0.08848  0.21998  1.0000
  S   S4        1.0  0.31030  0.07378  0.17827  1.0000
  S   S5        1.0  0.30735  0.10049  0.26175  1.0000
  Fe  Fe2       1.0  0.39014  0.09527  0.19408  1.0000
  S   S6        1.0  0.37503  0.08245  0.15023  1.0000
  S   S7        1.0  0.43552  0.10708  0.20886  1.0000
  Fe  Fe3       1.0  0.33599  0.10960  0.15873  1.0000
  S   S8        1.0  0.31252  0.13416  0.12400  1.0000
  Fe  Fe4       1.0  0.35055  0.04727  0.17281  1.0000
  H   H1        1.0  0.42031  0.24169  0.18257  1.0000
  S   S9        1.0  0.35317  0.12592  0.20058  1.0000
  S   S10       1.0  0.36788  0.05872  0.21656  1.0000
  Fe  Fe5       1.0  0.19025  0.30056  0.07850  1.0000
  S   S11       1.0  0.23069  0.32460  0.09081  1.0000
  S   S12       1.0  0.16734  0.29335  0.03542  1.0000
  Fe  Fe6       1.0  0.18221  0.27630  0.13957  1.0000
  S   S13       1.0  0.22146  0.29835  0.15623  1.0000
  S   S14       1.0  0.15600  0.24292  0.16356  1.0000
  Fe  Fe7       1.0  0.20655  0.33695  0.13103  1.0000
  S   S15       1.0  0.21413  0.37793  0.15671  1.0000
  Fe  Fe8       1.0  0.24253  0.28459  0.11525  1.0000
  S   S16       1.0  0.28793  0.26720  0.11738  1.0000
  S   S17       1.0  0.16505  0.31566  0.11735  1.0000
  S   S18       1.0  0.20437  0.25973  0.10010  1.0000
  C   C1        1.0  0.08504  0.08312  0.29922  1.0000
  H   H2        1.0  0.41061  0.01303  0.10212  1.0000
  H   H3        1.0  0.27220  0.13429  0.29881  1.0000
  H   H4        1.0  0.27675  0.29142  0.04492  1.0000
  C   C2        1.0  0.47140  0.10083  0.16126  1.0000
  C   C3        1.0  0.18471  0.47151  0.14434  1.0000
  C   C4        1.0  0.20381  0.46407  0.16634  1.0000
  C   C5        1.0  0.21292  0.43540  0.16944  1.0000
  C   C6        1.0  0.20321  0.41390  0.15055  1.0000
  C   C7        1.0  0.18413  0.42131  0.12855  1.0000
  C   C8        1.0  0.17488  0.44996  0.12555  1.0000
  H   H5        1.0  0.08699  0.00966  0.30090  1.0000
  H   H6        1.0  0.22765  0.42989  0.18657  1.0000
  H   H7        1.0  0.17637  0.40500  0.11396  1.0000
  H   H8        1.0  0.16008  0.45552  0.10850  1.0000
  C   C9        1.0  0.30433  0.17093  0.12627  1.0000
  C   C10       1.0  0.27857  0.18083  0.11409  1.0000
  C   C11       1.0  0.27253  0.21030  0.11293  1.0000
  C   C12       1.0  0.29285  0.23013  0.12275  1.0000
  C   C13       1.0  0.31843  0.22022  0.13538  1.0000
  C   C14       1.0  0.32389  0.19065  0.13769  1.0000
  H   H9        1.0  0.26336  0.16562  0.10525  1.0000
  H   H10       1.0  0.25262  0.21764  0.10351  1.0000
  H   H11       1.0  0.33413  0.23551  0.14313  1.0000
  H   H12       1.0  0.34368  0.18314  0.14717  1.0000
  C   C15       1.0  0.46896  0.10789  0.19037  1.0000
  C   C16       1.0  0.06382  0.02560  0.26409  1.0000
  H   H13       1.0  0.13713  0.32398  0.25217  1.0000
  Fe  Fe9       1.0  0.13513  0.19420  0.32147  1.0000
  H   H14       1.0  0.45260  0.09381  0.14948  1.0000
  C   C17       1.0  0.20996  0.10133  0.27858  1.0000
  C   C18       1.0  0.22835  0.12027  0.29287  1.0000
  C   C19       1.0  0.25806  0.11998  0.28716  1.0000
  C   C20       1.0  0.26963  0.10129  0.26653  1.0000
  C   C21       1.0  0.25114  0.08309  0.25133  1.0000
  C   C22       1.0  0.22142  0.08296  0.25754  1.0000
  H   H15       1.0  0.10628  0.33864  0.26796  1.0000
  H   H16       1.0  0.25986  0.06852  0.23544  1.0000
  H   H17       1.0  0.20736  0.06828  0.24626  1.0000
  C   C23       1.0  0.14599  0.23825  0.26158  1.0000
  C   C24       1.0  0.13273  0.21804  0.24378  1.0000
  C   C25       1.0  0.13565  0.22006  0.21376  1.0000
  C   C26       1.0  0.15246  0.24180  0.20132  1.0000
  C   C27       1.0  0.16636  0.26159  0.21912  1.0000
  C   C28       1.0  0.16271  0.26012  0.24914  1.0000
  H   H18       1.0  0.11969  0.20123  0.25312  1.0000
  H   H19       1.0  0.12490  0.20463  0.20010  1.0000
  H   H20       1.0  0.18012  0.27775  0.20973  1.0000
  H   H21       1.0  0.17326  0.27564  0.26284  1.0000
  C   C29       1.0  0.41597  0.21239  0.14553  1.0000
  H   H22       1.0  0.10644  0.03488  0.28010  1.0000
  H   H23       1.0  0.43174  0.04460  0.22547  1.0000
  H   H24       1.0  0.38875  0.16461  0.16401  1.0000
  N   N1        1.0  0.22429  0.17629  0.20672  1.0000
  C   C30       1.0  0.19827  0.17027  0.22534  1.0000
  C   C31       1.0  0.21659  0.16758  0.17644  1.0000
  C   C32       1.0  0.23033  0.20812  0.20797  1.0000
  C   C33       1.0  0.24914  0.15927  0.21872  1.0000
  C   C34       1.0  0.19921  0.18250  0.25618  1.0000
  C   C35       1.0  0.21039  0.13539  0.17198  1.0000
  C   C36       1.0  0.24799  0.22127  0.18318  1.0000
  C   C37       1.0  0.27711  0.15822  0.20093  1.0000
  H   H25       1.0  0.17837  0.17885  0.21513  1.0000
  H   H26       1.0  0.19461  0.14679  0.22778  1.0000
  H   H27       1.0  0.23367  0.17323  0.16080  1.0000
  H   H28       1.0  0.19735  0.17985  0.16896  1.0000
  H   H29       1.0  0.20977  0.22039  0.20809  1.0000
  H   H30       1.0  0.24152  0.21382  0.22837  1.0000
  H   H31       1.0  0.25553  0.16762  0.24017  1.0000
  H   H32       1.0  0.24271  0.13676  0.22339  1.0000
  H   H33       1.0  0.21790  0.17458  0.26856  1.0000
  H   H34       1.0  0.19910  0.20627  0.25641  1.0000
  H   H35       1.0  0.17952  0.17549  0.26779  1.0000
  H   H36       1.0  0.22907  0.12186  0.17805  1.0000
  H   H37       1.0  0.19090  0.12829  0.18377  1.0000
  H   H38       1.0  0.20624  0.13149  0.14879  1.0000
  H   H39       1.0  0.23495  0.22257  0.16320  1.0000
  H   H40       1.0  0.26821  0.20964  0.17884  1.0000
  H   H41       1.0  0.25391  0.24367  0.18880  1.0000
  H   H42       1.0  0.29169  0.17621  0.20663  1.0000
  H   H43       1.0  0.27365  0.15780  0.17749  1.0000
  H   H44       1.0  0.28840  0.13774  0.20561  1.0000
  H   H45       1.0  0.03426  0.13587  0.30447  1.0000
  H   H46       1.0  0.20990  0.33138  0.00808  1.0000
  H   H47       1.0  0.41468  0.03824  0.13052  1.0000
  C   C38       1.0  0.27004  0.23303  0.04167  1.0000
  C   C39       1.0  0.22243  0.24129  0.02112  1.0000
  C   C40       1.0  0.26159  0.29481  0.02683  1.0000
  N   N2        1.0  0.42995  0.18460  0.15482  1.0000
  H   H48       1.0  0.07969  0.09993  0.31537  1.0000
  N   N3        1.0  0.25419  0.24114  0.01463  1.0000
  C   C41       1.0  0.30317  0.23371  0.03969  1.0000
  H   H49       1.0  0.41671  0.00994  0.22956  1.0000
  H   H50       1.0  0.03693  0.00736  0.31382  1.0000
  C   C42       1.0  0.39795  0.15497  0.12015  1.0000
  H   H51       1.0  0.26341  0.24695  0.05996  1.0000
  H   H52       1.0  0.26418  0.21090  0.04852  1.0000
  H   H53       1.0  0.21760  0.25678  0.03854  1.0000
  H   H54       1.0  0.47028  0.03845  0.14773  1.0000
  H   H55       1.0  0.39081  0.17483  0.10919  1.0000
  H   H56       1.0  0.31222  0.22785  0.06101  1.0000
  H   H57       1.0  0.21974  0.13502  0.30850  1.0000
  H   H58       1.0  0.42839  0.04371  0.17706  1.0000
  C   C43       1.0  0.42800  0.02117  0.18501  1.0000
  H   H59       1.0  0.20955  0.24954  0.00274  1.0000
  H   H60       1.0  0.41463  0.14394  0.10713  1.0000
  H   H61       1.0  0.04508  0.04011  0.26329  1.0000
  H   H62       1.0  0.21114  0.21039  0.05506  1.0000
  C   C44       1.0  0.01746  0.12552  0.31682  1.0000
  H   H63       1.0  0.07743  0.11484  0.26600  1.0000
  Fe  Fe10      1.0  0.15323  0.13207  0.31775  1.0000
  C   C45       1.0  0.04574  0.05388  0.31922  1.0000
  N   N4        1.0  0.44771  0.00258  0.16713  1.0000
  H   H64       1.0  0.23956  0.29783  0.03531  1.0000
  H   H65       1.0  0.05553  0.00325  0.26453  1.0000
  H   H66       1.0  0.48976  0.20090  0.16005  1.0000
  H   H67       1.0  0.07986  0.07949  0.25229  1.0000
  H   H68       1.0  0.10857  0.08488  0.29545  1.0000
  C   C46       1.0  0.48162  0.19792  0.13788  1.0000
  H   H69       1.0  0.21151  0.48041  0.18094  1.0000
  H   H70       1.0  0.45498  0.01464  0.22498  1.0000
  C   C47       1.0  0.07131  0.09224  0.27048  1.0000
  C   C48       1.0  0.20935  0.21257  0.03134  1.0000
  H   H71       1.0  0.45221  0.16546  0.19093  1.0000
  S   S19       1.0  0.35390  0.00613  0.14663  1.0000
  H   H72       1.0  0.48355  0.04480  0.19792  1.0000
  N   N5        1.0  0.07712  0.05388  0.31069  1.0000
  C   C49       1.0  0.45560  0.17755  0.13617  1.0000
  C   C50       1.0  0.43272  0.99522  0.13923  1.0000
  C   C51       1.0  0.26282  0.27060  0.00428  1.0000
  H   H73       1.0  0.45052  0.24296  0.15830  1.0000
  H   H74       1.0  0.41744  0.13997  0.15944  1.0000
  H   H75       1.0  0.31152  0.25535  0.03445  1.0000
  H   H76       1.0  0.04750  0.09174  0.27069  1.0000
  C   C52       1.0  0.47509  0.01834  0.15963  1.0000
  H   H77       1.0  0.49198  0.12254  0.22785  1.0000
  C   C53       1.0  0.40849  0.16052  0.15115  1.0000
  H   H78       1.0  0.44953  0.17695  0.11305  1.0000
  C   C54       1.0  0.49363  0.11706  0.20530  1.0000
  N   N6        1.0  0.14715  0.36808  0.21232  1.0000
  C   C55       1.0  0.13745  0.38852  0.18903  1.0000
  C   C56       1.0  0.15253  0.33947  0.19814  1.0000
  C   C57       1.0  0.17465  0.37972  0.22533  1.0000
  C   C58       1.0  0.12368  0.36650  0.23466  1.0000
  C   C59       1.0  0.13539  0.42050  0.19754  1.0000
  C   C60       1.0  0.12599  0.32472  0.18476  1.0000
  C   C61       1.0  0.19554  0.35797  0.23909  1.0000
  C   C62       1.0  0.12772  0.34459  0.25918  1.0000
  H   H79       1.0  0.15216  0.38733  0.17015  1.0000
  H   H80       1.0  0.11583  0.38252  0.18069  1.0000
  H   H81       1.0  0.16177  0.32373  0.21326  1.0000
  H   H82       1.0  0.16912  0.34169  0.18097  1.0000
  H   H83       1.0  0.18776  0.39098  0.20881  1.0000
  H   H84       1.0  0.16983  0.39636  0.24182  1.0000
  H   H85       1.0  0.12110  0.38761  0.24548  1.0000
  H   H86       1.0  0.10216  0.36283  0.22478  1.0000
  H   H87       1.0  0.15651  0.42962  0.20390  1.0000
  H   H88       1.0  0.12829  0.43303  0.17848  1.0000
  H   H89       1.0  0.11934  0.42426  0.21475  1.0000
  H   H90       1.0  0.11713  0.33702  0.16641  1.0000
  H   H91       1.0  0.13265  0.30353  0.17609  1.0000
  H   H92       1.0  0.10898  0.32042  0.20092  1.0000
  H   H93       1.0  0.18508  0.34384  0.25505  1.0000
  H   H94       1.0  0.21293  0.36987  0.25035  1.0000
  H   H95       1.0  0.20625  0.34476  0.22230  1.0000
  H   H96       1.0  0.14093  0.35377  0.27683  1.0000
  C   C63       1.0  0.41468  0.18627  0.20820  1.0000
  H   H97       1.0  0.41703  0.25892  0.14860  1.0000
  H   H98       1.0  0.21927  0.19357  0.02119  1.0000
  H   H99       1.0  0.07555  0.02806  0.24339  1.0000
  H   H100      1.0  0.40504  0.16471  0.21144  1.0000
  H   H101      1.0  0.39749  0.20153  0.20201  1.0000
  C   C64       1.0  0.43927  0.18490  0.18589  1.0000
  H   H102      1.0  0.18621  0.21187  0.02526  1.0000
  H   H103      1.0  0.39231  0.21198  0.14970  1.0000
  C   C65       1.0  0.42566  0.02056  0.11910  1.0000
  H   H104      1.0  0.46374  0.15571  0.14136  1.0000
  H   H105      1.0  0.44516  0.02871  0.10799  1.0000
  C   C66       1.0  0.42694  0.24028  0.15971  1.0000
  H   H106      1.0  0.41795  0.21527  0.12184  1.0000
  H   H107      1.0  0.45397  0.20304  0.19057  1.0000
  H   H108      1.0  0.37902  0.14041  0.12083  1.0000
  C   C67       1.0  0.43364  0.02209  0.21786  1.0000
  C   C68       1.0  0.08478  0.03060  0.28954  1.0000
  H   H109      1.0  0.03148  0.06177  0.30191  1.0000
  H   H110      1.0  0.42351  0.19301  0.22934  1.0000
  H   H111      1.0  0.28502  0.27051  0.99525  1.0000
  H   H112      1.0  0.48866  0.00507  0.14501  1.0000
  H   H113      1.0  0.40527  0.01395  0.18243  1.0000
  H   H114      1.0  0.13375  0.02895  0.32081  1.0000
  H   H115      1.0  0.31143  0.21783  0.02399  1.0000
  H   H116      1.0  0.26125  0.19745  0.99967  1.0000
  C   C69       1.0  0.17724  0.29992  0.99912  1.0000
  H   H117      1.0  0.26780  0.31535  0.01642  1.0000
  H   H118      1.0  0.47690  0.21877  0.12749  1.0000
  Fe  Fe11      1.0  0.15489  0.16289  0.37629  1.0000
  S   S20       1.0  0.13556  0.12120  0.36152  1.0000
  S   S21       1.0  0.18394  0.17146  0.41498  1.0000
  H   H119      1.0  0.43429  0.25236  0.58104  1.0000
  H   H120      1.0  0.46001  0.23152  0.62591  1.0000
  H   H121      1.0  0.40315  0.28678  0.64321  1.0000
  H   H122      1.0  0.35631  0.29299  0.57207  1.0000
  S   S22       1.0  0.11561  0.18892  0.36561  1.0000
  H   H123      1.0  0.41821  0.21071  0.63341  1.0000
  S   S23       1.0  0.28899  0.18364  0.63584  1.0000
  Fe  Fe12      1.0  0.20066  0.13501  0.58573  1.0000
  S   S24       1.0  0.24316  0.11735  0.60165  1.0000
  S   S25       1.0  0.17934  0.12242  0.54320  1.0000
  H   H124      1.0  0.23286  0.32862  0.64426  1.0000
  C   C70       1.0  0.28012  0.08822  0.36208  1.0000
  Fe  Fe13      1.0  0.24770  0.15998  0.62447  1.0000
  C   C71       1.0  0.37387  0.20295  0.62265  1.0000
  S   S26       1.0  0.17557  0.11824  0.62392  1.0000
  S   S27       1.0  0.20730  0.17877  0.60553  1.0000
  H   H125      1.0  0.14568  0.13010  0.44336  1.0000
  S   S28       1.0  0.31456  0.31619  0.62009  1.0000
  H   H126      1.0  0.26951  0.14419  0.35720  1.0000
  H   H127      1.0  0.13668  0.04285  0.35637  1.0000
  C   C72       1.0  0.29207  0.22126  0.63316  1.0000
  N   N7        1.0  0.40179  0.25015  0.61439  1.0000
  C   C73       1.0  0.30468  0.28012  0.62645  1.0000
  C   C74       1.0  0.28843  0.26541  0.60569  1.0000
  C   C75       1.0  0.28185  0.23614  0.60916  1.0000
  H   H128      1.0  0.28147  0.27654  0.58649  1.0000
  H   H129      1.0  0.27012  0.22477  0.59260  1.0000
  H   H130      1.0  0.26605  0.09404  0.34387  1.0000
  H   H131      1.0  0.21872  0.07497  0.42377  1.0000
  H   H132      1.0  0.20583  0.11044  0.42805  1.0000
  H   H133      1.0  0.38221  0.24523  0.57222  1.0000
  H   H134      1.0  0.08753  0.02923  0.34895  1.0000
  C   C76       1.0  0.37892  0.25757  0.59250  1.0000
  H   H135      1.0  0.22639  0.11531  0.35347  1.0000
  C   C77       1.0  0.18102  0.15894  0.45096  1.0000
  C   C78       1.0  0.20073  0.16899  0.47163  1.0000
  C   C79       1.0  0.20025  0.15852  0.50010  1.0000
  C   C80       1.0  0.18024  0.13756  0.50811  1.0000
  C   C81       1.0  0.16068  0.12738  0.48736  1.0000
  C   C82       1.0  0.16090  0.13812  0.45901  1.0000
  H   H136      1.0  0.21647  0.18500  0.46559  1.0000
  H   H137      1.0  0.21551  0.16644  0.51576  1.0000
  H   H138      1.0  0.14514  0.11114  0.49333  1.0000
  Fe  Fe14      1.0  0.18598  0.16042  0.64487  1.0000
  H   H139      1.0  0.18863  0.08127  0.34863  1.0000
  H   H140      1.0  0.17202  0.31459  0.59361  1.0000
  C   C83       1.0  0.37662  0.28949  0.58421  1.0000
  H   H141      1.0  0.23112  0.21612  0.65086  1.0000
  C   C84       1.0  0.39444  0.26452  0.64261  1.0000
  S   S29       1.0  0.38991  0.35562  0.63513  1.0000
  H   H142      1.0  0.28105  0.08625  0.40775  1.0000
  H   H143      1.0  0.18456  0.27854  0.59382  1.0000
  C   C85       1.0  0.24368  0.10063  0.45263  1.0000
  H   H144      1.0  0.39756  0.47933  0.55784  1.0000
  C   C86       1.0  0.22583  0.09773  0.42475  1.0000
  H   H145      1.0  0.21562  0.25774  0.62497  1.0000
  C   C87       1.0  0.31325  0.26561  0.65132  1.0000
  H   H146      1.0  0.00168  0.10452  0.38494  1.0000
  C   C88       1.0  0.02113  0.12137  0.34636  1.0000
  H   H147      1.0  0.24956  0.12321  0.45733  1.0000
  S   S30       1.0  0.17581  0.17135  0.33340  1.0000
  H   H148      1.0  0.26326  0.08708  0.45230  1.0000
  H   H149      1.0  0.18656  0.03842  0.62306  1.0000
  H   H150      1.0  0.37771  0.18055  0.62981  1.0000
  S   S31       1.0  0.05364  0.13029  0.36432  1.0000
  H   H151      1.0  0.21940  0.06182  0.36024  1.0000
  C   C89       1.0  0.43022  0.26103  0.60301  1.0000
  C   C90       1.0  0.20260  0.25239  0.64420  1.0000
  H   H152      1.0  0.27442  0.13498  0.41267  1.0000
  C   C91       1.0  0.26406  0.08515  0.39096  1.0000
  H   H153      1.0  0.23937  0.14927  0.41600  1.0000
  H   H154      1.0  0.29802  0.10394  0.36376  1.0000
  C   C92       1.0  0.30748  0.23618  0.65436  1.0000
  C   C93       1.0  0.40295  0.21788  0.61655  1.0000
  C   C94       1.0  0.19272  0.02136  0.63757  1.0000
  H   H155      1.0  0.39451  0.29623  0.56991  1.0000
  C   C95       1.0  0.20351  0.07819  0.36705  1.0000
  H   H156      1.0  0.20752  0.30746  0.60614  1.0000
  C   C96       1.0  0.37558  0.47259  0.64098  1.0000
  C   C97       1.0  0.48702  0.33871  0.65525  1.0000
  H   H157      1.0  0.35712  0.25145  0.60046  1.0000
  C   C98       1.0  0.25747  0.15507  0.37453  1.0000
  H   H158      1.0  0.20052  0.12258  0.37989  1.0000
  C   C99       1.0  0.18529  0.29905  0.60595  1.0000
  Fe  Fe15      1.0  0.09697  0.14758  0.34830  1.0000
  H   H159      1.0  0.36139  0.21395  0.63965  1.0000
  H   H160      1.0  0.41147  0.20850  0.59620  1.0000
  H   H161      1.0  0.19032  0.07014  0.38522  1.0000
  N   N8        1.0  0.24062  0.10662  0.39720  1.0000
  H   H162      1.0  0.23028  0.09333  0.47106  1.0000
  H   H163      1.0  0.23640  0.16266  0.36615  1.0000
  H   H164      1.0  0.18533  0.23790  0.63599  1.0000
  C   C100      1.0  0.25325  0.13624  0.40151  1.0000
  H   H165      1.0  0.42998  0.28480  0.60079  1.0000
  H   H166      1.0  0.26980  0.17458  0.38056  1.0000
  H   H167      1.0  0.37578  0.30350  0.60338  1.0000
  C   C101      1.0  0.21788  0.10717  0.37405  1.0000
  H   H168      1.0  0.25614  0.06268  0.39275  1.0000
  H   H169      1.0  0.28925  0.06709  0.35586  1.0000
  C   C102      1.0  0.23736  0.30752  0.65438  1.0000
  H   H170      1.0  0.47650  0.26177  0.60932  1.0000
  C   C103      1.0  0.17229  0.29556  0.63629  1.0000
  C   C104      1.0  0.99894  0.10805  0.36211  1.0000
  Fe  Fe16      1.0  0.21816  0.10277  0.64045  1.0000
  C   C105      1.0  0.03327  0.02491  0.32940  1.0000
  H   H171      1.0  0.36042  0.20173  0.60294  1.0000
  H   H172      1.0  0.15078  0.28547  0.63278  1.0000
  H   H173      1.0  0.04163  0.01866  0.35081  1.0000
  C   C106      1.0  0.45706  0.25462  0.62132  1.0000
  H   H174      1.0  0.45691  0.26726  0.64147  1.0000
  C   C107      1.0  0.34550  0.47349  0.64106  1.0000
  Fe  Fe17      1.0  0.34590  0.34017  0.64888  1.0000
  H   H175      1.0  0.47067  0.35375  0.64842  1.0000
  H   H176      1.0  0.08972  0.06696  0.35375  1.0000
  N   N9        1.0  0.18948  0.27862  0.65806  1.0000
  H   H177      1.0  0.37083  0.26730  0.64491  1.0000
  H   H178      1.0  0.24391  0.29218  0.63758  1.0000
  H   H179      1.0  0.16778  0.31756  0.64446  1.0000
  H   H180      1.0  0.33334  0.45371  0.64056  1.0000
  S   S32       1.0  0.39470  0.43972  0.64083  1.0000
  C   C108      1.0  0.12719  0.04701  0.33485  1.0000
  C   C109      1.0  0.09415  0.04936  0.33804  1.0000
  H   H181      1.0  0.04215  0.06931  0.33707  1.0000
  C   C110      1.0  0.18125  0.99357  0.63404  1.0000
  H   H182      1.0  0.13715  0.06710  0.32711  1.0000
  H   H183      1.0  0.00956  0.02725  0.33190  1.0000
  Fe  Fe18      1.0  0.37835  0.39680  0.65800  1.0000
  C   C111      1.0  0.37884  0.45797  0.71858  1.0000
  H   H184      1.0  0.24874  0.27760  0.98624  1.0000
  Fe  Fe19      1.0  0.15714  0.26077  0.81790  1.0000
  S   S33       1.0  0.13530  0.29293  0.78945  1.0000
  S   S34       1.0  0.16800  0.21582  0.80286  1.0000
  Fe  Fe20      1.0  0.17367  0.30547  0.86334  1.0000
  S   S35       1.0  0.15436  0.34093  0.83672  1.0000
  S   S36       1.0  0.19878  0.31752  0.90393  1.0000
  Fe  Fe21      1.0  0.11671  0.31090  0.83047  1.0000
  S   S37       1.0  0.07407  0.33410  0.83905  1.0000
  Fe  Fe22      1.0  0.17449  0.31984  0.79824  1.0000
  S   S38       1.0  0.19565  0.33809  0.75813  1.0000
  S   S39       1.0  0.13547  0.27617  0.85882  1.0000
  S   S40       1.0  0.19689  0.28707  0.82512  1.0000
  Fe  Fe23      1.0  0.40506  0.34016  0.67830  1.0000
  H   H185      1.0  0.17997  0.25583  0.69773  1.0000
  Fe  Fe24      1.0  0.35134  0.36472  0.70842  1.0000
  H   H186      1.0  0.32801  0.44392  0.79765  1.0000
  S   S41       1.0  0.32894  0.36819  0.75147  1.0000
  H   H187      1.0  0.06261  0.40822  0.93474  1.0000
  H   H188      1.0  0.14794  0.02398  0.67858  1.0000
  C   C112      1.0  0.15419  0.06748  0.69418  1.0000
  S   S42       1.0  0.36180  0.32155  0.69021  1.0000
  S   S43       1.0  0.39598  0.38190  0.70064  1.0000
  H   H189      1.0  0.13002  0.11148  0.66797  1.0000
  H   H190      1.0  0.08941  0.14084  0.68069  1.0000
  C   C113      1.0  0.05532  0.39567  0.91587  1.0000
  H   H191      1.0  0.39212  0.22943  0.67459  1.0000
  H   H192      1.0  0.10708  0.29018  0.92790  1.0000
  C   C114      1.0  0.99958  0.29335  0.81512  1.0000
  C   C115      1.0  0.23290  0.34557  0.75691  1.0000
  C   C116      1.0  0.24934  0.34828  0.78194  1.0000
  C   C117      1.0  0.27879  0.35529  0.78005  1.0000
  C   C118      1.0  0.29212  0.35881  0.75316  1.0000
  C   C119      1.0  0.27586  0.35512  0.72815  1.0000
  C   C120      1.0  0.24627  0.34907  0.73005  1.0000
  H   H193      1.0  0.23922  0.34570  0.80274  1.0000
  H   H194      1.0  0.29125  0.35805  0.79950  1.0000
  H   H195      1.0  0.28590  0.35764  0.70732  1.0000
  H   H196      1.0  0.23365  0.34728  0.71063  1.0000
  C   C121      1.0  0.16915  0.28996  0.94798  1.0000
  C   C122      1.0  0.19041  0.30978  0.94037  1.0000
  C   C123      1.0  0.20542  0.32422  0.96230  1.0000
  H   H197      1.0  0.15786  0.27831  0.93135  1.0000
  H   H198      1.0  0.22189  0.33965  0.95663  1.0000
  H   H199      1.0  0.03158  0.39317  0.91753  1.0000
  C   C124      1.0  0.03742  0.32551  0.83177  1.0000
  C   C125      1.0  0.02899  0.29909  0.82026  1.0000
  C   C126      1.0  0.11877  0.10532  0.68824  1.0000
  H   H200      1.0  0.04513  0.28315  0.81521  1.0000
  H   H201      1.0  0.40018  0.46768  0.71383  1.0000
  H   H202      1.0  0.25057  0.20591  0.94795  1.0000
  C   C127      1.0  0.28727  0.43410  0.72313  1.0000
  C   C128      1.0  0.15908  0.19590  0.70664  1.0000
  C   C129      1.0  0.13917  0.21392  0.72035  1.0000
  C   C130      1.0  0.14225  0.22086  0.74960  1.0000
  C   C131      1.0  0.16466  0.20892  0.76568  1.0000
  C   C132      1.0  0.18443  0.19066  0.75205  1.0000
  C   C133      1.0  0.18206  0.18474  0.72249  1.0000
  H   H203      1.0  0.12121  0.22255  0.70833  1.0000
  H   H204      1.0  0.12668  0.23468  0.75995  1.0000
  H   H205      1.0  0.20175  0.18124  0.76439  1.0000
  H   H206      1.0  0.19772  0.17115  0.71215  1.0000
  H   H207      1.0  0.12188  0.03398  0.70461  1.0000
  C   C134      1.0  0.19069  0.10483  0.72929  1.0000
  H   H208      1.0  0.15521  0.36461  0.95049  1.0000
  H   H209      1.0  0.10735  0.40667  0.89973  1.0000
  H   H210      1.0  0.29993  0.47152  0.76805  1.0000
  S   S44       1.0  0.15416  0.18765  0.66987  1.0000
  H   H211      1.0  0.02228  0.36647  0.84709  1.0000
  S   S45       1.0  0.33298  0.38281  0.66769  1.0000
  H   H212      1.0  0.21133  0.22495  0.68214  1.0000
  H   H213      1.0  0.37420  0.44317  0.70052  1.0000
  H   H214      1.0  0.34153  0.42905  0.76586  1.0000
  C   C135      1.0  0.16869  0.26808  0.68072  1.0000
  H   H215      1.0  0.31556  0.22472  0.67288  1.0000
  C   C136      1.0  0.24182  0.22073  0.96450  1.0000
  H   H216      1.0  0.12321  0.05019  0.76883  1.0000
  C   C137      1.0  0.21978  0.00449  0.67857  1.0000
  H   H217      1.0  0.31873  0.44720  0.69155  1.0000
  H   H218      1.0  0.26984  0.44885  0.71644  1.0000
  H   H219      1.0  0.11987  0.04762  0.66801  1.0000
  H   H220      1.0  0.09228  0.31580  0.95265  1.0000
  N   N10       1.0  0.10153  0.36460  0.91907  1.0000
  C   C138      1.0  0.06931  0.36568  0.91457  1.0000
  C   C139      1.0  0.11126  0.33432  0.91305  1.0000
  C   C140      1.0  0.11519  0.38431  0.89722  1.0000
  C   C141      1.0  0.10818  0.37427  0.94940  1.0000
  C   C142      1.0  0.09496  0.31062  0.92955  1.0000
  H   H221      1.0  0.13949  0.37335  0.98429  1.0000
  H   H222      1.0  0.09025  0.36878  0.96436  1.0000
  H   H223      1.0  0.06335  0.35611  0.89348  1.0000
  H   H224      1.0  0.05793  0.35255  0.93102  1.0000
  H   H225      1.0  0.13452  0.33142  0.91741  1.0000
  H   H226      1.0  0.10899  0.32930  0.88977  1.0000
  C   C143      1.0  0.01605  0.34595  0.83822  1.0000
  C   C144      1.0  0.31748  0.44548  0.71540  1.0000
  H   H227      1.0  0.33260  0.42793  0.72086  1.0000
  S   S46       1.0  0.22660  0.06166  0.66588  1.0000
  C   C145      1.0  0.14822  0.38686  0.89809  1.0000
  H   H228      1.0  0.32507  0.27682  0.66781  1.0000
  C   C146      1.0  0.16250  0.28520  0.97717  1.0000
  H   H229      1.0  0.24091  0.24239  0.95471  1.0000
  H   H230      1.0  0.10281  0.07164  0.72957  1.0000
  H   H231      1.0  0.18846  0.08968  0.74735  1.0000
  H   H232      1.0  0.15542  0.39915  0.91718  1.0000
  H   H233      1.0  0.28364  0.41371  0.71137  1.0000
  H   H234      1.0  0.08704  0.12692  0.71635  1.0000
  N   N11       1.0  0.27353  0.24934  0.76042  1.0000
  C   C147      1.0  0.24282  0.24732  0.77090  1.0000
  C   C148      1.0  0.29194  0.23062  0.77944  1.0000
  C   C149      1.0  0.27631  0.23929  0.72978  1.0000
  C   C150      1.0  0.28286  0.28028  0.76177  1.0000
  C   C151      1.0  0.21973  0.26058  0.75119  1.0000
  C   C152      1.0  0.29732  0.24212  0.81007  1.0000
  C   C153      1.0  0.26628  0.20827  0.72398  1.0000
  C   C154      1.0  0.31436  0.28652  0.75292  1.0000
  H   H235      1.0  0.23634  0.22466  0.77486  1.0000
  H   H236      1.0  0.24055  0.25800  0.79212  1.0000
  H   H237      1.0  0.31326  0.22619  0.76948  1.0000
  H   H238      1.0  0.28199  0.20902  0.78202  1.0000
  H   H239      1.0  0.26456  0.25387  0.71496  1.0000
  H   H240      1.0  0.29913  0.24046  0.72256  1.0000
  H   H241      1.0  0.26948  0.29364  0.74724  1.0000
  H   H242      1.0  0.27875  0.28985  0.78333  1.0000
  H   H243      1.0  0.19863  0.26015  0.76244  1.0000
  H   H244      1.0  0.22406  0.28329  0.74602  1.0000
  H   H245      1.0  0.21711  0.24803  0.73120  1.0000
  H   H246      1.0  0.31109  0.26158  0.80984  1.0000
  H   H247      1.0  0.27695  0.24675  0.82161  1.0000
  H   H248      1.0  0.30900  0.22559  0.82270  1.0000
  H   H249      1.0  0.26842  0.20361  0.70063  1.0000
  H   H250      1.0  0.24342  0.20481  0.72973  1.0000
  H   H251      1.0  0.27989  0.19241  0.73541  1.0000
  H   H252      1.0  0.31535  0.29373  0.73016  1.0000
  H   H253      1.0  0.32907  0.26810  0.75548  1.0000
  H   H254      1.0  0.32322  0.30387  0.76670  1.0000
  H   H255      1.0  0.15538  0.05016  0.74903  1.0000
  H   H256      1.0  0.14895  0.07843  0.77483  1.0000
  C   C155      1.0  0.13892  0.06465  0.75812  1.0000
  C   C156      1.0  0.21202  0.02697  0.65993  1.0000
  H   H257      1.0  0.36164  0.45719  0.78344  1.0000
  H   H258      1.0  0.16521  0.30537  0.71001  1.0000
  H   H259      1.0  0.10989  0.39808  0.95037  1.0000
  H   H260      1.0  0.39991  0.26384  0.68903  1.0000
  H   H261      1.0  0.25662  0.30988  0.66836  1.0000
  S   S47       1.0  0.44412  0.31162  0.68699  1.0000
  H   H262      1.0  0.16724  0.12793  0.69752  1.0000
  C   C157      1.0  0.33977  0.44954  0.77760  1.0000
  H   H263      1.0  0.13788  0.30446  0.68207  1.0000
  H   H264      1.0  0.20430  0.09511  0.71231  1.0000
  H   H265      1.0  0.38105  0.44564  0.73871  1.0000
  C   C158      1.0  0.32292  0.47295  0.76133  1.0000
  H   H266      1.0  0.05939  0.40787  0.89577  1.0000
  H   H267      1.0  0.07352  0.30667  0.91974  1.0000
  H   H268      1.0  0.10900  0.37765  0.87500  1.0000
  H   H269      1.0  0.22014  0.28708  0.69240  1.0000
  H   H270      1.0  0.11507  0.10217  0.74751  1.0000
  H   H271      1.0  0.17210  0.05824  0.70690  1.0000
  H   H272      1.0  0.16478  0.07510  0.67406  1.0000
  S   S48       1.0  0.22637  0.14382  0.66453  1.0000
  H   H273      1.0  0.15255  0.13047  0.73271  1.0000
  H   H274      1.0  0.13297  0.33904  0.96910  1.0000
  H   H275      1.0  0.14580  0.27002  0.98281  1.0000
  H   H276      1.0  0.23470  0.00864  0.69594  1.0000
  N   N12       1.0  0.13973  0.09222  0.70933  1.0000
  H   H277      1.0  0.28543  0.42905  0.74637  1.0000
  H   H278      1.0  0.20277  0.12369  0.73749  1.0000
  C   C159      1.0  0.16163  0.11499  0.71691  1.0000
  C   C160      1.0  0.12302  0.08305  0.73558  1.0000
  H   H279      1.0  0.13622  0.28062  0.71198  1.0000
  N   N13       1.0  0.32588  0.47362  0.72906  1.0000
  H   H280      1.0  0.15553  0.39912  0.87894  1.0000
  H   H281      1.0  0.10195  0.08963  0.68181  1.0000
  C   C161      1.0  0.13558  0.36201  0.96365  1.0000
  C   C162      1.0  0.35611  0.48199  0.72028  1.0000
  H   H282      1.0  0.15924  0.36588  0.89716  1.0000
  C   C163      1.0  0.47975  0.31637  0.67394  1.0000
  H   H283      1.0  0.11690  0.14961  0.70571  1.0000
  C   C164      1.0  0.13442  0.04212  0.68608  1.0000
  H   H284      1.0  0.21966  0.21333  0.96945  1.0000
  C   C165      1.0  0.21155  0.29738  0.67262  1.0000
  C   C166      1.0  0.15124  0.29132  0.69676  1.0000
  H   H285      1.0  0.15283  0.25285  0.67115  1.0000
  H   H286      1.0  0.42760  0.24470  0.67089  1.0000
  H   H287      1.0  0.28380  0.22309  0.98349  1.0000
  C   C167      1.0  0.22264  0.23443  0.66350  1.0000
  C   C168      1.0  0.10233  0.13213  0.69879  1.0000
  H   H288      1.0  0.20131  0.31732  0.68089  1.0000
  H   H289      1.0  0.24158  0.24698  0.67055  1.0000
  C   C169      1.0  0.40430  0.24944  0.67051  1.0000
  C   C170      1.0  0.19881  0.31943  0.99152  1.0000
  H   H290      1.0  0.35606  0.49179  0.69845  1.0000
  C   C171      1.0  0.26138  0.21981  0.99132  1.0000
  Fe  Fe25      1.0  0.35947  0.81102  0.09130  1.0000
  S   S49       1.0  0.32050  0.83067  0.11265  1.0000
  S   S50       1.0  0.37103  0.82911  0.04704  1.0000
  Fe  Fe26      1.0  0.37359  0.77540  0.14487  1.0000
  S   S51       1.0  0.33623  0.79295  0.16954  1.0000
  S   S52       1.0  0.40126  0.74006  0.16392  1.0000
  Fe  Fe27      1.0  0.31144  0.78598  0.12888  1.0000
  S   S53       1.0  0.26636  0.76717  0.13230  1.0000
  Fe  Fe28      1.0  0.34893  0.83596  0.15129  1.0000
  S   S54       1.0  0.34949  0.87404  0.18210  1.0000
  S   S55       1.0  0.34805  0.76593  0.10464  1.0000
  S   S56       1.0  0.38854  0.81874  0.12942  1.0000
  Fe  Fe29      1.0  0.21164  0.60739  0.15464  1.0000
  S   S57       1.0  0.19636  0.62348  0.19714  1.0000
  S   S58       1.0  0.23902  0.63400  0.12409  1.0000
  Fe  Fe30      1.0  0.18482  0.54776  0.16405  1.0000
  S   S59       1.0  0.16795  0.55982  0.20793  1.0000
  C   C172      1.0  0.29448  0.84004  0.02538  1.0000
  Fe  Fe31      1.0  0.15440  0.60129  0.18735  1.0000
  S   S60       1.0  0.11374  0.62552  0.20033  1.0000
  Fe  Fe32      1.0  0.21119  0.58104  0.21406  1.0000
  S   S61       1.0  0.23429  0.58389  0.25683  1.0000
  S   S62       1.0  0.16859  0.58841  0.14309  1.0000
  S   S63       1.0  0.22925  0.56580  0.17188  1.0000
  S   S64       1.0  0.42660  0.63809  0.29722  1.0000
  S   S65       1.0  0.39544  0.71799  0.29878  1.0000
  S   S66       1.0  0.36857  0.57941  0.27745  1.0000
  C   C173      1.0  0.27219  0.58478  0.25701  1.0000
  C   C174      1.0  0.28642  0.60841  0.26908  1.0000
  C   C175      1.0  0.31628  0.60756  0.27394  1.0000
  C   C176      1.0  0.33195  0.58272  0.26773  1.0000
  C   C177      1.0  0.31793  0.55958  0.25449  1.0000
  C   C178      1.0  0.28815  0.56061  0.24909  1.0000
  H   H291      1.0  0.16170  0.72278  0.09097  1.0000
  H   H292      1.0  0.32995  0.54039  0.24929  1.0000
  H   H293      1.0  0.27730  0.54216  0.24002  1.0000
  C   C179      1.0  0.02354  0.62052  0.15948  1.0000
  C   C180      1.0  0.04695  0.60642  0.14646  1.0000
  C   C181      1.0  0.07465  0.60741  0.15882  1.0000
  C   C182      1.0  0.07925  0.62282  0.18420  1.0000
  C   C183      1.0  0.05597  0.63739  0.19687  1.0000
  C   C184      1.0  0.02821  0.63613  0.18470  1.0000
  H   H294      1.0  0.04356  0.59424  0.12697  1.0000
  H   H295      1.0  0.09238  0.59610  0.14885  1.0000
  H   H296      1.0  0.05933  0.64940  0.21648  1.0000
  H   H297      1.0  0.44377  0.87719  0.99575  1.0000
  C   C185      1.0  0.39978  0.73426  0.20150  1.0000
  C   C186      1.0  0.40998  0.70828  0.21295  1.0000
  C   C187      1.0  0.40795  0.70262  0.24260  1.0000
  C   C188      1.0  0.39658  0.72333  0.26118  1.0000
  C   C189      1.0  0.38688  0.74945  0.24981  1.0000
  C   C190      1.0  0.38818  0.75479  0.22007  1.0000
  H   H298      1.0  0.41907  0.69231  0.19873  1.0000
  H   H299      1.0  0.41546  0.68240  0.25106  1.0000
  H   H300      1.0  0.37820  0.76566  0.26403  1.0000
  H   H301      1.0  0.38061  0.77503  0.21163  1.0000
  C   C191      1.0  0.26128  0.72960  0.13227  1.0000
  C   C192      1.0  0.24094  0.71726  0.15093  1.0000
  C   C193      1.0  0.23475  0.68768  0.14964  1.0000
  C   C194      1.0  0.24793  0.67055  0.12875  1.0000
  C   C195      1.0  0.26846  0.68287  0.11035  1.0000
  C   C196      1.0  0.27550  0.71211  0.11243  1.0000
  H   H302      1.0  0.23010  0.73062  0.16657  1.0000
  H   H303      1.0  0.21950  0.67828  0.16443  1.0000
  H   H304      1.0  0.27897  0.66967  0.09434  1.0000
  H   H305      1.0  0.29154  0.72112  0.09826  1.0000
  C   C197      1.0  0.34340  0.68811  0.13732  1.0000
  H   H306      1.0  0.28905  0.85365  0.04420  1.0000
  H   H307      1.0  0.37436  0.76837  0.03185  1.0000
  C   C198      1.0  0.35224  0.96964  0.15724  1.0000
  C   C199      1.0  0.35425  0.94835  0.13592  1.0000
  C   C200      1.0  0.35338  0.91903  0.14315  1.0000
  C   C201      1.0  0.35067  0.91068  0.17189  1.0000
  C   C202      1.0  0.34904  0.93198  0.19328  1.0000
  C   C203      1.0  0.34975  0.96135  0.18602  1.0000
  H   H308      1.0  0.35626  0.95457  0.11360  1.0000
  H   H309      1.0  0.35474  0.90288  0.12651  1.0000
  H   H310      1.0  0.34696  0.92569  0.21557  1.0000
  H   H311      1.0  0.33625  0.72761  0.18613  1.0000
  N   N14       1.0  0.13816  0.69421  0.14153  1.0000
  C   C204      1.0  0.12562  0.69685  0.17143  1.0000
  C   C205      1.0  0.11384  0.69963  0.12073  1.0000
  C   C206      1.0  0.16064  0.71737  0.13838  1.0000
  C   C207      1.0  0.15130  0.66478  0.13817  1.0000
  C   C208      1.0  0.14706  0.69461  0.19668  1.0000
  C   C209      1.0  0.08843  0.67826  0.12246  1.0000
  C   C210      1.0  0.31262  0.64103  0.17265  1.0000
  H   H312      1.0  0.27421  0.62719  0.27522  1.0000
  H   H313      1.0  0.11394  0.71757  0.17399  1.0000
  H   H314      1.0  0.10925  0.67993  0.17534  1.0000
  H   H315      1.0  0.30144  0.64764  0.15259  1.0000
  H   H316      1.0  0.10481  0.72152  0.12410  1.0000
  H   H317      1.0  0.15101  0.73882  0.14278  1.0000
  H   H318      1.0  0.17803  0.71454  0.15449  1.0000
  H   H319      1.0  0.17253  0.66375  0.14916  1.0000
  H   H320      1.0  0.13770  0.64853  0.14925  1.0000
  H   H321      1.0  0.16036  0.71425  0.19890  1.0000
  H   H322      1.0  0.13473  0.69228  0.21705  1.0000
  H   H323      1.0  0.16104  0.67550  0.19501  1.0000
  H   H324      1.0  0.31126  0.79832  0.01675  1.0000
  H   H325      1.0  0.29934  0.61555  0.21029  1.0000
  H   H326      1.0  0.07508  0.68184  0.14195  1.0000
  N   N15       1.0  0.32796  0.66620  0.18610  1.0000
  H   H327      1.0  0.03145  0.68329  0.06337  1.0000
  H   H328      1.0  0.29014  0.76584  0.07369  1.0000
  H   H329      1.0  0.32286  0.65437  0.23097  1.0000
  H   H330      1.0  0.32795  0.71762  0.22278  1.0000
  H   H331      1.0  0.41182  0.98438  0.14343  1.0000
  H   H332      1.0  0.46745  0.97741  0.20149  1.0000
  C   C211      1.0  0.25443  0.78919  0.01240  1.0000
  C   C212      1.0  0.35223  0.67498  0.16645  1.0000
  C   C213      1.0  0.34029  0.65854  0.21506  1.0000
  H   H333      1.0  0.30187  0.73537  0.20102  1.0000
  H   H334      1.0  0.00564  0.67260  0.08991  1.0000
  H   H335      1.0  0.27241  0.64109  0.19846  1.0000
  H   H336      1.0  0.27903  0.60919  0.17854  1.0000
  N   N16       1.0  0.27130  0.79162  0.04008  1.0000
  C   C214      1.0  0.45499  0.97447  0.18148  1.0000
  H   H337      1.0  0.41180  0.96698  0.20063  1.0000
  H   H338      1.0  0.21986  0.75941  0.02703  1.0000
  H   H339      1.0  0.09558  0.65561  0.12204  1.0000
  H   H340      1.0  0.17724  0.64324  0.10555  1.0000
  C   C215      1.0  0.15569  0.65348  0.10713  1.0000
  Fe  Fe33      1.0  0.40164  0.67381  0.31790  1.0000
  H   H341      1.0  0.32701  0.62589  0.28310  1.0000
  C   C216      1.0  0.30671  0.69028  0.19013  1.0000
  H   H342      1.0  0.36621  0.65633  0.16125  1.0000
  H   H343      1.0  0.12119  0.69975  0.09813  1.0000
  H   H344      1.0  0.28992  0.68431  0.20609  1.0000
  C   C217      1.0  0.29851  0.80841  0.03431  1.0000
  H   H345      1.0  0.36663  0.69050  0.17726  1.0000
  C   C218      1.0  0.47177  0.70983  0.28447  1.0000
  C   C219      1.0  0.23487  0.76259  0.00889  1.0000
  H   H346      1.0  0.07404  0.68154  0.10371  1.0000
  C   C220      1.0  0.42896  0.95520  0.18907  1.0000
  C   C221      1.0  0.28963  0.62624  0.19142  1.0000
  C   C222      1.0  0.31934  0.71910  0.20059  1.0000
  C   C223      1.0  0.30188  0.74584  0.03380  1.0000
  H   H347      1.0  0.33144  0.70848  0.13991  1.0000
  H   H348      1.0  0.46954  0.96157  0.16746  1.0000
  H   H349      1.0  0.19129  0.73797  0.10996  1.0000
  H   H350      1.0  0.26788  0.81073  0.08234  1.0000
  H   H351      1.0  0.03034  0.64681  0.07482  1.0000
  H   H352      1.0  0.31279  0.80819  0.05353  1.0000
  H   H353      1.0  0.35269  0.67686  0.22409  1.0000
  H   H354      1.0  0.30151  0.72294  0.04037  1.0000
  H   H355      1.0  0.41960  0.94494  0.16967  1.0000
  H   H356      1.0  0.38061  0.63668  0.20245  1.0000
  H   H357      1.0  0.19027  0.70024  0.10566  1.0000
  H   H358      1.0  0.29570  0.57463  0.31887  1.0000
  H   H359      1.0  0.00806  0.64831  0.02788  1.0000
  H   H360      1.0  0.22812  0.77158  0.07965  1.0000
  H   H361      1.0  0.43617  0.93747  0.20331  1.0000
  Fe  Fe34      1.0  0.38779  0.61141  0.30869  1.0000
  C   C224      1.0  0.28014  0.76293  0.05214  1.0000
  H   H362      1.0  0.44217  0.76116  0.29675  1.0000
  H   H363      1.0  0.35055  0.61253  0.20880  1.0000
  S   S67       1.0  0.17204  0.50712  0.13967  1.0000
  H   H364      1.0  0.15487  0.66965  0.08988  1.0000
  C   C225      1.0  0.37310  0.78082  0.01227  1.0000
  H   H365      1.0  0.31521  0.84840  0.01685  1.0000
  H   H366      1.0  0.32823  0.62422  0.16588  1.0000
  H   H367      1.0  0.46357  0.72830  0.27178  1.0000
  C   C226      1.0  0.37156  0.81069  0.01377  1.0000
  C   C227      1.0  0.17643  0.71928  0.10933  1.0000
  C   C228      1.0  0.36108  0.63277  0.21556  1.0000
  H   H368      1.0  0.34825  0.97750  0.20264  1.0000
  H   H369      1.0  0.21780  0.80622  0.09147  1.0000
  H   H370      1.0  0.01042  0.64712  0.19491  1.0000
  H   H371      1.0  0.36322  0.69344  0.12503  1.0000
  H   H372      1.0  0.29480  0.69445  0.16991  1.0000
  H   H373      1.0  0.33075  0.67291  0.12408  1.0000
  H   H374      1.0  0.13996  0.63617  0.10233  1.0000
  H   H375      1.0  0.26137  0.74875  0.05603  1.0000
  H   H376      1.0  0.36863  0.62956  0.23798  1.0000
  C   C229      1.0  0.01668  0.66573  0.06993  1.0000
  H   H377      1.0  0.99430  0.60255  0.04770  1.0000
  C   C230      1.0  0.25444  0.80763  0.06273  1.0000
  H   H378      1.0  0.20913  0.79610  0.05562  1.0000
  H   H379      1.0  0.32407  0.75377  0.03764  1.0000
  H   H380      1.0  0.45246  0.69697  0.29037  1.0000
  C   C231      1.0  0.22583  0.79411  0.07251  1.0000
  H   H381      1.0  0.24864  0.82951  0.05525  1.0000
  H   H382      1.0  0.21679  0.55864  0.31425  1.0000
  C   C232      1.0  0.45439  0.76410  0.31698  1.0000
  H   H383      1.0  0.25095  0.59572  0.32082  1.0000
  H   H384      1.0  0.43404  0.84044  0.99925  1.0000
  H   H385      1.0  0.44565  0.97960  0.12648  1.0000
  H   H386      1.0  0.47492  0.68416  0.24564  1.0000
  H   H387      1.0  0.29724  0.74702  0.01046  1.0000
  H   H388      1.0  0.25077  0.54140  0.31778  1.0000
  C   C233      1.0  0.48944  0.69156  0.26313  1.0000
  H   H389      1.0  0.24067  0.80849  0.00926  1.0000
  H   H390      1.0  0.47191  0.77991  0.31367  1.0000
  N   N17       1.0  0.48731  0.71963  0.31124  1.0000
  H   H391      1.0  0.27813  0.84266  0.00825  1.0000
  H   H392      1.0  0.24765  0.74274  0.00587  1.0000
  H   H393      1.0  0.48221  0.67518  0.32448  1.0000
  C   C234      1.0  0.99552  0.65930  0.04510  1.0000
  H   H394      1.0  0.99430  0.61616  0.08323  1.0000
  H   H395      1.0  0.26908  0.78895  0.99338  1.0000
  S   S68       1.0  0.25557  0.81788  0.63563  1.0000
  H   H396      1.0  0.27595  0.94503  0.62989  1.0000
  C   C235      1.0  0.23590  0.76189  0.63875  1.0000
  Fe  Fe35      1.0  0.38233  0.63663  0.36938  1.0000
  S   S69       1.0  0.40527  0.59807  0.35176  1.0000
  S   S70       1.0  0.35137  0.63321  0.40738  1.0000
  H   H397      1.0  0.27877  0.89746  0.56236  1.0000
  C   C236      1.0  0.01219  0.87121  0.59007  1.0000
  H   H398      1.0  0.30937  0.94358  0.59805  1.0000
  S   S71       1.0  0.41969  0.66652  0.36229  1.0000
  H   H399      1.0  0.42795  0.58729  0.58003  1.0000
  Fe  Fe36      1.0  0.31123  0.66074  0.61642  1.0000
  S   S72       1.0  0.35236  0.68153  0.60228  1.0000
  S   S73       1.0  0.26786  0.68272  0.62093  1.0000
  Fe  Fe37      1.0  0.34088  0.60356  0.63085  1.0000
  S   S74       1.0  0.38460  0.62107  0.61948  1.0000
  H   H400      1.0  0.33178  0.58057  0.37343  1.0000
  Fe  Fe38      1.0  0.37091  0.66158  0.64212  1.0000
  Fe  Fe39      1.0  0.36254  0.63970  0.58042  1.0000
  S   S75       1.0  0.38899  0.63473  0.53932  1.0000
  S   S76       1.0  0.31939  0.62040  0.59083  1.0000
  C   C237      1.0  0.36214  0.63414  0.44398  1.0000
  C   C238      1.0  0.39116  0.63375  0.45192  1.0000
  C   C239      1.0  0.39889  0.63414  0.48120  1.0000
  C   C240      1.0  0.37778  0.63523  0.50286  1.0000
  C   C241      1.0  0.34872  0.63546  0.49497  1.0000
  C   C242      1.0  0.34097  0.63479  0.46564  1.0000
  H   H401      1.0  0.40766  0.63314  0.43549  1.0000
  H   H402      1.0  0.42141  0.63382  0.48710  1.0000
  H   H403      1.0  0.33226  0.63622  0.51141  1.0000
  H   H404      1.0  0.31846  0.63513  0.45972  1.0000
  H   H405      1.0  0.26030  0.97319  0.58583  1.0000
  C   C243      1.0  0.29169  0.89368  0.64077  1.0000
  C   C244      1.0  0.37669  0.52511  0.64153  1.0000
  C   C245      1.0  0.04109  0.87841  0.60482  1.0000
  C   C246      1.0  0.26514  0.72028  0.62565  1.0000
  C   C247      1.0  0.28822  0.73862  0.61961  1.0000
  C   C248      1.0  0.28494  0.76850  0.62258  1.0000
  C   C249      1.0  0.25880  0.78024  0.63216  1.0000
  H   H406      1.0  0.41810  0.53056  0.52313  1.0000
  H   H407      1.0  0.37788  0.58009  0.57220  1.0000
  H   H408      1.0  0.30837  0.72983  0.61203  1.0000
  H   H409      1.0  0.30273  0.78253  0.61732  1.0000
  N   N18       1.0  0.27347  0.58115  0.35909  1.0000
  Fe  Fe40      1.0  0.21700  0.83706  0.65857  1.0000
  S   S77       1.0  0.17760  0.85583  0.63792  1.0000
  H   H410      1.0  0.31016  0.53212  0.57602  1.0000
  H   H411      1.0  0.03794  0.88759  0.62659  1.0000
  C   C250      1.0  0.39955  0.52035  0.53438  1.0000
  H   H412      1.0  0.24688  0.57169  0.39610  1.0000
  C   C251      1.0  0.39125  0.56063  0.56858  1.0000
  H   H413      1.0  0.43811  0.55348  0.56517  1.0000
  N   N19       1.0  0.25760  0.91324  0.60060  1.0000
  H   H414      1.0  0.05564  0.85960  0.60603  1.0000
  H   H415      1.0  0.35867  0.51365  0.57607  1.0000
  C   C252      1.0  0.27641  0.91782  0.57459  1.0000
  C   C253      1.0  0.24571  0.96731  0.60374  1.0000
  C   C254      1.0  0.32867  0.57416  0.35081  1.0000
  C   C255      1.0  0.29733  0.56764  0.34164  1.0000
  H   H416      1.0  0.29897  0.87273  0.64959  1.0000
  H   H417      1.0  0.24010  0.93571  0.63731  1.0000
  C   C256      1.0  0.28555  0.63338  0.34498  1.0000
  C   C257      1.0  0.34661  0.52601  0.64205  1.0000
  H   H418      1.0  0.21230  0.90537  0.60870  1.0000
  H   H419      1.0  0.38886  0.54488  0.64249  1.0000
  C   C258      1.0  0.41100  0.49906  0.55720  1.0000
  H   H420      1.0  0.26518  0.63985  0.33435  1.0000
  H   H421      1.0  0.24999  0.87840  0.63031  1.0000
  H   H422      1.0  0.29510  0.65307  0.35451  1.0000
  H   H423      1.0  0.31766  0.55790  0.54854  1.0000
  H   H424      1.0  0.31501  0.94046  0.56089  1.0000
  H   H425      1.0  0.33327  0.53818  0.50211  1.0000
  C   C259      1.0  0.26815  0.88804  0.61809  1.0000
  H   H426      1.0  0.29938  0.61205  0.38302  1.0000
  H   H427      1.0  0.22320  0.96588  0.59597  1.0000
  H   H428      1.0  0.23000  0.85878  0.58695  1.0000
  C   C260      1.0  0.24676  0.58290  0.34059  1.0000
  H   H429      1.0  0.00108  0.89195  0.58671  1.0000
  H   H430      1.0  0.41166  0.50805  0.57919  1.0000
  H   H431      1.0  0.30086  0.62531  0.32876  1.0000
  C   C261      1.0  0.42232  0.57120  0.56334  1.0000
  H   H432      1.0  0.22908  0.59425  0.35214  1.0000
  H   H433      1.0  0.32216  0.90990  0.58357  1.0000
  H   H434      1.0  0.00787  0.77692  0.61929  1.0000
  C   C262      1.0  0.23448  0.55411  0.32968  1.0000
  H   H435      1.0  0.16633  0.98945  0.61667  1.0000
  H   H436      1.0  0.33416  0.56081  0.58368  1.0000
  H   H437      1.0  0.34409  0.51083  0.54115  1.0000
  H   H438      1.0  0.42479  0.58193  0.54223  1.0000
  C   C263      1.0  0.35255  0.52666  0.55692  1.0000
  H   H439      1.0  0.30842  0.54689  0.39933  1.0000
  H   H440      1.0  0.05252  0.89492  0.59189  1.0000
  H   H441      1.0  0.28116  0.54701  0.42612  1.0000
  C   C264      1.0  0.26626  0.56298  0.38494  1.0000
  H   H442      1.0  0.26609  0.93249  0.55875  1.0000
  H   H443      1.0  0.33818  0.59065  0.33652  1.0000
  C   C265      1.0  0.23902  0.73206  0.63528  1.0000
  H   H444      1.0  0.38963  0.57227  0.51126  1.0000
  C   C266      1.0  0.39107  0.49851  0.64071  1.0000
  H   H445      1.0  0.47426  0.74095  0.35101  1.0000
  H   H446      1.0  0.02847  0.82373  0.62230  1.0000
  C   C267      1.0  0.28025  0.61124  0.36898  1.0000
  H   H447      1.0  0.26067  0.54075  0.37836  1.0000
  H   H448      1.0  0.34858  0.56504  0.47949  1.0000
  S   S78       1.0  0.32744  0.55864  0.64571  1.0000
  H   H449      1.0  0.36735  0.53205  0.48382  1.0000
  S   S79       1.0  0.17473  0.93631  0.64634  1.0000
  H   H450      1.0  0.21918  0.92328  0.57575  1.0000
  H   H451      1.0  0.29754  0.58015  0.41683  1.0000
  H   H452      1.0  0.35673  0.58008  0.52841  1.0000
  C   C268      1.0  0.30742  0.92831  0.58001  1.0000
  H   H453      1.0  0.26246  0.61971  0.38265  1.0000
  H   H454      1.0  0.29479  0.54390  0.34101  1.0000
  H   H455      1.0  0.48260  0.69654  0.37141  1.0000
  H   H456      1.0  0.27622  0.87059  0.60384  1.0000
  C   C269      1.0  0.37019  0.56190  0.52063  1.0000
  S   S80       1.0  0.48678  0.61751  0.35812  1.0000
  H   H457      1.0  0.22105  0.71802  0.63988  1.0000
  C   C270      1.0  0.18913  0.97104  0.65259  1.0000
  C   C271      1.0  0.46568  0.73556  0.32948  1.0000
  C   C272      1.0  0.35392  0.54798  0.49534  1.0000
  C   C273      1.0  0.22756  0.90626  0.59023  1.0000
  H   H458      1.0  0.39100  0.54948  0.58964  1.0000
  C   C274      1.0  0.29002  0.55947  0.40778  1.0000
  H   H459      1.0  0.24631  0.98537  0.61933  1.0000
  H   H460      1.0  0.34206  0.55473  0.34730  1.0000
  N   N20       1.0  0.37838  0.54231  0.54512  1.0000
  C   C275      1.0  0.22405  0.87769  0.57373  1.0000
  C   C276      1.0  0.32735  0.54579  0.56661  1.0000
  C   C277      1.0  0.25534  0.93967  0.61920  1.0000
  H   H461      1.0  0.23631  0.87750  0.55330  1.0000
  H   H462      1.0  0.01716  0.86335  0.56797  1.0000
  H   H463      1.0  0.31083  0.90460  0.63192  1.0000
  H   H464      1.0  0.22484  0.54121  0.34723  1.0000
  H   H465      1.0  0.20097  0.87493  0.56805  1.0000
  Fe  Fe41      1.0  0.44181  0.62844  0.34213  1.0000
  H   H466      1.0  0.00629  0.85876  0.64966  1.0000
  C   C278      1.0  0.01004  0.82194  0.60709  1.0000
  H   H467      1.0  0.44674  0.72159  0.33403  1.0000
  S   S81       1.0  0.32926  0.64246  0.65718  1.0000
  H   H468      1.0  0.01965  0.81658  0.58579  1.0000
  H   H469      1.0  0.21560  0.77067  0.64595  1.0000
  H   H470      1.0  0.43900  0.77367  0.33256  1.0000
  H   H471      1.0  0.38955  0.50679  0.51745  1.0000
  H   H472      1.0  0.41437  0.49800  0.64056  1.0000
  H   H473      1.0  0.30784  0.50063  0.64152  1.0000
  C   C279      1.0  0.33113  0.50010  0.64148  1.0000
  S   S82       1.0  0.36223  0.64776  0.32680  1.0000
  H   H474      1.0  0.43355  0.49306  0.55197  1.0000
  H   H475      1.0  0.28301  0.90604  0.65926  1.0000
  H   H476      1.0  0.43762  0.77619  0.92127  1.0000
  S   S83       1.0  0.15599  0.87365  0.70309  1.0000
  H   H477      1.0  0.11463  0.82087  0.72807  1.0000
  C   C280      1.0  0.20849  0.97664  0.67490  1.0000
  S   S84       1.0  0.19164  0.81358  0.69178  1.0000
  C   C281      1.0  0.31316  0.76241  0.76983  1.0000
  C   C282      1.0  0.33161  0.76442  0.68852  1.0000
  Fe  Fe42      1.0  0.19737  0.85310  0.71846  1.0000
  S   S85       1.0  0.20883  0.84280  0.76472  1.0000
  S   S86       1.0  0.22515  0.87591  0.68615  1.0000
  Fe  Fe43      1.0  0.43143  0.80468  0.84280  1.0000
  S   S87       1.0  0.42436  0.76133  0.86225  1.0000
  H   H478      1.0  0.13268  0.79688  0.82123  1.0000
  Fe  Fe44      1.0  0.36790  0.81019  0.82466  1.0000
  S   S88       1.0  0.35599  0.76737  0.84341  1.0000
  S   S89       1.0  0.34256  0.83921  0.79476  1.0000
  Fe  Fe45      1.0  0.38384  0.78012  0.88115  1.0000
  S   S90       1.0  0.37376  0.76432  0.92650  1.0000
  Fe  Fe46      1.0  0.39714  0.75206  0.82341  1.0000
  S   S91       1.0  0.39868  0.70870  0.80188  1.0000
  S   S92       1.0  0.39249  0.82448  0.86400  1.0000
  S   S93       1.0  0.40751  0.79381  0.80228  1.0000
  C   C283      1.0  0.13981  0.77501  0.77939  1.0000
  H   H479      1.0  0.42046  0.82961  0.92818  1.0000
  H   H480      1.0  0.10784  0.85807  0.75846  1.0000
  S   S94       1.0  0.39827  0.69353  0.66680  1.0000
  C   C284      1.0  0.39496  0.70574  0.76430  1.0000
  C   C285      1.0  0.40084  0.72895  0.74620  1.0000
  C   C286      1.0  0.40151  0.72497  0.71626  1.0000
  C   C287      1.0  0.39491  0.69815  0.70420  1.0000
  C   C288      1.0  0.38748  0.67535  0.72223  1.0000
  C   C289      1.0  0.38801  0.67903  0.75223  1.0000
  H   H481      1.0  0.40600  0.74962  0.75529  1.0000
  H   H482      1.0  0.40734  0.74264  0.70235  1.0000
  H   H483      1.0  0.38251  0.65459  0.71309  1.0000
  H   H484      1.0  0.38344  0.66100  0.76615  1.0000
  H   H485      1.0  0.28861  0.81008  0.71575  1.0000
  C   C290      1.0  0.37103  0.81284  0.96114  1.0000
  C   C291      1.0  0.37273  0.78294  0.95966  1.0000
  H   H486      1.0  0.46225  0.87837  0.91513  1.0000
  H   H487      1.0  0.43895  0.75566  0.95344  1.0000
  H   H488      1.0  0.36973  0.82528  0.94156  1.0000
  H   H489      1.0  0.01116  0.78133  0.67913  1.0000
  C   C292      1.0  0.24600  0.84136  0.77313  1.0000
  C   C293      1.0  0.26625  0.85544  0.75595  1.0000
  C   C294      1.0  0.29564  0.85441  0.76297  1.0000
  C   C295      1.0  0.30525  0.83902  0.78703  1.0000
  C   C296      1.0  0.28510  0.82460  0.80416  1.0000
  C   C297      1.0  0.25553  0.82595  0.79732  1.0000
  H   H490      1.0  0.25927  0.86762  0.73751  1.0000
  H   H491      1.0  0.31104  0.86577  0.74972  1.0000
  H   H492      1.0  0.29226  0.81283  0.82288  1.0000
  H   H493      1.0  0.24001  0.81505  0.81079  1.0000
  H   H494      1.0  0.45229  0.74788  0.78726  1.0000
  C   C298      1.0  0.06904  0.84062  0.69036  1.0000
  C   C299      1.0  0.04047  0.84491  0.69962  1.0000
  C   C300      1.0  0.01933  0.82372  0.69539  1.0000
  H   H495      1.0  0.09862  0.74800  0.74617  1.0000
  N   N21       1.0  0.46406  0.82623  0.94409  1.0000
  H   H496      1.0  0.08506  0.85714  0.69366  1.0000
  C   C301      1.0  0.12492  0.84361  0.76676  1.0000
  C   C302      1.0  0.46760  0.84915  0.96672  1.0000
  H   H497      1.0  0.31992  0.74055  0.77639  1.0000
  H   H498      1.0  0.06861  0.82471  0.75155  1.0000
  H   H499      1.0  0.28340  0.49321  0.72654  1.0000
  H   H500      1.0  0.48223  0.68980  0.73899  1.0000
  H   H501      1.0  0.21475  0.95956  0.68934  1.0000
  H   H502      1.0  0.14837  0.74159  0.73021  1.0000
  C   C303      1.0  0.45051  0.77237  0.94087  1.0000
  H   H503      1.0  0.42358  0.87733  0.91934  1.0000
  C   C304      1.0  0.15013  0.79216  0.80573  1.0000
  C   C305      1.0  0.12692  0.81616  0.74804  1.0000
  C   C306      1.0  0.45324  0.79967  0.95935  1.0000
  H   H504      1.0  0.14535  0.85587  0.76480  1.0000
  H   H505      1.0  0.45740  0.71166  0.75709  1.0000
  H   H506      1.0  0.09352  0.77717  0.72219  1.0000
  C   C307      1.0  0.44263  0.86586  0.91059  1.0000
  H   H507      1.0  0.32126  0.77710  0.78676  1.0000
  H   H508      1.0  0.43144  0.80331  0.96853  1.0000
  C   C308      1.0  0.32656  0.77111  0.74078  1.0000
  H   H509      1.0  0.14972  0.81402  0.74095  1.0000
  H   H510      1.0  0.14780  0.77529  0.71070  1.0000
  H   H511      1.0  0.46301  0.80963  0.77856  1.0000
  C   C309      1.0  0.10927  0.76759  0.73741  1.0000
  H   H512      1.0  0.08272  0.77092  0.78811  1.0000
  C   C310      1.0  0.44281  0.83424  0.92087  1.0000
  C   C311      1.0  0.07677  0.81494  0.67692  1.0000
  H   H513      1.0  0.28936  0.76400  0.76964  1.0000
  H   H514      1.0  0.26037  0.79400  0.73706  1.0000
  S   S95       1.0  0.47300  0.83078  0.84167  1.0000
  H   H515      1.0  0.42146  0.86116  0.96885  1.0000
  C   C312      1.0  0.13461  0.75724  0.71866  1.0000
  H   H516      1.0  0.48367  0.70699  0.80214  1.0000
  C   C313      1.0  0.47516  0.71244  0.74130  1.0000
  H   H517      1.0  0.43993  0.86630  0.88685  1.0000
  H   H518      1.0  0.45461  0.76763  0.74229  1.0000
  H   H519      1.0  0.32496  0.79475  0.73945  1.0000
  H   H520      1.0  0.49078  0.80237  0.91422  1.0000
  H   H521      1.0  0.44603  0.82052  0.90153  1.0000
  H   H522      1.0  0.03467  0.86485  0.71001  1.0000
  C   C314      1.0  0.08951  0.79198  0.77898  1.0000
  H   H523      1.0  0.33365  0.53431  0.71266  1.0000
  N   N22       1.0  0.31422  0.75628  0.71469  1.0000
  C   C315      1.0  0.31791  0.72441  0.71928  1.0000
  H   H524      1.0  0.46728  0.79426  0.97802  1.0000
  H   H525      1.0  0.12596  0.74606  0.69940  1.0000
  C   C316      1.0  0.28261  0.76235  0.71013  1.0000
  C   C317      1.0  0.31012  0.70497  0.69362  1.0000
  H   H526      1.0  0.47359  0.77222  0.80677  1.0000
  C   C318      1.0  0.27200  0.79319  0.71622  1.0000
  H   H527      1.0  0.34047  0.71930  0.72545  1.0000
  H   H528      1.0  0.30433  0.71677  0.73744  1.0000
  H   H529      1.0  0.35013  0.76693  0.74237  1.0000
  C   C319      1.0  0.30546  0.49621  0.71771  1.0000
  C   C320      1.0  0.02708  0.79802  0.68202  1.0000
  H   H530      1.0  0.04593  0.80936  0.77845  1.0000
  H   H531      1.0  0.27625  0.75688  0.68772  1.0000
  H   H532      1.0  0.26934  0.74815  0.72414  1.0000
  H   H533      1.0  0.30942  0.68241  0.70121  1.0000
  H   H534      1.0  0.28868  0.70987  0.68442  1.0000
  H   H535      1.0  0.36481  0.49884  0.73485  1.0000
  C   C321      1.0  0.48545  0.72821  0.81277  1.0000
  C   C322      1.0  0.06333  0.80447  0.76281  1.0000
  H   H536      1.0  0.29634  0.54191  0.71536  1.0000
  H   H537      1.0  0.47633  0.86934  0.95780  1.0000
  N   N23       1.0  0.11652  0.78844  0.76126  1.0000
  H   H538      1.0  0.47182  0.76331  0.93512  1.0000
  H   H539      1.0  0.48390  0.84237  0.98294  1.0000
  H   H540      1.0  0.35439  0.75739  0.69111  1.0000
  H   H541      1.0  0.05417  0.78895  0.74721  1.0000
  H   H542      1.0  0.09288  0.80565  0.79807  1.0000
  C   C323      1.0  0.31360  0.52777  0.72391  1.0000
  C   C324      1.0  0.33202  0.79638  0.68028  1.0000
  H   H543      1.0  0.12164  0.84020  0.78997  1.0000
  H   H544      1.0  0.37483  0.74388  0.98437  1.0000
  Fe  Fe47      1.0  0.15237  0.83552  0.67387  1.0000
  H   H545      1.0  0.15968  0.77148  0.76646  1.0000
  Fe  Fe48      1.0  0.18363  0.89323  0.66817  1.0000
  C   C325      1.0  0.37354  0.76704  0.98533  1.0000
  H   H546      1.0  0.16143  0.81210  0.79921  1.0000
  H   H547      1.0  0.16635  0.77915  0.81748  1.0000
  H   H548      1.0  0.13283  0.75347  0.78713  1.0000
  H   H549      1.0  0.45522  0.81864  0.74208  1.0000
  C   C326      1.0  0.37054  0.82661  0.98810  1.0000
  H   H550      1.0  0.25587  0.79924  0.69969  1.0000
  H   H551      1.0  0.06151  0.77369  0.66257  1.0000
  H   H552      1.0  0.34016  0.81034  0.69774  1.0000
  H   H553      1.0  0.31549  0.53229  0.74720  1.0000
  H   H554      1.0  0.31055  0.80363  0.67282  1.0000
  C   C327      1.0  0.43996  0.85720  0.98333  1.0000
  C   C328      1.0  0.47502  0.75271  0.79306  1.0000
  H   H555      1.0  0.46651  0.72010  0.72039  1.0000
  S   S96       1.0  0.11254  0.80795  0.66566  1.0000
  H   H556      1.0  0.32679  0.70596  0.67651  1.0000
  H   H557      1.0  0.47132  0.72725  0.83202  1.0000
  H   H558      1.0  0.22163  0.76524  0.98918  1.0000
  H   H559      1.0  0.32351  0.75320  0.66907  1.0000
  H   H560      1.0  0.36910  0.84975  0.98911  1.0000
  C   C329      1.0  0.05565  0.79371  0.67277  1.0000
  C   C330      1.0  0.47136  0.80830  0.75633  1.0000
  H   H561      1.0  0.33014  0.49364  0.77078  1.0000
  H   H562      1.0  0.30316  0.49438  0.69396  1.0000
  H   H563      1.0  0.49137  0.82121  0.75488  1.0000
  C   C331      1.0  0.47626  0.77710  0.74637  1.0000
  H   H564      1.0  0.48660  0.77798  0.72479  1.0000
  H   H565      1.0  0.34683  0.79925  0.66173  1.0000
  N   N24       1.0  0.49317  0.75842  0.76671  1.0000
  C   C332      1.0  0.49301  0.81906  0.93120  1.0000
  C   C333      1.0  0.72293  0.16434  0.23110  1.0000
  S   S97       1.0  0.86867  0.04263  0.29644  1.0000
  C   C334      1.0  0.77665  0.00489  0.30338  1.0000
  Fe  Fe49      1.0  0.83320  0.07484  0.28945  1.0000
  S   S98       1.0  0.81017  0.07847  0.24658  1.0000
  H   H566      1.0  0.63750  0.33917  0.22353  1.0000
  H   H567      1.0  0.72513  0.33951  0.27165  1.0000
  C   C335      1.0  0.72028  0.19923  0.28705  1.0000
  Fe  Fe50      1.0  0.66022  0.12844  0.12716  1.0000
  S   S99       1.0  0.63566  0.09403  0.15080  1.0000
  S   S100      1.0  0.68924  0.12072  0.08786  1.0000
  Fe  Fe51      1.0  0.64680  0.17337  0.17432  1.0000
  S   S101      1.0  0.62004  0.14266  0.20032  1.0000
  S   S102      1.0  0.66396  0.21731  0.18724  1.0000
  Fe  Fe52      1.0  0.65594  0.11133  0.19130  1.0000
  S   S103      1.0  0.67456  0.08682  0.22928  1.0000
  Fe  Fe53      1.0  0.60157  0.12796  0.15778  1.0000
  S   S104      1.0  0.55562  0.11748  0.14280  1.0000
  S   S105      1.0  0.68312  0.14267  0.16735  1.0000
  S   S106      1.0  0.62561  0.16169  0.13221  1.0000
  C   C336      1.0  0.64157  0.37670  0.28577  1.0000
  H   H568      1.0  0.70220  0.23446  0.31178  1.0000
  H   H569      1.0  0.68010  0.42731  0.22680  1.0000
  H   H570      1.0  0.69499  0.39239  0.29819  1.0000
  C   C337      1.0  0.65930  0.22973  0.22297  1.0000
  C   C338      1.0  0.67958  0.24870  0.23490  1.0000
  C   C339      1.0  0.67564  0.26006  0.26273  1.0000
  C   C340      1.0  0.65074  0.25345  0.27840  1.0000
  C   C341      1.0  0.63057  0.23443  0.26646  1.0000
  C   C342      1.0  0.63503  0.22224  0.23912  1.0000
  H   H571      1.0  0.69844  0.25459  0.22258  1.0000
  H   H572      1.0  0.69144  0.27455  0.27168  1.0000
  H   H573      1.0  0.61120  0.22926  0.27834  1.0000
  H   H574      1.0  0.61916  0.20781  0.23013  1.0000
  C   C343      1.0  0.52044  0.11960  0.19127  1.0000
  C   C344      1.0  0.52284  0.11308  0.16205  1.0000
  C   C345      1.0  0.66994  0.16181  0.27634  1.0000
  H   H575      1.0  0.53917  0.12695  0.20299  1.0000
  H   H576      1.0  0.65177  0.38417  0.23028  1.0000
  H   H577      1.0  0.78133  0.02266  0.28841  1.0000
  H   H578      1.0  0.94037  0.18537  0.30603  1.0000
  C   C346      1.0  0.70526  0.12673  0.03119  1.0000
  C   C347      1.0  0.68246  0.12860  0.05108  1.0000
  C   C348      1.0  0.65513  0.13625  0.04116  1.0000
  C   C349      1.0  0.65060  0.14143  0.01162  1.0000
  H   H579      1.0  0.74970  0.17357  0.14447  1.0000
  H   H580      1.0  0.72652  0.12089  0.03866  1.0000
  H   H581      1.0  0.63735  0.13764  0.05614  1.0000
  C   C350      1.0  0.77241  0.08062  0.24234  1.0000
  C   C351      1.0  0.75346  0.07434  0.26485  1.0000
  C   C352      1.0  0.72351  0.07570  0.26042  1.0000
  C   C353      1.0  0.71227  0.08418  0.23369  1.0000
  C   C354      1.0  0.73123  0.09060  0.21124  1.0000
  C   C355      1.0  0.76115  0.08856  0.21550  1.0000
  H   H582      1.0  0.76188  0.06873  0.28572  1.0000
  H   H583      1.0  0.70896  0.07069  0.27788  1.0000
  H   H584      1.0  0.72286  0.09675  0.19046  1.0000
  H   H585      1.0  0.77565  0.09330  0.19790  1.0000
  H   H586      1.0  0.51402  0.03818  0.17599  1.0000
  H   H587      1.0  0.71871  0.19478  0.02158  1.0000
  C   C356      1.0  0.73961  0.15882  0.25912  1.0000
  H   H588      1.0  0.90882  0.17970  0.28525  1.0000
  H   H589      1.0  0.81922  0.01765  0.26160  1.0000
  H   H590      1.0  0.69223  0.14928  0.31458  1.0000
  H   H591      1.0  0.70383  0.15014  0.22953  1.0000
  S   S107      1.0  0.64264  0.27050  0.31153  1.0000
  C   C357      1.0  0.69369  0.37013  0.28984  1.0000
  H   H592      1.0  0.67346  0.17560  0.25741  1.0000
  H   H593      1.0  0.73696  0.15860  0.21262  1.0000
  H   H594      1.0  0.74095  0.21066  0.28273  1.0000
  H   H595      1.0  0.72863  0.37573  0.25774  1.0000
  H   H596      1.0  0.68490  0.19448  0.03896  1.0000
  H   H597      1.0  0.63961  0.30420  0.23881  1.0000
  C   C358      1.0  0.63184  0.35820  0.31157  1.0000
  C   C359      1.0  0.96994  0.10259  0.31891  1.0000
  H   H598      1.0  0.71673  0.18708  0.22814  1.0000
  H   H599      1.0  0.98954  0.11910  0.28027  1.0000
  H   H600      1.0  0.72910  0.00406  0.29888  1.0000
  H   H601      1.0  0.70436  0.22804  0.03331  1.0000
  H   H602      1.0  0.68867  0.37506  0.22902  1.0000
  H   H603      1.0  0.58639  0.45481  0.30541  1.0000
  C   C360      1.0  0.99208  0.11600  0.30318  1.0000
  C   C361      1.0  0.75626  0.12929  0.31320  1.0000
  H   H604      1.0  0.74437  0.13551  0.25881  1.0000
  C   C362      1.0  0.63867  0.32740  0.24417  1.0000
  H   H605      1.0  0.61847  0.33064  0.25641  1.0000
  H   H606      1.0  0.74018  0.36719  0.29326  1.0000
  H   H607      1.0  0.62922  0.14682  0.00412  1.0000
  H   H608      1.0  0.68443  0.32872  0.24858  1.0000
  H   H609      1.0  0.70083  0.41930  0.25793  1.0000
  C   C363      1.0  0.72334  0.36263  0.27688  1.0000
  H   H610      1.0  0.65599  0.17326  0.29198  1.0000
  N   N25       1.0  0.70983  0.21387  0.09438  1.0000
  C   C364      1.0  0.73011  0.20772  0.11911  1.0000
  C   C365      1.0  0.70905  0.24600  0.09076  1.0000
  C   C366      1.0  0.72220  0.20008  0.06773  1.0000
  C   C367      1.0  0.68076  0.20142  0.10167  1.0000
  C   C368      1.0  0.73938  0.17620  0.12308  1.0000
  C   C369      1.0  0.69738  0.26286  0.11687  1.0000
  C   C370      1.0  0.70624  0.20512  0.03915  1.0000
  C   C371      1.0  0.65447  0.21207  0.08413  1.0000
  H   H611      1.0  0.75036  0.22040  0.11698  1.0000
  H   H612      1.0  0.72037  0.21436  0.13999  1.0000
  H   H613      1.0  0.69613  0.25277  0.07202  1.0000
  H   H614      1.0  0.73104  0.25432  0.08596  1.0000
  H   H615      1.0  0.74491  0.20714  0.06451  1.0000
  H   H616      1.0  0.72289  0.17633  0.07011  1.0000
  H   H617      1.0  0.68128  0.17776  0.09968  1.0000
  H   H618      1.0  0.67550  0.20522  0.12473  1.0000
  H   H619      1.0  0.72092  0.16129  0.12225  1.0000
  H   H620      1.0  0.75552  0.16973  0.10670  1.0000
  S   S108      1.0  0.93885  0.09036  0.30038  1.0000
  H   H621      1.0  0.69538  0.28585  0.11099  1.0000
  H   H622      1.0  0.67572  0.25538  0.12358  1.0000
  H   H623      1.0  0.71225  0.26175  0.13549  1.0000
  C   C372      1.0  0.70805  0.21166  0.31523  1.0000
  H   H624      1.0  0.76083  0.16984  0.25720  1.0000
  H   H625      1.0  0.67860  0.07059  0.01693  1.0000
  H   H626      1.0  0.64317  0.19336  0.07453  1.0000
  H   H627      1.0  0.65918  0.22693  0.06632  1.0000
  H   H628      1.0  0.63870  0.22263  0.09866  1.0000
  N   N26       1.0  0.66819  0.36664  0.27015  1.0000
  H   H629      1.0  0.92194  0.15081  0.30615  1.0000
  C   C373      1.0  0.67932  0.41635  0.24800  1.0000
  C   C374      1.0  0.67185  0.38439  0.24329  1.0000
  S   S109      1.0  0.85920  0.11201  0.30587  1.0000
  H   H630      1.0  0.73317  0.00169  0.24795  1.0000
  H   H631      1.0  0.62295  0.37842  0.27081  1.0000
  C   C375      1.0  0.66075  0.05688  0.00903  1.0000
  H   H632      1.0  0.70046  0.12775  0.28416  1.0000
  H   H633      1.0  0.66625  0.32154  0.28119  1.0000
  H   H634      1.0  0.66290  0.42763  0.26108  1.0000
  H   H635      1.0  0.69131  0.35653  0.30926  1.0000
  C   C376      1.0  0.69749  0.15037  0.29123  1.0000
  H   H636      1.0  0.70579  0.20628  0.26964  1.0000
  H   H637      1.0  0.64480  0.39872  0.29444  1.0000
  H   H638      1.0  0.73840  0.11356  0.31249  1.0000
  C   C377      1.0  0.66566  0.33550  0.26179  1.0000
  H   H639      1.0  0.81316  0.21444  0.31693  1.0000
  C   C378      1.0  0.82332  0.99479  0.25683  1.0000
  C   C379      1.0  0.74545  0.16049  0.31112  1.0000
  H   H640      1.0  0.64149  0.06321  0.02174  1.0000
  N   N27       1.0  0.72493  0.16721  0.28681  1.0000
  H   H641      1.0  0.49987  0.09844  0.12455  1.0000
  H   H642      1.0  0.77241  0.12451  0.29626  1.0000
  H   H643      1.0  0.68840  0.20029  0.32250  1.0000
  C   C380      1.0  0.75552  0.99399  0.24437  1.0000
  H   H644      1.0  0.62593  0.33602  0.30537  1.0000
  Fe  Fe54      1.0  0.89347  0.07943  0.31631  1.0000
  H   H645      1.0  0.77021  0.01260  0.24479  1.0000
  H   H646      1.0  0.49968  0.18828  0.12551  1.0000
  H   H647      1.0  0.65698  0.14328  0.26865  1.0000
  H   H648      1.0  0.66526  0.03405  0.01384  1.0000
  C   C381      1.0  0.49820  0.10352  0.14719  1.0000
  C   C382      1.0  0.91920  0.17438  0.30609  1.0000
  C   C383      1.0  0.70079  0.13224  0.00168  1.0000
  H   H649      1.0  0.50146  0.00997  0.19853  1.0000
  H   H650      1.0  0.54872  0.46005  0.31487  1.0000
  H   H651      1.0  0.61233  0.36797  0.32130  1.0000
  H   H652      1.0  0.74305  0.03240  0.32068  1.0000
  H   H653      1.0  0.79153  0.00870  0.32172  1.0000
  H   H654      1.0  0.76485  0.17436  0.30964  1.0000
  C   C384      1.0  0.57115  0.46025  0.32298  1.0000
  C   C385      1.0  0.74584  0.00944  0.31493  1.0000
  H   H655      1.0  0.84697  0.99272  0.25386  1.0000
  C   C386      1.0  0.49425  0.02800  0.18485  1.0000
  H   H656      1.0  0.87779  0.17675  0.32645  1.0000
  H   H657      1.0  0.64236  0.37411  0.43804  1.0000
  Fe  Fe55      1.0  0.84066  0.10081  0.34890  1.0000
  S   S110      1.0  0.82174  0.13157  0.38133  1.0000
  S   S111      1.0  0.87662  0.07073  0.36095  1.0000
  Fe  Fe56      1.0  0.67444  0.30023  0.62287  1.0000
  H   H658      1.0  0.67813  0.22613  0.61096  1.0000
  S   S112      1.0  0.70277  0.30274  0.58259  1.0000
  H   H659      1.0  0.71642  0.39179  0.52529  1.0000
  C   C387      1.0  0.70846  0.43593  0.42475  1.0000
  Fe  Fe57      1.0  0.69076  0.29143  0.40780  1.0000
  S   S113      1.0  0.73451  0.31025  0.39850  1.0000
  S   S114      1.0  0.66753  0.28545  0.45086  1.0000
  Fe  Fe58      1.0  0.67640  0.28571  0.34341  1.0000
  C   C388      1.0  0.87818  0.22144  0.37795  1.0000
  Fe  Fe59      1.0  0.73755  0.27648  0.36388  1.0000
  S   S115      1.0  0.77710  0.25474  0.34567  1.0000
  Fe  Fe60      1.0  0.71168  0.33707  0.36519  1.0000
  C   C389      1.0  0.67753  0.41637  0.35086  1.0000
  S   S116      1.0  0.69563  0.25542  0.37562  1.0000
  S   S117      1.0  0.66776  0.32029  0.37625  1.0000
  H   H660      1.0  0.63124  0.21975  0.59003  1.0000
  H   H661      1.0  0.68404  0.20797  0.50624  1.0000
  H   H662      1.0  0.95687  0.08803  0.36080  1.0000
  S   S118      1.0  0.65361  0.33796  0.64474  1.0000
  H   H663      1.0  0.64507  0.20613  0.55708  1.0000
  C   C390      1.0  0.88596  0.18942  0.38106  1.0000
  C   C391      1.0  0.69244  0.29817  0.54610  1.0000
  C   C392      1.0  0.66367  0.29485  0.53792  1.0000
  C   C393      1.0  0.65654  0.29087  0.50871  1.0000
  C   C394      1.0  0.67800  0.29015  0.48734  1.0000
  C   C395      1.0  0.70680  0.29319  0.49556  1.0000
  C   C396      1.0  0.71394  0.29732  0.52475  1.0000
  H   H664      1.0  0.64689  0.29541  0.55406  1.0000
  H   H665      1.0  0.63419  0.28842  0.50261  1.0000
  H   H666      1.0  0.72357  0.29203  0.47947  1.0000
  H   H667      1.0  0.73628  0.29964  0.53088  1.0000
  H   H668      1.0  0.92487  0.13540  0.35006  1.0000
  C   C397      1.0  0.80708  0.16452  0.36997  1.0000
  C   C398      1.0  0.81527  0.17683  0.34384  1.0000
  H   H669      1.0  0.86423  0.22782  0.39629  1.0000
  C   C399      1.0  0.78733  0.21965  0.35507  1.0000
  C   C400      1.0  0.77806  0.20684  0.38061  1.0000
  C   C401      1.0  0.78837  0.17953  0.38827  1.0000
  H   H670      1.0  0.75619  0.36738  0.48217  1.0000
  C   C402      1.0  0.70931  0.18192  0.59828  1.0000
  H   H671      1.0  0.76375  0.21835  0.39488  1.0000
  H   H672      1.0  0.78200  0.17009  0.40856  1.0000
  C   C403      1.0  0.72987  0.22731  0.57885  1.0000
  C   C404      1.0  0.57917  0.48904  0.33724  1.0000
  C   C405      1.0  0.93719  0.19224  0.36834  1.0000
  H   H673      1.0  0.67685  0.24431  0.57790  1.0000
  C   C406      1.0  0.91616  0.13517  0.39527  1.0000
  C   C407      1.0  0.90939  0.14593  0.36465  1.0000
  H   H674      1.0  0.68189  0.37859  0.51649  1.0000
  H   H675      1.0  0.97535  0.16579  0.37760  1.0000
  H   H676      1.0  0.57300  0.44285  0.33921  1.0000
  S   S119      1.0  0.63649  0.27100  0.62922  1.0000
  C   C408      1.0  0.70762  0.41526  0.35114  1.0000
  H   H677      1.0  0.73549  0.16521  0.33236  1.0000
  Fe  Fe61      1.0  0.84925  0.03632  0.34036  1.0000
  H   H678      1.0  0.86559  0.17712  0.37855  1.0000
  C   C409      1.0  0.70214  0.19544  0.54779  1.0000
  N   N28       1.0  0.90889  0.17807  0.36095  1.0000
  H   H679      1.0  0.71398  0.44726  0.44494  1.0000
  H   H680      1.0  0.88816  0.13662  0.35852  1.0000
  H   H681      1.0  0.89236  0.18638  0.40391  1.0000
  C   C410      1.0  0.96504  0.17656  0.35895  1.0000
  H   H682      1.0  0.64343  0.34335  0.46068  1.0000
  H   H683      1.0  0.64942  0.37789  0.47620  1.0000
  H   H684      1.0  0.71382  0.36012  0.50442  1.0000
  C   C411      1.0  0.70916  0.46615  0.33809  1.0000
  H   H685      1.0  0.64814  0.18544  0.59002  1.0000
  H   H686      1.0  0.71648  0.22729  0.51576  1.0000
  H   H687      1.0  0.64011  0.44288  0.34384  1.0000
  N   N29       1.0  0.70483  0.20678  0.57800  1.0000
  H   H688      1.0  0.68581  0.17801  0.54623  1.0000
  H   H689      1.0  0.89747  0.13828  0.40984  1.0000
  H   H690      1.0  0.74788  0.40029  0.44235  1.0000
  H   H691      1.0  0.72153  0.48523  0.33323  1.0000
  C   C412      1.0  0.73780  0.23889  0.60884  1.0000
  H   H692      1.0  0.93554  0.14549  0.40450  1.0000
  H   H693      1.0  0.71949  0.25029  0.61884  1.0000
  H   H694      1.0  0.72543  0.24637  0.56515  1.0000
  C   C413      1.0  0.67793  0.22240  0.58730  1.0000
  H   H695      1.0  0.52098  0.35908  0.63099  1.0000
  C   C414      1.0  0.73762  0.16499  0.59450  1.0000
  H   H696      1.0  0.72246  0.18477  0.54104  1.0000
  H   H697      1.0  0.73419  0.37267  0.41987  1.0000
  H   H698      1.0  0.75548  0.25481  0.60658  1.0000
  S   S120      1.0  0.83505  0.99560  0.36381  1.0000
  C   C415      1.0  0.69610  0.21804  0.52422  1.0000
  H   H699      1.0  0.89744  0.23547  0.37826  1.0000
  H   H700      1.0  0.93903  0.19498  0.39207  1.0000
  C   C416      1.0  0.67911  0.46723  0.33760  1.0000
  H   H701      1.0  0.93803  0.21433  0.35925  1.0000
  H   H702      1.0  0.74007  0.33783  0.46208  1.0000
  H   H703      1.0  0.73872  0.15402  0.57340  1.0000
  H   H704      1.0  0.75695  0.17857  0.59760  1.0000
  S   S121      1.0  0.72669  0.38333  0.35929  1.0000
  H   H705      1.0  0.74660  0.43967  0.34506  1.0000
  H   H706      1.0  0.69157  0.16604  0.59609  1.0000
  C   C417      1.0  0.64920  0.20720  0.58053  1.0000
  H   H707      1.0  0.76750  0.12632  0.33408  1.0000
  H   H708      1.0  0.66521  0.39744  0.35616  1.0000
  C   C418      1.0  0.65350  0.36464  0.45688  1.0000
  C   C419      1.0  0.97349  0.09871  0.34850  1.0000
  H   H709      1.0  0.72824  0.43173  0.41200  1.0000
  C   C420      1.0  0.51558  0.34163  0.64536  1.0000
  H   H710      1.0  0.70824  0.18909  0.62113  1.0000
  H   H711      1.0  0.74953  0.21756  0.56929  1.0000
  H   H712      1.0  0.92029  0.11172  0.39452  1.0000
  Fe  Fe62      1.0  0.61638  0.30793  0.65338  1.0000
  H   H713      1.0  0.68790  0.35018  0.42938  1.0000
  H   H714      1.0  0.82917  0.16518  0.32938  1.0000
  S   S122      1.0  0.57307  0.32851  0.64228  1.0000
  H   H715      1.0  0.69514  0.45071  0.41154  1.0000
  H   H716      1.0  0.98105  0.19259  0.35136  1.0000
  C   C421      1.0  0.75107  0.35880  0.46054  1.0000
  H   H717      1.0  0.77206  0.35461  0.44984  1.0000
  C   C422      1.0  0.73423  0.38069  0.44242  1.0000
  H   H718      1.0  0.69363  0.34413  0.46598  1.0000
  C   C423      1.0  0.72331  0.44028  0.34483  1.0000
  C   C424      1.0  0.66337  0.44220  0.34400  1.0000
  H   H719      1.0  0.68856  0.39728  0.40903  1.0000
  C   C425      1.0  0.69132  0.40808  0.43022  1.0000
  C   C426      1.0  0.68593  0.36059  0.45083  1.0000
  H   H720      1.0  0.72226  0.41658  0.48332  1.0000
  C   C427      1.0  0.53723  0.32243  0.65413  1.0000
  C   C428      1.0  0.70373  0.40155  0.48120  1.0000
  N   N30       1.0  0.70392  0.38750  0.45193  1.0000
  H   H721      1.0  0.68233  0.23585  0.53167  1.0000
  H   H722      1.0  0.66937  0.41507  0.43678  1.0000
  C   C429      1.0  0.70398  0.38141  0.50774  1.0000
  H   H723      1.0  0.68404  0.41498  0.48362  1.0000
  H   H724      1.0  0.74551  0.22183  0.62351  1.0000
  H   H725      1.0  0.74212  0.99705  0.33496  1.0000
  H   H726      1.0  0.72441  0.21165  0.33261  1.0000
  S   S123      1.0  0.81210  0.06622  0.33171  1.0000
  H   H727      1.0  0.96252  0.16093  0.34136  1.0000
  H   H728      1.0  0.73852  0.14796  0.61119  1.0000
  H   H729      1.0  0.86532  0.22543  0.35823  1.0000
  H   H730      1.0  0.56772  0.48935  0.35826  1.0000
  H   H731      1.0  0.60247  0.48787  0.34271  1.0000
  H   H732      1.0  0.64835  0.35738  0.32865  1.0000
  S   S124      1.0  0.71832  0.30481  0.32997  1.0000
  C   C430      1.0  0.89980  0.18521  0.33064  1.0000
  C   C431      1.0  0.80604  0.20463  0.33678  1.0000
  H   H733      1.0  0.89856  0.20880  0.32743  1.0000
  Fe  Fe63      1.0  0.69177  0.14168  0.91271  1.0000
  S   S125      1.0  0.73465  0.12065  0.90506  1.0000
  S   S126      1.0  0.66559  0.14430  0.95451  1.0000
  Fe  Fe64      1.0  0.68461  0.15672  0.84848  1.0000
  S   S127      1.0  0.72635  0.13581  0.83631  1.0000
  S   S128      1.0  0.65539  0.18401  0.82026  1.0000
  Fe  Fe65      1.0  0.71369  0.09995  0.86649  1.0000
  S   S129      1.0  0.72761  0.05339  0.85844  1.0000
  Fe  Fe66      1.0  0.74395  0.15787  0.87547  1.0000
  S   S130      1.0  0.78766  0.17868  0.86892  1.0000
  S   S131      1.0  0.67009  0.11915  0.87550  1.0000
  S   S132      1.0  0.70292  0.18070  0.88623  1.0000
  Fe  Fe67      1.0  0.90161  0.33394  0.81865  1.0000
  S   S133      1.0  0.88494  0.35317  0.85979  1.0000
  S   S134      1.0  0.94152  0.30544  0.81436  1.0000
  Fe  Fe68      1.0  0.84746  0.35326  0.78514  1.0000
  S   S135      1.0  0.82761  0.37449  0.82359  1.0000
  S   S136      1.0  0.82639  0.35107  0.74121  1.0000
  Fe  Fe69      1.0  0.87214  0.39121  0.83251  1.0000
  S   S137      1.0  0.88620  0.43655  0.84449  1.0000
  Fe  Fe70      1.0  0.84193  0.33465  0.84696  1.0000
  S   S138      1.0  0.81005  0.31280  0.87675  1.0000
  S   S139      1.0  0.89135  0.37275  0.79200  1.0000
  S   S140      1.0  0.85924  0.31267  0.80791  1.0000
  C   C432      1.0  0.52554  0.39446  0.70303  1.0000
  S   S141      1.0  0.63371  0.29389  0.69642  1.0000
  S   S142      1.0  0.66772  0.21462  0.68717  1.0000
  Fe  Fe71      1.0  0.67234  0.32112  0.68597  1.0000
  S   S143      1.0  0.69072  0.34707  0.72297  1.0000
  H   H734      1.0  0.50164  0.39370  0.70198  1.0000
  H   H735      1.0  0.59999  0.33351  0.73485  1.0000
  H   H736      1.0  0.95444  0.25409  0.85964  1.0000
  H   H737      1.0  0.53165  0.41524  0.71266  1.0000
  H   H738      1.0  0.75932  0.44564  0.72012  1.0000
  H   H739      1.0  0.86033  0.40367  0.74876  1.0000
  H   H740      1.0  0.70174  0.01227  0.91719  1.0000
  H   H741      1.0  0.89643  0.26824  0.83756  1.0000
  C   C433      1.0  0.78862  0.34832  0.73722  1.0000
  C   C434      1.0  0.77723  0.34183  0.71005  1.0000
  C   C435      1.0  0.74728  0.34071  0.70565  1.0000
  C   C436      1.0  0.72842  0.34672  0.72829  1.0000
  C   C437      1.0  0.73978  0.35325  0.75552  1.0000
  C   C438      1.0  0.76977  0.35372  0.76008  1.0000
  H   H742      1.0  0.79165  0.33772  0.69224  1.0000
  H   H743      1.0  0.73881  0.33581  0.68456  1.0000
  H   H744      1.0  0.72532  0.35791  0.77316  1.0000
  H   H745      1.0  0.77828  0.35880  0.78110  1.0000
  C   C439      1.0  0.97826  0.31395  0.82123  1.0000
  H   H746      1.0  0.67896  0.25054  0.81762  1.0000
  C   C440      1.0  0.67579  0.01768  0.95787  1.0000
  H   H747      1.0  0.97057  0.35633  0.83774  1.0000
  H   H748      1.0  0.49588  0.27950  0.69682  1.0000
  C   C441      1.0  0.91803  0.23296  0.81741  1.0000
  C   C442      1.0  0.86556  0.46846  0.84590  1.0000
  H   H749      1.0  0.82417  0.44790  0.84437  1.0000
  C   C443      1.0  0.66003  0.19239  0.78338  1.0000
  C   C444      1.0  0.67885  0.17706  0.76561  1.0000
  C   C445      1.0  0.68107  0.18404  0.73616  1.0000
  C   C446      1.0  0.66502  0.20676  0.72440  1.0000
  C   C447      1.0  0.64661  0.22236  0.74233  1.0000
  C   C448      1.0  0.64393  0.21499  0.77157  1.0000
  H   H750      1.0  0.69118  0.15946  0.77441  1.0000
  H   H751      1.0  0.69521  0.17172  0.72242  1.0000
  H   H752      1.0  0.63388  0.23965  0.73355  1.0000
  H   H753      1.0  0.62919  0.22684  0.78512  1.0000
  C   C449      1.0  0.79199  0.21625  0.86982  1.0000
  C   C450      1.0  0.77397  0.23387  0.88621  1.0000
  C   C451      1.0  0.77952  0.26352  0.88800  1.0000
  C   C452      1.0  0.80266  0.27581  0.87293  1.0000
  C   C453      1.0  0.81992  0.25830  0.85570  1.0000
  C   C454      1.0  0.81490  0.22859  0.85454  1.0000
  H   H754      1.0  0.75633  0.22454  0.89819  1.0000
  H   H755      1.0  0.76599  0.27694  0.90132  1.0000
  H   H756      1.0  0.83743  0.26758  0.84370  1.0000
  H   H757      1.0  0.82871  0.21505  0.84166  1.0000
  C   C455      1.0  0.70846  0.02044  0.85650  1.0000
  C   C456      1.0  0.67846  0.01927  0.85448  1.0000
  C   C457      1.0  0.50132  0.29694  0.68247  1.0000
  H   H758      1.0  0.88047  0.46738  0.91990  1.0000
  H   H759      1.0  0.66620  0.03895  0.85380  1.0000
  C   C458      1.0  0.68679  0.00064  0.93145  1.0000
  H   H760      1.0  0.59644  0.37438  0.76371  1.0000
  H   H761      1.0  0.78673  0.45017  0.80543  1.0000
  H   H762      1.0  0.88912  0.42434  0.73402  1.0000
  H   H763      1.0  0.76235  0.22830  0.75533  1.0000
  H   H764      1.0  0.66928  0.08480  0.92609  1.0000
  H   H765      1.0  0.73949  0.23001  0.83479  1.0000
  Fe  Fe72      1.0  0.65704  0.25959  0.67182  1.0000
  H   H766      1.0  0.96273  0.28026  0.90944  1.0000
  H   H767      1.0  0.96958  0.24229  0.90547  1.0000
  H   H768      1.0  0.69273  0.24172  0.85218  1.0000
  H   H769      1.0  0.75056  0.06435  0.95192  1.0000
  H   H770      1.0  0.77751  0.18309  0.77709  1.0000
  H   H771      1.0  0.86119  0.41193  0.71080  1.0000
  H   H772      1.0  0.90776  0.23900  0.79670  1.0000
  H   H773      1.0  0.90507  0.16623  0.87662  1.0000
  C   C459      1.0  0.57730  0.33583  0.72753  1.0000
  C   C460      1.0  0.80431  0.42957  0.71899  1.0000
  H   H774      1.0  0.57659  0.32687  0.70534  1.0000
  C   C461      1.0  0.73111  0.05229  0.94503  1.0000
  H   H775      1.0  0.87790  0.23535  0.84017  1.0000
  H   H776      1.0  0.53335  0.39366  0.68045  1.0000
  N   N31       1.0  0.67626  0.04999  0.95576  1.0000
  H   H777      1.0  0.86820  0.47849  0.96686  1.0000
  H   H778      1.0  0.71349  0.21225  0.81335  1.0000
  C   C462      1.0  0.83546  0.46813  0.84579  1.0000
  C   C463      1.0  0.63753  0.05280  0.91603  1.0000
  H   H779      1.0  0.89928  0.29357  0.90558  1.0000
  C   C464      1.0  0.72319  0.23372  0.81765  1.0000
  C   C465      1.0  0.77055  0.20095  0.79127  1.0000
  C   C466      1.0  0.69863  0.25143  0.83116  1.0000
  H   H780      1.0  0.76008  0.19093  0.81020  1.0000
  H   H781      1.0  0.79033  0.21234  0.79811  1.0000
  H   H782      1.0  0.70461  0.27398  0.83521  1.0000
  H   H783      1.0  0.73461  0.00872  0.78612  1.0000
  H   H784      1.0  0.63543  0.05845  0.89292  1.0000
  C   C467      1.0  0.88129  0.28134  0.89579  1.0000
  H   H785      1.0  0.87572  0.29074  0.87467  1.0000
  C   C468      1.0  0.74992  0.22068  0.77430  1.0000
  H   H786      1.0  0.73248  0.20675  0.76560  1.0000
  H   H787      1.0  0.77659  0.25525  0.81339  1.0000
  C   C469      1.0  0.72409  0.99457  0.85686  1.0000
  C   C470      1.0  0.58578  0.38202  0.70455  1.0000
  C   C471      1.0  0.56894  0.41137  0.76062  1.0000
  H   H788      1.0  0.76505  0.41436  0.69893  1.0000
  H   H789      1.0  0.89327  0.24122  0.91547  1.0000
  H   H790      1.0  0.86222  0.28428  0.90994  1.0000
  H   H791      1.0  0.62735  0.35895  0.70524  1.0000
  N   N32       1.0  0.73723  0.24557  0.79078  1.0000
  C   C472      1.0  0.76144  0.26578  0.79829  1.0000
  H   H792      1.0  0.52301  0.36649  0.74002  1.0000
  H   H793      1.0  0.70372  0.27734  0.78248  1.0000
  H   H794      1.0  0.54607  0.41711  0.75727  1.0000
  H   H795      1.0  0.81512  0.40601  0.76813  1.0000
  H   H796      1.0  0.71856  0.13083  0.98670  1.0000
  H   H797      1.0  0.54630  0.28492  0.67949  1.0000
  S   S144      1.0  0.69640  0.28614  0.66374  1.0000
  C   C473      1.0  0.85772  0.47423  0.92254  1.0000
  H   H798      1.0  0.70487  0.08579  0.96294  1.0000
  H   H799      1.0  0.73403  0.30458  0.80381  1.0000
  C   C474      1.0  0.88820  0.24910  0.89349  1.0000
  H   H800      1.0  0.86756  0.23825  0.88805  1.0000
  H   H801      1.0  0.93767  0.25527  0.92323  1.0000
  N   N33       1.0  0.56825  0.36694  0.72736  1.0000
  C   C475      1.0  0.55951  0.31553  0.74690  1.0000
  H   H802      1.0  0.57431  0.41742  0.78309  1.0000
  C   C476      1.0  0.84918  0.44849  0.73849  1.0000
  H   H803      1.0  0.94005  0.24205  0.81687  1.0000
  H   H804      1.0  0.80999  0.44034  0.69835  1.0000
  H   H805      1.0  0.73234  0.25387  0.72779  1.0000
  H   H806      1.0  0.52990  0.34965  0.70682  1.0000
  C   C477      1.0  0.70543  0.06191  0.96358  1.0000
  H   H807      1.0  0.69766  0.24369  0.76668  1.0000
  H   H808      1.0  0.77528  0.27071  0.77935  1.0000
  C   C478      1.0  0.98667  0.34028  0.83292  1.0000
  H   H809      1.0  0.75075  0.29140  0.83651  1.0000
  C   C479      1.0  0.71497  0.25938  0.77168  1.0000
  C   C480      1.0  0.66799  0.06096  0.92640  1.0000
  C   C481      1.0  0.75337  0.29428  0.81295  1.0000
  C   C482      1.0  0.86557  0.42032  0.73270  1.0000
  C   C483      1.0  0.77145  0.42524  0.71921  1.0000
  H   H810      1.0  0.56764  0.29330  0.74395  1.0000
  H   H811      1.0  0.71151  0.05594  0.98588  1.0000
  C   C484      1.0  0.78401  0.43427  0.78789  1.0000
  H   H812      1.0  0.81332  0.40753  0.71753  1.0000
  H   H813      1.0  0.63313  0.02955  0.91813  1.0000
  H   H814      1.0  0.84389  0.45483  0.92101  1.0000
  N   N34       1.0  0.91141  0.24111  0.87221  1.0000
  C   C485      1.0  0.89962  0.24509  0.84226  1.0000
  C   C486      1.0  0.92011  0.21044  0.87736  1.0000
  C   C487      1.0  0.89595  0.18800  0.87335  1.0000
  H   H815      1.0  0.76554  0.44040  0.77434  1.0000
  H   H816      1.0  0.93858  0.20435  0.86338  1.0000
  H   H817      1.0  0.88654  0.18841  0.85147  1.0000
  C   C488      1.0  0.72601  0.27127  0.74276  1.0000
  H   H818      1.0  0.58081  0.37286  0.68302  1.0000
  C   C489      1.0  0.95262  0.25908  0.90513  1.0000
  H   H819      1.0  0.87850  0.19070  0.88944  1.0000
  H   H820      1.0  0.62077  0.06527  0.92754  1.0000
  H   H821      1.0  0.74396  0.28667  0.74557  1.0000
  H   H822      1.0  0.70819  0.28305  0.73209  1.0000
  N   N35       1.0  0.81721  0.44568  0.74403  1.0000
  H   H823      1.0  0.62892  0.39413  0.69100  1.0000
  H   H824      1.0  0.77779  0.41397  0.79878  1.0000
  C   C490      1.0  0.67330  0.13928  0.99166  1.0000
  H   H825      1.0  0.76476  0.41061  0.73674  1.0000
  C   C491      1.0  0.61880  0.38093  0.70813  1.0000
  C   C492      1.0  0.93757  0.25997  0.87554  1.0000
  H   H826      1.0  0.92818  0.20764  0.89972  1.0000
  H   H827      1.0  0.93278  0.28271  0.87011  1.0000
  H   H828      1.0  0.82103  0.48541  0.78859  1.0000
  H   H829      1.0  0.70206  0.01587  0.76702  1.0000
  H   H830      1.0  0.83007  0.43520  0.78751  1.0000
  H   H831      1.0  0.91920  0.20924  0.81785  1.0000
  H   H832      1.0  0.77098  0.31000  0.80929  1.0000
  C   C493      1.0  0.81284  0.42946  0.77183  1.0000
  C   C494      1.0  0.52993  0.29993  0.67265  1.0000
  H   H833      1.0  0.72822  0.05707  0.92192  1.0000
  C   C495      1.0  0.57394  0.37899  0.75689  1.0000
  H   H834      1.0  0.56205  0.32072  0.77001  1.0000
  C   C496      1.0  0.53641  0.36827  0.72022  1.0000
  H   H835      1.0  0.56005  0.36834  0.77320  1.0000
  H   H836      1.0  0.86023  0.45859  0.75721  1.0000
  H   H837      1.0  0.53634  0.31511  0.74119  1.0000
  H   H838      1.0  0.85337  0.46290  0.71981  1.0000
  H   H839      1.0  0.68320  0.05406  0.90945  1.0000
  H   H840      1.0  0.65228  0.08569  0.97390  1.0000
  C   C497      1.0  0.65461  0.06210  0.97683  1.0000
  H   H841      1.0  0.73601  0.02925  0.94826  1.0000
  H   H842      1.0  0.58006  0.40505  0.70291  1.0000
  H   H843      1.0  0.58307  0.42435  0.74648  1.0000
  H   H844      1.0  0.65333  0.01007  0.96157  1.0000
  H   H845      1.0  0.62610  0.38979  0.72898  1.0000
  C   C498      1.0  0.80503  0.47566  0.74490  1.0000
  H   H846      1.0  0.68837  0.01046  0.97692  1.0000
  H   H847      1.0  0.63280  0.05307  0.97287  1.0000
  H   H848      1.0  0.83139  0.48196  0.95991  1.0000
  C   C499      1.0  0.71505  0.99849  0.77694  1.0000
  H   H849      1.0  0.78156  0.47579  0.74895  1.0000
  H   H850      1.0  0.85135  0.48744  0.90401  1.0000
  H   H851      1.0  0.80747  0.48619  0.72351  1.0000
  C   C500      1.0  0.85286  0.48895  0.95182  1.0000
  C   C501      1.0  0.66432  0.99253  0.85278  1.0000
  H   H852      1.0  0.74731  0.99525  0.85859  1.0000
  H   H853      1.0  0.99335  0.27292  0.80604  1.0000
  H   H854      1.0  0.66849  0.99230  0.91854  1.0000
  N   N36       1.0  0.93384  0.81772  0.30514  1.0000
  Fe  Fe73      1.0  0.89038  0.65543  0.13481  1.0000
  S   S145      1.0  0.90708  0.61175  0.14574  1.0000
  S   S146      1.0  0.86636  0.66812  0.09393  1.0000
  Fe  Fe74      1.0  0.91107  0.68033  0.19276  1.0000
  S   S147      1.0  0.93020  0.63854  0.20727  1.0000
  S   S148      1.0  0.90779  0.72135  0.21854  1.0000
  Fe  Fe75      1.0  0.94676  0.63485  0.16177  1.0000
  C   C502      1.0  0.93779  0.66156  0.01161  1.0000
  Fe  Fe76      1.0  0.88897  0.61971  0.19000  1.0000
  S   S149      1.0  0.86434  0.58674  0.21613  1.0000
  S   S150      1.0  0.93066  0.67839  0.14850  1.0000
  S   S151      1.0  0.86922  0.66171  0.17790  1.0000
  S   S152      1.0  0.68849  0.62459  0.29822  1.0000
  H   H855      1.0  0.74145  0.60034  0.15586  1.0000
  S   S153      1.0  0.66266  0.56301  0.27695  1.0000
  Fe  Fe77      1.0  0.70547  0.58553  0.27585  1.0000
  S   S154      1.0  0.72952  0.59500  0.23445  1.0000
  H   H856      1.0  0.88452  0.85218  0.28846  1.0000
  C   C503      1.0  0.95729  0.59120  0.07346  1.0000
  C   C504      1.0  0.96050  0.77136  0.29007  1.0000
  H   H857      1.0  0.86590  0.75713  0.30746  1.0000
  H   H858      1.0  0.87079  0.81878  0.30303  1.0000
  C   C505      1.0  0.58668  0.51271  0.29101  1.0000
  H   H859      1.0  0.75588  0.98579  0.22194  1.0000
  H   H860      1.0  0.56149  0.54143  0.26298  1.0000
  C   C506      1.0  0.82743  0.59132  0.22421  1.0000
  C   C507      1.0  0.81170  0.61420  0.21287  1.0000
  C   C508      1.0  0.78175  0.61564  0.21701  1.0000
  C   C509      1.0  0.76745  0.59478  0.23341  1.0000
  C   C510      1.0  0.78341  0.57288  0.24632  1.0000
  C   C511      1.0  0.81329  0.57101  0.24147  1.0000
  H   H861      1.0  0.82245  0.63025  0.20017  1.0000
  H   H862      1.0  0.76950  0.63281  0.20730  1.0000
  H   H863      1.0  0.77255  0.55662  0.25891  1.0000
  H   H864      1.0  0.82535  0.55335  0.25055  1.0000
  H   H865      1.0  0.61010  0.50820  0.29352  1.0000
  C   C512      1.0  0.87659  0.61030  0.02869  1.0000
  C   C513      1.0  0.87715  0.62314  0.05612  1.0000
  C   C514      1.0  0.86667  0.65102  0.05985  1.0000
  C   C515      1.0  0.85529  0.66564  0.03599  1.0000
  H   H866      1.0  0.86736  0.49889  0.01006  1.0000
  H   H867      1.0  0.88492  0.58882  0.02597  1.0000
  H   H868      1.0  0.88559  0.61148  0.07436  1.0000
  H   H869      1.0  0.84691  0.68713  0.03869  1.0000
  H   H870      1.0  0.93403  0.62090  0.03122  1.0000
  H   H871      1.0  0.79769  0.56687  0.08676  1.0000
  C   C516      1.0  0.91497  0.70345  0.30392  1.0000
  C   C517      1.0  0.91751  0.70132  0.27377  1.0000
  C   C518      1.0  0.90189  0.71985  0.25598  1.0000
  C   C519      1.0  0.88301  0.73966  0.26847  1.0000
  C   C520      1.0  0.88018  0.74145  0.29846  1.0000
  H   H872      1.0  0.88599  0.53307  0.00753  1.0000
  H   H873      1.0  0.93235  0.68610  0.26435  1.0000
  H   H874      1.0  0.87087  0.75406  0.25485  1.0000
  C   C521      1.0  0.51216  0.73832  0.30210  1.0000
  N   N37       1.0  0.96946  0.64169  0.05311  1.0000
  C   C522      1.0  0.54551  0.62434  0.29333  1.0000
  H   H875      1.0  0.80361  0.63184  0.07971  1.0000
  H   H876      1.0  0.75501  0.63221  0.09871  1.0000
  H   H877      1.0  0.50677  0.70421  0.25272  1.0000
  C   C523      1.0  0.93792  0.84947  0.31037  1.0000
  C   C524      1.0  0.86590  0.62524  0.00468  1.0000
  C   C525      1.0  0.80258  0.58653  0.07441  1.0000
  H   H878      1.0  0.92492  0.69394  0.08080  1.0000
  H   H879      1.0  0.71727  0.61944  0.13312  1.0000
  C   C526      1.0  0.91257  0.81441  0.28079  1.0000
  H   H880      1.0  0.78453  0.59078  0.05932  1.0000
  H   H881      1.0  0.85791  0.62596  0.26762  1.0000
  H   H882      1.0  0.52837  0.72544  0.29011  1.0000
  H   H883      1.0  0.82151  0.61509  0.29494  1.0000
  C   C527      1.0  0.78675  0.92283  0.30658  1.0000
  C   C528      1.0  0.85505  0.65292  0.00850  1.0000
  H   H884      1.0  0.59308  0.55833  0.27890  1.0000
  C   C529      1.0  0.86463  0.52242  0.00823  1.0000
  H   H885      1.0  0.77794  0.91542  0.28574  1.0000
  H   H886      1.0  0.84880  0.69034  0.27885  1.0000
  N   N38       1.0  0.79179  0.61455  0.12130  1.0000
  C   C530      1.0  0.80092  0.64133  0.13704  1.0000
  C   C531      1.0  0.79799  0.58900  0.14024  1.0000
  C   C532      1.0  0.80839  0.61298  0.09352  1.0000
  C   C533      1.0  0.79210  0.67016  0.12331  1.0000
  C   C534      1.0  0.83006  0.58163  0.14450  1.0000
  H   H887      1.0  0.79260  0.64141  0.15942  1.0000
  H   H888      1.0  0.82473  0.64205  0.13912  1.0000
  H   H889      1.0  0.78691  0.56937  0.13242  1.0000
  H   H890      1.0  0.78893  0.59229  0.16210  1.0000
  H   H891      1.0  0.83197  0.61479  0.09724  1.0000
  H   H892      1.0  0.76844  0.67304  0.12256  1.0000
  H   H893      1.0  0.80081  0.68786  0.13675  1.0000
  H   H894      1.0  0.80139  0.67315  0.10157  1.0000
  H   H895      1.0  0.84028  0.57406  0.12434  1.0000
  H   H896      1.0  0.84235  0.59994  0.15339  1.0000
  H   H897      1.0  0.83187  0.56391  0.16040  1.0000
  C   C535      1.0  0.80572  0.71513  0.30549  1.0000
  H   H898      1.0  0.79613  0.63257  0.27300  1.0000
  H   H899      1.0  0.78098  0.67951  0.32011  1.0000
  H   H900      1.0  0.86461  0.62459  0.32216  1.0000
  N   N39       1.0  0.81950  0.66145  0.30081  1.0000
  H   H901      1.0  0.82227  0.58155  0.06177  1.0000
  H   H902      1.0  0.96821  0.57294  0.08428  1.0000
  C   C536      1.0  0.76010  0.61504  0.11455  1.0000
  H   H903      1.0  0.75349  0.59474  0.10382  1.0000
  H   H904      1.0  0.96075  0.65110  0.09770  1.0000
  C   C537      1.0  0.94740  0.68855  0.07460  1.0000
  C   C538      1.0  0.98038  0.61317  0.06408  1.0000
  H   H905      1.0  0.85398  0.52983  0.02829  1.0000
  C   C539      1.0  0.58401  0.53821  0.27014  1.0000
  H   H906      1.0  0.92171  0.82303  0.26036  1.0000
  H   H907      1.0  0.87451  0.65494  0.24922  1.0000
  H   H908      1.0  0.96922  0.81436  0.27505  1.0000
  S   S155      1.0  0.98912  0.61853  0.14303  1.0000
  H   H909      1.0  0.74391  0.63890  0.15261  1.0000
  N   N40       1.0  0.78260  0.97598  0.29019  1.0000
  S   S156      1.0  0.60410  0.61952  0.28768  1.0000
  H   H910      1.0  0.57749  0.49421  0.27909  1.0000
  H   H911      1.0  0.95296  0.75938  0.30926  1.0000
  H   H912      1.0  0.88123  0.65103  0.28654  1.0000
  C   C540      1.0  0.73992  0.61869  0.14073  1.0000
  H   H913      1.0  0.86977  0.82535  0.26542  1.0000
  H   H914      1.0  0.82794  0.97922  0.30014  1.0000
  H   H915      1.0  0.97940  0.80762  0.31076  1.0000
  Fe  Fe78      1.0  0.64674  0.60050  0.30271  1.0000
  H   H916      1.0  0.93753  0.86154  0.28968  1.0000
  H   H917      1.0  0.54546  0.62726  0.27025  1.0000
  C   C541      1.0  0.77798  0.95397  0.31365  1.0000
  C   C542      1.0  0.89663  0.72389  0.31645  1.0000
  H   H918      1.0  0.95094  0.69840  0.05334  1.0000
  H   H919      1.0  0.51079  0.54704  0.29454  1.0000
  H   H920      1.0  0.92778  0.68966  0.31755  1.0000
  H   H921      1.0  0.90798  0.79150  0.27653  1.0000
  C   C543      1.0  0.81384  0.97467  0.28131  1.0000
  H   H922      1.0  0.74187  0.96100  0.27343  1.0000
  C   C544      1.0  0.57179  0.62033  0.30777  1.0000
  H   H923      1.0  0.81973  0.95290  0.27366  1.0000
  H   H924      1.0  0.76082  0.63513  0.31023  1.0000
  H   H925      1.0  0.94705  0.76566  0.27123  1.0000
  H   H926      1.0  0.81562  0.72369  0.28554  1.0000
  H   H927      1.0  0.92946  0.64582  0.07669  1.0000
  C   C545      1.0  0.83885  0.66893  0.27581  1.0000
  H   H928      1.0  0.88458  0.91196  0.32109  1.0000
  H   H929      1.0  0.96549  0.62458  0.01000  1.0000
  H   H930      1.0  0.81050  0.92015  0.30697  1.0000
  C   C546      1.0  0.95203  0.63570  0.02642  1.0000
  C   C547      1.0  0.51921  0.62359  0.30843  1.0000
  C   C548      1.0  0.79586  0.68368  0.30183  1.0000
  C   C549      1.0  0.80559  0.63281  0.29495  1.0000
  H   H931      1.0  0.96121  0.69936  0.09080  1.0000
  H   H932      1.0  0.77210  0.95126  0.25225  1.0000
  H   H933      1.0  0.75491  0.95298  0.32000  1.0000
  C   C550      1.0  0.95130  0.65557  0.07616  1.0000
  H   H934      1.0  0.92069  0.67105  0.02528  1.0000
  H   H935      1.0  0.94203  0.60021  0.08939  1.0000
  C   C551      1.0  0.86432  0.64868  0.26992  1.0000
  H   H936      1.0  0.50530  0.75476  0.28612  1.0000
  H   H937      1.0  0.98254  0.76352  0.28521  1.0000
  H   H938      1.0  0.82607  0.67035  0.25556  1.0000
  H   H939      1.0  0.94542  0.58208  0.05494  1.0000
  H   H940      1.0  0.49903  0.62566  0.29704  1.0000
  H   H941      1.0  0.82070  0.71790  0.32385  1.0000
  C   C552      1.0  0.88291  0.82870  0.28508  1.0000
  H   H942      1.0  0.98482  0.85641  0.31126  1.0000
  H   H943      1.0  0.51833  0.68521  0.31703  1.0000
  H   H944      1.0  0.95350  0.67808  0.00478  1.0000
  H   H945      1.0  0.78227  0.68257  0.28209  1.0000
  C   C553      1.0  0.76293  0.96910  0.26528  1.0000
  C   C554      1.0  0.96163  0.80408  0.29532  1.0000
  H   H946      1.0  0.59672  0.53342  0.25048  1.0000
  C   C555      1.0  0.54036  0.51866  0.31744  1.0000
  H   H947      1.0  0.78658  0.72871  0.30995  1.0000
  H   H948      1.0  0.53905  0.77333  0.31735  1.0000
  H   H949      1.0  0.58406  0.56103  0.32437  1.0000
  S   S157      1.0  0.72145  0.56369  0.31587  1.0000
  N   N41       1.0  0.57266  0.51585  0.32013  1.0000
  H   H950      1.0  0.81336  0.98869  0.23607  1.0000
  H   H951      1.0  0.87469  0.96417  0.32585  1.0000
  H   H952      1.0  0.77824  0.90838  0.32358  1.0000
  H   H953      1.0  0.77712  0.60071  0.31375  1.0000
  H   H954      1.0  0.49860  0.67211  0.27321  1.0000
  C   C556      1.0  0.78127  0.62408  0.31577  1.0000
  H   H955      1.0  0.54387  0.56435  0.30217  1.0000
  C   C557      1.0  0.52822  0.54883  0.31079  1.0000
  Fe  Fe79      1.0  0.67703  0.54420  0.31914  1.0000
  H   H956      1.0  0.53206  0.50384  0.30060  1.0000
  H   H957      1.0  0.98955  0.68015  0.03547  1.0000
  H   H958      1.0  0.91261  0.78188  0.32616  1.0000
  H   H959      1.0  0.91973  0.85827  0.32326  1.0000
  C   C558      1.0  0.96585  0.85892  0.32557  1.0000
  C   C559      1.0  0.52926  0.75342  0.32612  1.0000
  Fe  Fe80      1.0  0.84253  0.78774  0.43190  1.0000
  S   S158      1.0  0.81071  0.81424  0.40628  1.0000
  S   S159      1.0  0.83363  0.78954  0.48050  1.0000
  Fe  Fe81      1.0  0.86699  0.76094  0.37594  1.0000
  S   S160      1.0  0.83665  0.78574  0.34843  1.0000
  Fe  Fe82      1.0  0.84768  0.82352  0.37633  1.0000
  S   S161      1.0  0.86331  0.86235  0.35056  1.0000
  Fe  Fe83      1.0  0.80347  0.77368  0.38098  1.0000
  S   S162      1.0  0.76027  0.75687  0.36564  1.0000
  S   S163      1.0  0.88005  0.79911  0.40301  1.0000
  S   S164      1.0  0.83321  0.74696  0.40757  1.0000
  Fe  Fe84      1.0  0.90312  0.79249  0.64227  1.0000
  C   C560      1.0  0.84421  0.95881  0.36027  1.0000
  S   S165      1.0  0.91161  0.78733  0.59396  1.0000
  H   H960      1.0  0.59182  0.61391  0.34892  1.0000
  H   H961      1.0  0.74730  0.82914  0.44479  1.0000
  H   H962      1.0  0.83847  0.68343  0.63273  1.0000
  S   S166      1.0  0.72919  0.62414  0.37236  1.0000
  C   C561      1.0  0.93636  0.70766  0.61642  1.0000
  S   S167      1.0  0.65871  0.58084  0.34518  1.0000
  N   N42       1.0  0.88223  0.69387  0.61975  1.0000
  H   H963      1.0  0.89782  0.65154  0.60856  1.0000
  H   H964      1.0  0.76207  0.74383  0.51900  1.0000
  H   H965      1.0  0.71504  0.72371  0.33963  1.0000
  C   C562      1.0  0.86381  0.94898  0.33968  1.0000
  H   H966      1.0  0.70241  0.67198  0.34180  1.0000
  C   C563      1.0  0.75334  0.71949  0.36541  1.0000
  C   C564      1.0  0.72877  0.70904  0.35130  1.0000
  C   C565      1.0  0.72159  0.67970  0.35246  1.0000
  C   C566      1.0  0.73858  0.66069  0.36838  1.0000
  C   C567      1.0  0.76325  0.67112  0.38231  1.0000
  C   C568      1.0  0.77084  0.70026  0.38047  1.0000
  H   H967      1.0  0.51691  0.71408  0.36535  1.0000
  H   H968      1.0  0.77654  0.65655  0.39461  1.0000
  H   H969      1.0  0.78986  0.70783  0.39131  1.0000
  C   C569      1.0  0.85560  0.89933  0.35506  1.0000
  H   H970      1.0  0.96454  0.87780  0.55549  1.0000
  C   C570      1.0  0.58645  0.54053  0.33593  1.0000
  H   H971      1.0  0.52972  0.51184  0.33781  1.0000
  C   C571      1.0  0.83036  0.93874  0.37816  1.0000
  C   C572      1.0  0.83602  0.90916  0.37563  1.0000
  C   C573      1.0  0.87295  0.72134  0.60532  1.0000
  H   H972      1.0  0.81514  0.94614  0.39414  1.0000
  H   H973      1.0  0.82526  0.89400  0.38959  1.0000
  C   C574      1.0  0.85603  0.78981  0.51159  1.0000
  C   C575      1.0  0.88569  0.78480  0.51021  1.0000
  C   C576      1.0  0.90229  0.78435  0.53563  1.0000
  C   C577      1.0  0.88956  0.78907  0.56270  1.0000
  C   C578      1.0  0.85997  0.79438  0.56409  1.0000
  C   C579      1.0  0.84331  0.79455  0.53869  1.0000
  H   H974      1.0  0.89579  0.78106  0.48959  1.0000
  H   H975      1.0  0.92516  0.78023  0.53426  1.0000
  H   H976      1.0  0.84986  0.79819  0.58469  1.0000
  H   H977      1.0  0.82041  0.79854  0.54004  1.0000
  S   S168      1.0  0.89598  0.72795  0.35439  1.0000
  H   H978      1.0  0.70977  0.76690  0.49011  1.0000
  H   H979      1.0  0.76865  0.70995  0.48099  1.0000
  H   H980      1.0  0.73897  0.78505  0.41938  1.0000
  H   H981      1.0  0.77412  0.80524  0.45751  1.0000
  H   H982      1.0  0.94944  0.83439  0.60308  1.0000
  H   H983      1.0  0.79942  0.71187  0.45794  1.0000
  H   H984      1.0  0.83889  0.70086  0.57892  1.0000
  H   H985      1.0  0.76637  0.69858  0.44385  1.0000
  C   C580      1.0  0.77567  0.71468  0.45876  1.0000
  H   H986      1.0  0.58496  0.56595  0.37506  1.0000
  C   C581      1.0  0.50328  0.69563  0.35942  1.0000
  H   H987      1.0  0.91043  0.69401  0.56681  1.0000
  H   H988      1.0  0.74267  0.81331  0.47931  1.0000
  H   H989      1.0  0.68091  0.76053  0.42428  1.0000
  H   H990      1.0  0.94796  0.88577  0.63847  1.0000
  H   H991      1.0  0.72023  0.71252  0.44610  1.0000
  H   H992      1.0  0.71072  0.79155  0.44437  1.0000
  H   H993      1.0  0.67734  0.74522  0.46011  1.0000
  H   H994      1.0  0.67403  0.72335  0.42874  1.0000
  H   H995      1.0  0.97659  0.78866  0.60049  1.0000
  H   H996      1.0  0.78981  0.96014  0.33355  1.0000
  H   H997      1.0  0.72514  0.73403  0.41503  1.0000
  H   H998      1.0  0.77321  0.74717  0.42601  1.0000
  C   C582      1.0  0.71839  0.73489  0.43798  1.0000
  H   H999      1.0  0.51783  0.55812  0.33019  1.0000
  C   C583      1.0  0.73356  0.78472  0.44276  1.0000
  H   H1000     1.0  0.78414  0.75980  0.45956  1.0000
  H   H1001     1.0  0.76992  0.77665  0.50012  1.0000
  H   H1002     1.0  0.74186  0.77523  0.52589  1.0000
  C   C584      1.0  0.88429  0.66890  0.59917  1.0000
  H   H1003     1.0  0.88817  0.72825  0.58839  1.0000
  H   H1004     1.0  0.72318  0.73128  0.49204  1.0000
  H   H1005     1.0  0.94332  0.68999  0.60209  1.0000
  H   H1006     1.0  0.55189  0.54766  0.36798  1.0000
  C   C585      1.0  0.75062  0.80907  0.45723  1.0000
  H   H1007     1.0  0.86862  0.64052  0.64781  1.0000
  H   H1008     1.0  0.96422  0.88213  0.33079  1.0000
  H   H1009     1.0  0.86255  0.65930  0.59594  1.0000
  H   H1010     1.0  0.58305  0.52850  0.38170  1.0000
  H   H1011     1.0  0.91760  0.67903  0.64643  1.0000
  C   C586      1.0  0.84282  0.72072  0.59134  1.0000
  C   C587      1.0  0.68589  0.74181  0.43814  1.0000
  H   H1012     1.0  0.82149  0.66859  0.34703  1.0000
  C   C588      1.0  0.72933  0.75364  0.48616  1.0000
  H   H1013     1.0  0.96981  0.82859  0.57124  1.0000
  C   C589      1.0  0.76821  0.74552  0.44933  1.0000
  H   H1014     1.0  0.95487  0.71224  0.63083  1.0000
  C   C590      1.0  0.91045  0.69872  0.63504  1.0000
  C   C591      1.0  0.89592  0.67533  0.56861  1.0000
  H   H1015     1.0  0.51580  0.76070  0.34428  1.0000
  H   H1016     1.0  0.87315  0.73939  0.62100  1.0000
  C   C592      1.0  0.85053  0.63417  0.33870  1.0000
  H   H1017     1.0  0.94731  0.88822  0.58885  1.0000
  N   N43       1.0  0.73765  0.75495  0.45480  1.0000
  H   H1018     1.0  0.86430  0.63890  0.35765  1.0000
  Fe  Fe85      1.0  0.70201  0.60198  0.33841  1.0000
  C   C593      1.0  0.75243  0.76288  0.50840  1.0000
  H   H1019     1.0  0.54548  0.61293  0.37572  1.0000
  H   H1020     1.0  0.98211  0.79846  0.63766  1.0000
  H   H1021     1.0  0.87790  0.67772  0.55310  1.0000
  H   H1022     1.0  0.93249  0.72758  0.60407  1.0000
  H   H1023     1.0  0.90842  0.65650  0.56095  1.0000
  C   C594      1.0  0.54542  0.61605  0.35267  1.0000
  C   C595      1.0  0.86000  0.68702  0.64252  1.0000
  H   H1024     1.0  0.82570  0.72346  0.60778  1.0000
  C   C596      1.0  0.98676  0.85900  0.63589  1.0000
  C   C597      1.0  0.95160  0.87020  0.57407  1.0000
  H   H1025     1.0  0.78666  0.62864  0.33851  1.0000
  H   H1026     1.0  0.93044  0.86322  0.56533  1.0000
  H   H1027     1.0  0.97926  0.90498  0.62521  1.0000
  C   C598      1.0  0.57563  0.54558  0.36688  1.0000
  H   H1028     1.0  0.90223  0.81513  0.33926  1.0000
  H   H1029     1.0  0.51456  0.67603  0.36698  1.0000
  H   H1030     1.0  0.96421  0.79680  0.35261  1.0000
  C   C599      1.0  0.96600  0.84433  0.58889  1.0000
  H   H1031     1.0  0.83456  0.61793  0.34569  1.0000
  C   C600      1.0  0.51911  0.61944  0.33818  1.0000
  H   H1032     1.0  0.84078  0.73900  0.57619  1.0000
  C   C601      1.0  0.97171  0.88812  0.64006  1.0000
  H   H1033     1.0  0.90776  0.71531  0.65203  1.0000
  C   C602      1.0  0.57167  0.61655  0.33756  1.0000
  H   H1034     1.0  0.85283  0.67912  0.32828  1.0000
  S   S169      1.0  0.66006  0.49904  0.32898  1.0000
  H   H1035     1.0  0.93501  0.78028  0.36969  1.0000
  H   H1036     1.0  0.96958  0.84756  0.34604  1.0000
  C   C603      1.0  0.92145  0.80332  0.33140  1.0000
  H   H1037     1.0  0.61020  0.53744  0.33712  1.0000
  H   H1038     1.0  0.93889  0.81860  0.37252  1.0000
  H   H1039     1.0  0.54678  0.73937  0.33425  1.0000
  N   N44       1.0  0.99341  0.84978  0.60555  1.0000
  C   C604      1.0  0.94127  0.80000  0.35779  1.0000
  H   H1040     1.0  0.97244  0.84315  0.64650  1.0000
  H   H1041     1.0  0.85729  0.70552  0.65752  1.0000
  C   C605      1.0  0.99281  0.79524  0.61669  1.0000
  C   C606      1.0  0.83585  0.66223  0.32890  1.0000
  C   C607      1.0  0.86940  0.91937  0.33707  1.0000
  C   C608      1.0  0.49793  0.69315  0.32678  1.0000
  Fe  Fe86      1.0  0.89958  0.75765  0.69802  1.0000
  S   S170      1.0  0.90824  0.79570  0.72605  1.0000
  S   S171      1.0  0.88814  0.71283  0.71306  1.0000
  Fe  Fe87      1.0  0.94205  0.80803  0.69357  1.0000
  C   C609      1.0  0.74496  0.92981  0.74077  1.0000
  Fe  Fe88      1.0  0.87663  0.81828  0.69738  1.0000
  S   S172      1.0  0.84745  0.84867  0.72228  1.0000
  Fe  Fe89      1.0  0.67484  0.88727  0.84221  1.0000
  S   S173      1.0  0.65231  0.86509  0.80527  1.0000
  S   S174      1.0  0.66082  0.93369  0.85031  1.0000
  Fe  Fe90      1.0  0.70693  0.83189  0.85852  1.0000
  S   S175      1.0  0.68651  0.80698  0.82297  1.0000
  S   S176      1.0  0.73975  0.81119  0.88820  1.0000
  Fe  Fe91      1.0  0.69589  0.84581  0.79620  1.0000
  S   S177      1.0  0.71388  0.84019  0.75119  1.0000
  Fe  Fe92      1.0  0.64500  0.82847  0.83587  1.0000
  S   S178      1.0  0.60649  0.79824  0.84219  1.0000
  S   S179      1.0  0.71872  0.86995  0.83111  1.0000
  S   S180      1.0  0.66507  0.85140  0.87342  1.0000
  Fe  Fe93      1.0  0.86344  0.65168  0.86861  1.0000
  S   S181      1.0  0.82163  0.63752  0.84921  1.0000
  S   S182      1.0  0.89541  0.68077  0.84592  1.0000
  Fe  Fe94      1.0  0.84971  0.62518  0.92754  1.0000
  S   S183      1.0  0.80630  0.61017  0.91221  1.0000
  S   S184      1.0  0.86738  0.60857  0.97044  1.0000
  Fe  Fe95      1.0  0.82911  0.59555  0.87213  1.0000
  S   S185      1.0  0.81398  0.55237  0.85426  1.0000
  Fe  Fe96      1.0  0.80250  0.65321  0.89063  1.0000
  S   S186      1.0  0.76005  0.67695  0.88669  1.0000
  S   S187      1.0  0.87286  0.60842  0.88827  1.0000
  S   S188      1.0  0.84397  0.66962  0.90927  1.0000
  C   C610      1.0  0.83443  0.52045  0.85089  1.0000
  H   H1042     1.0  0.79958  0.80459  0.85440  1.0000
  H   H1043     1.0  0.51319  0.73574  0.73142  1.0000
  C   C611      1.0  0.86451  0.52075  0.85098  1.0000
  H   H1044     1.0  0.85750  0.75783  0.74519  1.0000
  C   C612      1.0  0.83788  0.53642  0.93103  1.0000
  H   H1045     1.0  0.87588  0.54092  0.85279  1.0000
  C   C613      1.0  0.81999  0.49405  0.84818  1.0000
  C   C614      1.0  0.74840  0.77434  0.88536  1.0000
  C   C615      1.0  0.76646  0.76166  0.90595  1.0000
  C   C616      1.0  0.77187  0.73194  0.90545  1.0000
  C   C617      1.0  0.75901  0.71469  0.88447  1.0000
  C   C618      1.0  0.74195  0.72754  0.86323  1.0000
  C   C619      1.0  0.73693  0.75725  0.86350  1.0000
  H   H1046     1.0  0.77569  0.77474  0.92281  1.0000
  H   H1047     1.0  0.78493  0.72220  0.92205  1.0000
  H   H1048     1.0  0.73205  0.71433  0.84687  1.0000
  H   H1049     1.0  0.72374  0.76676  0.84706  1.0000
  C   C620      1.0  0.56949  0.80780  0.84275  1.0000
  C   C621      1.0  0.54877  0.78670  0.84930  1.0000
  C   C622      1.0  0.51911  0.79331  0.84941  1.0000
  C   C623      1.0  0.50991  0.82106  0.84263  1.0000
  C   C624      1.0  0.53065  0.84216  0.83648  1.0000
  C   C625      1.0  0.56026  0.83562  0.83653  1.0000
  H   H1050     1.0  0.55571  0.76513  0.85424  1.0000
  S   S189      1.0  0.86597  0.77932  0.67076  1.0000
  H   H1051     1.0  0.52377  0.86375  0.83141  1.0000
  H   H1052     1.0  0.57592  0.85208  0.83151  1.0000
  C   C626      1.0  0.67994  0.96666  0.85295  1.0000
  H   H1053     1.0  0.53048  0.83532  0.90863  1.0000
  H   H1054     1.0  0.53297  0.75911  0.79107  1.0000
  H   H1055     1.0  0.72224  0.94815  0.85589  1.0000
  C   C627      1.0  0.88968  0.70454  0.75016  1.0000
  C   C628      1.0  0.90595  0.72113  0.76921  1.0000
  C   C629      1.0  0.90750  0.71355  0.79845  1.0000
  C   C630      1.0  0.89241  0.68965  0.80904  1.0000
  C   C631      1.0  0.87565  0.67339  0.79009  1.0000
  C   C632      1.0  0.87453  0.68066  0.76071  1.0000
  H   H1056     1.0  0.91785  0.73945  0.76134  1.0000
  H   H1057     1.0  0.92055  0.72619  0.81295  1.0000
  H   H1058     1.0  0.86404  0.65487  0.79797  1.0000
  H   H1059     1.0  0.86191  0.66770  0.74612  1.0000
  C   C633      1.0  0.81077  0.84326  0.73108  1.0000
  C   C634      1.0  0.79164  0.82989  0.71213  1.0000
  C   C635      1.0  0.76199  0.82892  0.71861  1.0000
  C   C636      1.0  0.75141  0.84034  0.74450  1.0000
  C   C637      1.0  0.77074  0.85257  0.76399  1.0000
  C   C638      1.0  0.80015  0.85465  0.75697  1.0000
  H   H1060     1.0  0.79951  0.82138  0.69196  1.0000
  H   H1061     1.0  0.74717  0.81942  0.70341  1.0000
  H   H1062     1.0  0.76293  0.86118  0.78407  1.0000
  H   H1063     1.0  0.81481  0.86513  0.77168  1.0000
  H   H1064     1.0  0.81945  0.75743  0.74372  1.0000
  H   H1065     1.0  0.64862  0.80922  0.92587  1.0000
  C   C639      1.0  0.83793  0.76560  0.75636  1.0000
  H   H1066     1.0  0.50341  0.77699  0.85464  1.0000
  H   H1067     1.0  0.84534  0.53240  0.90885  1.0000
  H   H1068     1.0  0.68051  0.73375  0.95972  1.0000
  H   H1069     1.0  0.58936  0.76291  0.93915  1.0000
  H   H1070     1.0  0.71237  0.93985  0.70735  1.0000
  C   C640      1.0  0.67819  0.93601  0.77045  1.0000
  H   H1071     1.0  0.70693  0.75226  0.93720  1.0000
  C   C641      1.0  0.72364  0.92127  0.71696  1.0000
  H   H1072     1.0  0.51567  0.79269  0.78884  1.0000
  H   H1073     1.0  0.74955  0.96490  0.80526  1.0000
  H   H1074     1.0  0.55934  0.79461  0.76168  1.0000
  H   H1075     1.0  0.83908  0.78929  0.75548  1.0000
  H   H1076     1.0  0.80162  0.50594  0.92754  1.0000
  H   H1077     1.0  0.68639  0.80788  0.92222  1.0000
  H   H1078     1.0  0.64889  0.72444  0.83135  1.0000
  H   H1079     1.0  0.84016  0.50359  0.76019  1.0000
  C   C642      1.0  0.54161  0.78175  0.75207  1.0000
  C   C643      1.0  0.50955  0.84372  0.91661  1.0000
  C   C644      1.0  0.81873  0.49583  0.76738  1.0000
  H   H1080     1.0  0.66969  0.78351  0.94608  1.0000
  H   H1081     1.0  0.62300  0.72032  0.93042  1.0000
  N   N45       1.0  0.81393  0.76348  0.80676  1.0000
  C   C645      1.0  0.81880  0.74982  0.83584  1.0000
  C   C646      1.0  0.81624  0.79550  0.81091  1.0000
  C   C647      1.0  0.83787  0.75358  0.78721  1.0000
  C   C648      1.0  0.78494  0.75408  0.79549  1.0000
  C   C649      1.0  0.81811  0.71673  0.83681  1.0000
  C   C650      1.0  0.79405  0.80897  0.83161  1.0000
  C   C651      1.0  0.77048  0.77339  0.77260  1.0000
  H   H1082     1.0  0.83985  0.75674  0.84507  1.0000
  H   H1083     1.0  0.80211  0.75680  0.85146  1.0000
  H   H1084     1.0  0.81440  0.80733  0.79045  1.0000
  H   H1085     1.0  0.83807  0.80127  0.81903  1.0000
  H   H1086     1.0  0.85925  0.75870  0.79686  1.0000
  H   H1087     1.0  0.83744  0.72990  0.78453  1.0000
  H   H1088     1.0  0.78636  0.73200  0.78644  1.0000
  H   H1089     1.0  0.76929  0.75264  0.81352  1.0000
  H   H1090     1.0  0.81969  0.70971  0.85958  1.0000
  H   H1091     1.0  0.79776  0.70773  0.82826  1.0000
  H   H1092     1.0  0.83676  0.70706  0.82566  1.0000
  H   H1093     1.0  0.79430  0.83265  0.82901  1.0000
  H   H1094     1.0  0.77176  0.80168  0.82737  1.0000
  H   H1095     1.0  0.63755  0.75025  0.94793  1.0000
  H   H1096     1.0  0.75978  0.75965  0.75629  1.0000
  H   H1097     1.0  0.78513  0.78767  0.76067  1.0000
  H   H1098     1.0  0.75294  0.78637  0.78235  1.0000
  N   N46       1.0  0.73300  0.94738  0.76529  1.0000
  C   C652      1.0  0.75743  0.95316  0.78596  1.0000
  H   H1099     1.0  0.77394  0.96735  0.77588  1.0000
  H   H1100     1.0  0.78701  0.93307  0.81615  1.0000
  C   C653      1.0  0.70944  0.93110  0.78077  1.0000
  C   C654      1.0  0.77335  0.92660  0.79765  1.0000
  H   H1101     1.0  0.67647  0.71048  0.85392  1.0000
  H   H1102     1.0  0.67030  0.95775  0.77590  1.0000
  H   H1103     1.0  0.69853  0.98130  0.93899  1.0000
  C   C655      1.0  0.60262  0.76038  0.91943  1.0000
  H   H1104     1.0  0.55177  0.76275  0.74194  1.0000
  H   H1105     1.0  0.70803  0.90505  0.72488  1.0000
  H   H1106     1.0  0.79669  0.49363  0.84823  1.0000
  C   C656      1.0  0.50080  0.73102  0.75134  1.0000
  H   H1107     1.0  0.73580  0.91066  0.69935  1.0000
  H   H1108     1.0  0.71349  0.90758  0.77973  1.0000
  C   C657      1.0  0.84568  0.53093  0.98232  1.0000
  H   H1109     1.0  0.90147  0.51534  0.96244  1.0000
  H   H1110     1.0  0.51468  0.86151  0.93150  1.0000
  H   H1111     1.0  0.75825  0.91000  0.80543  1.0000
  H   H1112     1.0  0.71054  0.71518  0.94480  1.0000
  H   H1113     1.0  0.67393  0.74874  0.84697  1.0000
  C   C658      1.0  0.87996  0.49487  0.84848  1.0000
  C   C659      1.0  0.86575  0.66009  0.66101  1.0000
  H   H1114     1.0  0.75375  0.90908  0.74861  1.0000
  C   C660      1.0  0.70995  0.96783  0.85524  1.0000
  H   H1115     1.0  0.67525  0.93218  0.74720  1.0000
  H   H1116     1.0  0.66373  0.92096  0.78195  1.0000
  N   N47       1.0  0.65346  0.74387  0.90426  1.0000
  C   C661      1.0  0.64078  0.73204  0.87677  1.0000
  C   C662      1.0  0.62996  0.74290  0.92664  1.0000
  C   C663      1.0  0.67759  0.72411  0.91314  1.0000
  C   C664      1.0  0.66444  0.77387  0.89875  1.0000
  C   C665      1.0  0.66159  0.72887  0.85109  1.0000
  H   H1117     1.0  0.58903  0.74905  0.90341  1.0000
  C   C666      1.0  0.69440  0.73223  0.94043  1.0000
  C   C667      1.0  0.66707  0.79410  0.92506  1.0000
  H   H1118     1.0  0.63088  0.71058  0.88056  1.0000
  H   H1119     1.0  0.62306  0.74596  0.86887  1.0000
  H   H1120     1.0  0.76337  0.94120  0.73041  1.0000
  H   H1121     1.0  0.89043  0.54973  0.90706  1.0000
  H   H1122     1.0  0.66942  0.70180  0.91601  1.0000
  H   H1123     1.0  0.69425  0.72280  0.89616  1.0000
  H   H1124     1.0  0.68581  0.77315  0.88808  1.0000
  H   H1125     1.0  0.65006  0.78508  0.88330  1.0000
  H   H1126     1.0  0.97694  0.89635  0.66188  1.0000
  C   C668      1.0  0.52054  0.77304  0.77620  1.0000
  H   H1127     1.0  0.82378  0.52245  0.98700  1.0000
  C   C669      1.0  0.89974  0.53157  0.91931  1.0000
  H   H1128     1.0  0.53139  0.79528  0.73539  1.0000
  C   C670      1.0  0.80550  0.52908  0.93139  1.0000
  H   H1129     1.0  0.79475  0.54085  0.91362  1.0000
  H   H1130     1.0  0.78805  0.91730  0.78128  1.0000
  H   H1131     1.0  0.60758  0.78213  0.91118  1.0000
  C   C671      1.0  0.88723  0.52998  0.94999  1.0000
  N   N48       1.0  0.85606  0.52115  0.95309  1.0000
  H   H1132     1.0  0.84008  0.56008  0.93361  1.0000
  H   H1133     1.0  0.89061  0.55180  0.95920  1.0000
  H   H1134     1.0  0.79485  0.53613  0.95149  1.0000
  H   H1135     1.0  0.92324  0.53579  0.92069  1.0000
  H   H1136     1.0  0.80492  0.51506  0.77033  1.0000
  H   H1137     1.0  0.88443  0.66289  0.67557  1.0000
  H   H1138     1.0  0.64109  0.99189  0.85103  1.0000
  H   H1139     1.0  0.92679  0.65397  0.99178  1.0000
  H   H1140     1.0  0.89709  0.51152  0.90704  1.0000
  H   H1141     1.0  0.50749  0.80984  0.94791  1.0000
  H   H1142     1.0  0.70428  0.97374  0.73936  1.0000
  H   H1143     1.0  0.70927  0.93620  0.80412  1.0000
  H   H1144     1.0  0.90326  0.49531  0.84864  1.0000
  C   C672      1.0  0.72310  0.97601  0.75385  1.0000
  H   H1145     1.0  0.84689  0.65639  0.67525  1.0000
  S   S190      1.0  0.98363  0.83059  0.70699  1.0000
  S   S191      1.0  0.91108  0.83352  0.66662  1.0000
  H   H1146     1.0  0.50774  0.73159  0.82048  1.0000
  H   H1147     1.0  0.49808  0.85174  0.89736  1.0000
  H   H1148     1.0  0.74018  0.98585  0.74016  1.0000
  S   S192      1.0  0.93610  0.76779  0.66789  1.0000
  H   H1149     1.0  0.84669  0.66464  0.99023  1.0000
  H   H1150     1.0  0.51585  0.71750  0.76414  1.0000
  H   H1151     1.0  0.84348  0.55470  0.98300  1.0000
  H   H1152     1.0  0.70229  0.98920  0.79478  1.0000
