data_image0
_chemical_formula_structural       FeS2FeS2FeHSFeS2FeSFeCHCFeS2FeS2FeSFeS3C6H6C2HCH2C6H4C6H2SHC6H3CHCH3C3HSHCH3CH6NHSH3NC4H12C3HC2H8CH6C3HCNH2CH2CH5C3H2C2H7CH3SH2CHCH2CNH10CSHNSHSHFeSHFeS2FeS2FeSFeS3FeHSFeS2FeS2C2SHCH2C3H3C6H4C6H4C6H4C6H5NC8H22NC8H20NC4HC3H10CH11C2H2C3H2CHCH2C2HCH3C2HSHNH2CH3CH4SH2FeHCHCFeS2FeS3FeS2FeHCFeSFeCS2H2C3SCH8C2FeC3H4C2H2C7H5CH2CH6NHC2SHNC2HCHCFeCH3C2HCHC2NCH2CHCH2C2H2CH5CSH3CH5C2HCH3CH2C2HCHCH5CHSHCH4CHSH4SHFeHS2H4C2HFeS2FeS3FeS2FeS2FeHFeS3N2C4HFeC2H6C3NSC6H5C3HC7H7CH3CH3CH6C2HCH2C2H4CHCHCHCHCH3SH2CHSHCHCH2CH8C2HCNH2SH2CH6CH4CHC5H6CHCH5CH2CH5CHCH3CFeCHCH4NH2CH4NH2SHFeSCSHSHFeSCH2SC6H4C3H6C2HCH5CHCH2FeHC2H2NC2H8C4H4C2H2SH5C3FeSH5CH2CH2FeSH3FeCFeSHSHFeHSHCS3C6H4C4HCH2CH3CH7CSH2C2H2C3HNCH4CH2C2HCSHCHCH3CN2C8H24CHCH2CHFeHSHSHC4H4SCH3C2NFeSH3SHFeHCFeS3CFeCSHSHSC6H4C2H2C4H3CH3FeH5NC8H3SH6CH9CH2CHCH17C2H6CHC2H3C3NFeCHFeSH2SH2FeSHSHSHCFeSH3SC6H4C4HC2HCHCFeH2CNHNC5HNCH8C3HSH2CSH5CSH2SH4CHCH6FeC3H2CH2FeH3CH8CNC4HCH2SHCH2C2H4CS2FeS2FeS2FeS2FeH2FeSFeCS2HCHC4H6C2H2FeCHCNH2CH2C3H3C6H5NC5HC2H12CHCH6NCHNC2H5S3CHCH3CFeH2C2H9SCFeC2HSH2CH3C2SH2NC8H18CHSHC2SH5CHC2H2C2HCHSC2H2CH5SCHFeCHFeS2FeS2FeS2FeS2FeSFeS4HSHCHC2H2C3FeHC7HCH4CH2C6H4C3H2NC6H17C2HCHSH2C3H3CH2CH2CHC2H2CH3SCHCHNCHCH2CH2CHCH2CHCH6CH3CH11NH2CNCHC2H5NFeH2FeC2H2CH3C2H2CH2CHC2FeSHFeS3FeSFeS3FeS2FeS2FeSFeS3FeS2FeS2C6H4C6H4C6H4CH2CHCH3C6H3NC8H21C3HCH2CHCH2C2H2CH3NC8H15FeCH7CHCH13C3H2CH10NC2HCH3CH5C2HNFeCSFeS2FeSFeS3FeS2FeS2FeSFeS3C2SHSHC6H4C2H3C6H4CH2CH2C6H4C6H5NH2CH2CH2CH5C2NH4C3HCHCH5SH4CH2CH5CH7CH4NHCH3C2HCH2NH3CSHCH2CHCH7CH2C2H2NH2CH2CFeC2H4CH2CH2CHC2H4CHCHSH
_chemical_formula_sum              "Fe96 S192 H1152 C672 N48"
_cell_length_a       59.6231
_cell_length_b       59.3671
_cell_length_c       29.141
_cell_angle_alpha    89.4228
_cell_angle_beta     89.74
_cell_angle_gamma    89.5631

_space_group_name_H-M_alt    "P 1"
_space_group_IT_number       1

loop_
  _space_group_symop_operation_xyz
  'x, y, z'

loop_
  _atom_site_type_symbol
  _atom_site_label
  _atom_site_symmetry_multiplicity
  _atom_site_fract_x
  _atom_site_fract_y
  _atom_site_fract_z
  _atom_site_occupancy
  Fe  Fe1       1.0  0.25318  0.01312  0.84491  1.0000
  S   S1        1.0  0.28517  0.01327  0.88456  1.0000
  S   S2        1.0  0.24615  0.03607  0.78334  1.0000
  Fe  Fe2       1.0  0.26272  0.01355  0.94710  1.0000
  S   S3        1.0  0.27203  0.03976  0.00030  1.0000
  S   S4        1.0  0.23067  0.01491  0.90706  1.0000
  Fe  Fe3       1.0  0.03494  0.23329  0.12392  1.0000
  H   H1        1.0  0.22430  0.03505  0.02096  1.0000
  S   S5        1.0  0.05796  0.20492  0.10061  1.0000
  Fe  Fe4       1.0  0.28871  0.14265  0.53348  1.0000
  S   S6        1.0  0.27469  0.14282  0.60570  1.0000
  S   S7        1.0  0.26451  0.13072  0.47831  1.0000
  Fe  Fe5       1.0  0.29138  0.17655  0.61071  1.0000
  S   S8        1.0  0.27468  0.20586  0.64613  1.0000
  Fe  Fe6       1.0  0.30778  0.12807  0.62764  1.0000
  C   C1        1.0  0.12702  0.24586  0.15839  1.0000
  H   H2        1.0  0.02475  0.24197  0.93191  1.0000
  C   C2        1.0  0.24625  0.05593  0.17685  1.0000
  Fe  Fe7       1.0  0.22628  0.16495  0.22051  1.0000
  S   S9        1.0  0.23695  0.15696  0.14775  1.0000
  S   S10       1.0  0.25408  0.16864  0.27368  1.0000
  Fe  Fe8       1.0  0.17682  0.17042  0.19315  1.0000
  S   S11       1.0  0.18361  0.16253  0.11945  1.0000
  S   S12       1.0  0.14339  0.18152  0.22294  1.0000
  Fe  Fe9       1.0  0.20647  0.13500  0.14590  1.0000
  S   S13       1.0  0.20367  0.09959  0.11647  1.0000
  Fe  Fe10      1.0  0.21339  0.18504  0.12723  1.0000
  S   S14       1.0  0.21900  0.21094  0.07123  1.0000
  S   S15       1.0  0.19721  0.14106  0.22020  1.0000
  S   S16       1.0  0.20518  0.19484  0.19937  1.0000
  C   C3        1.0  0.26156  0.14215  0.42213  1.0000
  C   C4        1.0  0.27898  0.15376  0.40030  1.0000
  C   C5        1.0  0.27632  0.16171  0.35490  1.0000
  C   C6        1.0  0.25614  0.15857  0.33109  1.0000
  C   C7        1.0  0.23856  0.14733  0.35321  1.0000
  C   C8        1.0  0.24138  0.13891  0.39828  1.0000
  H   H3        1.0  0.29465  0.15623  0.41807  1.0000
  H   H4        1.0  0.29005  0.17034  0.33803  1.0000
  H   H5        1.0  0.22280  0.14517  0.33564  1.0000
  H   H6        1.0  0.22778  0.13000  0.41494  1.0000
  H   H7        1.0  0.24937  0.21806  0.38826  1.0000
  H   H8        1.0  0.28596  0.00621  0.78050  1.0000
  C   C9        1.0  0.21134  0.08395  0.88620  1.0000
  C   C10       1.0  0.25443  0.07931  0.19201  1.0000
  H   H9        1.0  0.27926  0.08302  0.94768  1.0000
  C   C11       1.0  0.28530  0.00699  0.64009  1.0000
  H   H10       1.0  0.23913  0.17754  0.57261  1.0000
  H   H11       1.0  0.23689  0.22758  0.15657  1.0000
  C   C12       1.0  0.08156  0.19822  0.13490  1.0000
  C   C13       1.0  0.08238  0.20427  0.18110  1.0000
  C   C14       1.0  0.10119  0.19851  0.20784  1.0000
  C   C15       1.0  0.11961  0.18713  0.18844  1.0000
  C   C16       1.0  0.11885  0.18112  0.14217  1.0000
  C   C17       1.0  0.09978  0.18643  0.11565  1.0000
  H   H12       1.0  0.06837  0.21306  0.19654  1.0000
  H   H13       1.0  0.10159  0.20317  0.24363  1.0000
  H   H14       1.0  0.13287  0.17225  0.12692  1.0000
  H   H15       1.0  0.09924  0.18156  0.08002  1.0000
  C   C18       1.0  0.26545  0.05499  0.75731  1.0000
  C   C19       1.0  0.25859  0.06788  0.71906  1.0000
  C   C20       1.0  0.27363  0.08242  0.69618  1.0000
  C   C21       1.0  0.29584  0.08402  0.71101  1.0000
  C   C22       1.0  0.30266  0.07122  0.74947  1.0000
  C   C23       1.0  0.28752  0.05695  0.77280  1.0000
  H   H16       1.0  0.28422  0.11527  0.19904  1.0000
  H   H17       1.0  0.30329  0.02139  0.69526  1.0000
  S   S17       1.0  0.31587  0.10094  0.68167  1.0000
  H   H18       1.0  0.29297  0.04742  0.80257  1.0000
  C   C24       1.0  0.25235  0.05720  0.02912  1.0000
  C   C25       1.0  0.25950  0.07769  0.04779  1.0000
  C   C26       1.0  0.24451  0.09155  0.07251  1.0000
  C   C27       1.0  0.22241  0.08463  0.08015  1.0000
  C   C28       1.0  0.21521  0.06433  0.06081  1.0000
  C   C29       1.0  0.23000  0.05081  0.03496  1.0000
  H   H19       1.0  0.27676  0.08280  0.04333  1.0000
  H   H20       1.0  0.25025  0.10722  0.08685  1.0000
  H   H21       1.0  0.19816  0.05882  0.06656  1.0000
  C   C30       1.0  0.22282  0.08493  0.24381  1.0000
  H   H22       1.0  0.25886  0.18902  0.45264  1.0000
  C   C31       1.0  0.03655  0.19645  0.94163  1.0000
  H   H23       1.0  0.26133  0.06601  0.34836  1.0000
  H   H24       1.0  0.24802  0.09182  0.16645  1.0000
  H   H25       1.0  0.19198  0.08026  0.95077  1.0000
  C   C32       1.0  0.05969  0.19638  0.96532  1.0000
  C   C33       1.0  0.21438  0.19617  0.43947  1.0000
  C   C34       1.0  0.24390  0.20804  0.53272  1.0000
  H   H26       1.0  0.23181  0.21681  0.55569  1.0000
  S   S18       1.0  0.32095  0.12550  0.55514  1.0000
  H   H27       1.0  0.03726  0.20910  0.91352  1.0000
  C   C35       1.0  0.02646  0.24293  0.96949  1.0000
  H   H28       1.0  0.32405  0.00956  0.81192  1.0000
  H   H29       1.0  0.24995  0.05478  0.27749  1.0000
  H   H30       1.0  0.21516  0.19839  0.40157  1.0000
  C   C36       1.0  0.28930  0.00926  0.69220  1.0000
  H   H31       1.0  0.02831  0.22105  0.02815  1.0000
  H   H32       1.0  0.24155  0.06653  0.70680  1.0000
  H   H33       1.0  0.22932  0.09268  0.97404  1.0000
  H   H34       1.0  0.03214  0.18277  0.03091  1.0000
  H   H35       1.0  0.06270  0.18036  0.98441  1.0000
  H   H36       1.0  0.07311  0.19774  0.93889  1.0000
  N   N1        1.0  0.01669  0.20014  0.97301  1.0000
  H   H37       1.0  0.26429  0.24911  0.68394  1.0000
  S   S19       1.0  0.30306  0.17743  0.53753  1.0000
  H   H38       1.0  0.26063  0.20966  0.54897  1.0000
  H   H39       1.0  0.24867  0.17207  0.51604  1.0000
  H   H40       1.0  0.21474  0.09484  0.21563  1.0000
  N   N2        1.0  0.23327  0.09455  0.90008  1.0000
  C   C37       1.0  0.23901  0.11203  0.86406  1.0000
  C   C38       1.0  0.25062  0.07595  0.90302  1.0000
  C   C39       1.0  0.24408  0.10283  0.81578  1.0000
  C   C40       1.0  0.27522  0.08279  0.91052  1.0000
  H   H41       1.0  0.21372  0.07277  0.85603  1.0000
  H   H42       1.0  0.25383  0.12207  0.87354  1.0000
  H   H43       1.0  0.22515  0.12465  0.86088  1.0000
  H   H44       1.0  0.25021  0.06494  0.87227  1.0000
  H   H45       1.0  0.22978  0.09352  0.80115  1.0000
  H   H46       1.0  0.24761  0.11715  0.79203  1.0000
  H   H47       1.0  0.25927  0.09197  0.81594  1.0000
  H   H48       1.0  0.24469  0.13935  0.93974  1.0000
  H   H49       1.0  0.31976  0.07242  0.76139  1.0000
  H   H50       1.0  0.21971  0.23180  0.43745  1.0000
  H   H51       1.0  0.28272  0.02416  0.62530  1.0000
  H   H52       1.0  0.21635  0.11005  0.29812  1.0000
  C   C41       1.0  0.01717  0.18136  0.00848  1.0000
  C   C42       1.0  0.29331  0.23702  0.58650  1.0000
  C   C43       1.0  0.28025  0.11519  0.23629  1.0000
  H   H53       1.0  0.22401  0.18089  0.44905  1.0000
  C   C44       1.0  0.32204  0.00627  0.77470  1.0000
  C   C45       1.0  0.22322  0.23834  0.09164  1.0000
  H   H54       1.0  0.19654  0.19251  0.44750  1.0000
  H   H55       1.0  0.25471  0.05143  0.14407  1.0000
  H   H56       1.0  0.18790  0.24913  0.19766  1.0000
  H   H57       1.0  0.25097  0.11749  0.27886  1.0000
  H   H58       1.0  0.29125  0.10295  0.25440  1.0000
  H   H59       1.0  0.28444  0.13220  0.24907  1.0000
  H   H60       1.0  0.21065  0.05692  0.93954  1.0000
  H   H61       1.0  0.00425  0.21642  0.88212  1.0000
  C   C46       1.0  0.23744  0.18308  0.53624  1.0000
  H   H62       1.0  0.18539  0.06031  0.90753  1.0000
  H   H63       1.0  0.04418  0.24632  0.97852  1.0000
  H   H64       1.0  0.27428  0.01801  0.70648  1.0000
  H   H65       1.0  0.19357  0.09213  0.28566  1.0000
  H   H66       1.0  0.16531  0.22453  0.14247  1.0000
  H   H67       1.0  0.21636  0.08080  0.31783  1.0000
  C   C47       1.0  0.19942  0.06959  0.92346  1.0000
  C   C48       1.0  0.25935  0.07086  0.27417  1.0000
  C   C49       1.0  0.16114  0.23703  0.11493  1.0000
  H   H68       1.0  0.21710  0.06731  0.23937  1.0000
  C   C50       1.0  0.15080  0.22369  0.07527  1.0000
  N   N3        1.0  0.24802  0.08642  0.23998  1.0000
  H   H69       1.0  0.24552  0.12163  0.22049  1.0000
  H   H70       1.0  0.20809  0.22202  0.49005  1.0000
  C   C51       1.0  0.28120  0.23332  0.62708  1.0000
  H   H71       1.0  0.13410  0.21695  0.08428  1.0000
  H   H72       1.0  0.26814  0.09213  0.66660  1.0000
  C   C52       1.0  0.23196  0.24182  0.13539  1.0000
  H   H73       1.0  0.28036  0.08632  0.32716  1.0000
  H   H74       1.0  0.24651  0.06415  0.93152  1.0000
  H   H75       1.0  0.17761  0.24333  0.10292  1.0000
  H   H76       1.0  0.29954  0.22295  0.56700  1.0000
  H   H77       1.0  0.27297  0.07900  0.18745  1.0000
  C   C53       1.0  0.25509  0.11063  0.24475  1.0000
  C   C54       1.0  0.26296  0.08008  0.32318  1.0000
  C   C55       1.0  0.24654  0.12372  0.96068  1.0000
  H   H78       1.0  0.19899  0.09709  0.87509  1.0000
  H   H79       1.0  0.26412  0.11782  0.96002  1.0000
  C   C56       1.0  0.22968  0.10559  0.94610  1.0000
  C   C57       1.0  0.26194  0.20722  0.45657  1.0000
  H   H80       1.0  0.27692  0.20610  0.38842  1.0000
  H   H81       1.0  0.21297  0.11417  0.94721  1.0000
  H   H82       1.0  0.24279  0.12853  0.99672  1.0000
  H   H83       1.0  0.27852  0.20792  0.47397  1.0000
  H   H84       1.0  0.27637  0.06611  0.26138  1.0000
  H   H85       1.0  0.25104  0.09329  0.33433  1.0000
  H   H86       1.0  0.01874  0.16463  0.99168  1.0000
  C   C58       1.0  0.21212  0.09253  0.28929  1.0000
  H   H87       1.0  0.16191  0.20908  0.06750  1.0000
  H   H88       1.0  0.25027  0.04251  0.20226  1.0000
  H   H89       1.0  0.27982  0.09905  0.89459  1.0000
  S   S20       1.0  0.32327  0.16206  0.63900  1.0000
  H   H90       1.0  0.13213  0.23131  0.18022  1.0000
  H   H91       1.0  0.06171  0.21060  0.98927  1.0000
  C   C59       1.0  0.26523  0.21713  0.40785  1.0000
  H   H92       1.0  0.03500  0.18006  0.92363  1.0000
  C   C60       1.0  0.22122  0.21818  0.46390  1.0000
  H   H93       1.0  0.21965  0.18042  0.52699  1.0000
  H   H94       1.0  0.22799  0.05617  0.16946  1.0000
  C   C61       1.0  0.01745  0.22249  0.99729  1.0000
  N   N4        1.0  0.24420  0.21863  0.48543  1.0000
  H   H95       1.0  0.32963  0.22422  0.67437  1.0000
  H   H96       1.0  0.28640  0.07015  0.89401  1.0000
  H   H97       1.0  0.32313  0.02281  0.75700  1.0000
  H   H98       1.0  0.27313  0.23397  0.40864  1.0000
  H   H99       1.0  0.16052  0.24279  0.22006  1.0000
  H   H100      1.0  0.14960  0.23398  0.04342  1.0000
  H   H101      1.0  0.00111  0.16865  0.07067  1.0000
  H   H102      1.0  0.26921  0.24388  0.50072  1.0000
  H   H103      1.0  0.00056  0.22715  0.01055  1.0000
  H   H104      1.0  0.11495  0.23870  0.13351  1.0000
  C   C62       1.0  0.25127  0.24291  0.49048  1.0000
  S   S21       1.0  0.03610  0.25153  0.19079  1.0000
  H   H105      1.0  0.24935  0.31013  0.03131  1.0000
  N   N5        1.0  0.14693  0.25594  0.13374  1.0000
  S   S22       1.0  0.23427  0.47509  0.48870  1.0000
  H   H106      1.0  0.28573  0.32451  0.88001  1.0000
  S   S23       1.0  0.26052  0.48485  0.27310  1.0000
  H   H107      1.0  0.15221  0.28484  0.17798  1.0000
  Fe  Fe11      1.0  0.03581  0.28286  0.14658  1.0000
  S   S24       1.0  0.06149  0.30924  0.16609  1.0000
  H   H108      1.0  0.26410  0.27755  0.03961  1.0000
  Fe  Fe12      1.0  0.20137  0.38778  0.12541  1.0000
  S   S25       1.0  0.18817  0.39118  0.05302  1.0000
  S   S26       1.0  0.19463  0.41390  0.18115  1.0000
  Fe  Fe13      1.0  0.21663  0.33917  0.10926  1.0000
  S   S27       1.0  0.20502  0.33894  0.03638  1.0000
  S   S28       1.0  0.23300  0.30969  0.14537  1.0000
  Fe  Fe14      1.0  0.22009  0.37338  0.03123  1.0000
  S   S29       1.0  0.24493  0.38432  0.97546  1.0000
  Fe  Fe15      1.0  0.17428  0.35624  0.06411  1.0000
  S   S30       1.0  0.14070  0.34420  0.03794  1.0000
  S   S31       1.0  0.23410  0.37245  0.10316  1.0000
  S   S32       1.0  0.18491  0.35412  0.13750  1.0000
  Fe  Fe16      1.0  0.30182  0.38265  0.64150  1.0000
  H   H109      1.0  0.26716  0.33396  0.08516  1.0000
  S   S33       1.0  0.30432  0.41731  0.60695  1.0000
  Fe  Fe17      1.0  0.29715  0.33186  0.62847  1.0000
  S   S34       1.0  0.30362  0.32386  0.70250  1.0000
  S   S35       1.0  0.29409  0.30495  0.57470  1.0000
  Fe  Fe18      1.0  0.28107  0.35348  0.71755  1.0000
  S   S36       1.0  0.25202  0.35068  0.76860  1.0000
  S   S37       1.0  0.27223  0.35950  0.64295  1.0000
  C   C63       1.0  0.16119  0.26953  0.16561  1.0000
  C   C64       1.0  0.28956  0.27756  0.59607  1.0000
  S   S38       1.0  0.03619  0.26451  0.07986  1.0000
  H   H110      1.0  0.26407  0.29455  0.91224  1.0000
  C   C65       1.0  0.27803  0.27392  0.63732  1.0000
  H   H111      1.0  0.22521  0.28846  0.92478  1.0000
  H   H112      1.0  0.27198  0.28812  0.65694  1.0000
  C   C66       1.0  0.22858  0.28241  0.12436  1.0000
  C   C67       1.0  0.21941  0.27891  0.08092  1.0000
  C   C68       1.0  0.29266  0.43689  0.72778  1.0000
  H   H113      1.0  0.23760  0.27921  0.97725  1.0000
  H   H114      1.0  0.21423  0.29307  0.06002  1.0000
  H   H115      1.0  0.30315  0.33264  0.97802  1.0000
  C   C69       1.0  0.24648  0.37485  0.91797  1.0000
  C   C70       1.0  0.22975  0.36160  0.89877  1.0000
  C   C71       1.0  0.23184  0.35421  0.85310  1.0000
  C   C72       1.0  0.25076  0.35973  0.82636  1.0000
  C   C73       1.0  0.26757  0.37288  0.84564  1.0000
  C   C74       1.0  0.26532  0.38055  0.89108  1.0000
  H   H116      1.0  0.21513  0.35715  0.91896  1.0000
  H   H117      1.0  0.21868  0.34417  0.83836  1.0000
  H   H118      1.0  0.28218  0.37732  0.82542  1.0000
  H   H119      1.0  0.27836  0.39079  0.90569  1.0000
  C   C75       1.0  0.08430  0.31654  0.12999  1.0000
  C   C76       1.0  0.08288  0.31520  0.08222  1.0000
  C   C77       1.0  0.10051  0.32333  0.05443  1.0000
  C   C78       1.0  0.11988  0.33237  0.07413  1.0000
  C   C79       1.0  0.12179  0.33262  0.12194  1.0000
  C   C80       1.0  0.10390  0.32511  0.14970  1.0000
  H   H120      1.0  0.06785  0.30872  0.06665  1.0000
  H   H121      1.0  0.09893  0.32297  0.01747  1.0000
  H   H122      1.0  0.13673  0.33921  0.13755  1.0000
  H   H123      1.0  0.10516  0.32598  0.18666  1.0000
  C   C81       1.0  0.24185  0.46548  0.24742  1.0000
  C   C82       1.0  0.21967  0.46309  0.26250  1.0000
  C   C83       1.0  0.20554  0.44720  0.24186  1.0000
  C   C84       1.0  0.21335  0.43350  0.20593  1.0000
  C   C85       1.0  0.23552  0.43585  0.19086  1.0000
  C   C86       1.0  0.24964  0.45180  0.21144  1.0000
  H   H124      1.0  0.21338  0.47353  0.28996  1.0000
  H   H125      1.0  0.18842  0.44557  0.25378  1.0000
  H   H126      1.0  0.24176  0.42549  0.16319  1.0000
  H   H127      1.0  0.26675  0.45353  0.19943  1.0000
  C   C87       1.0  0.25416  0.45878  0.52000  1.0000
  C   C88       1.0  0.24703  0.43921  0.54336  1.0000
  C   C89       1.0  0.26226  0.42590  0.56905  1.0000
  C   C90       1.0  0.28470  0.43234  0.57243  1.0000
  C   C91       1.0  0.29181  0.45187  0.54900  1.0000
  C   C92       1.0  0.27670  0.46491  0.52255  1.0000
  H   H128      1.0  0.22963  0.43430  0.54147  1.0000
  H   H129      1.0  0.25658  0.41084  0.58661  1.0000
  H   H130      1.0  0.30913  0.45702  0.55147  1.0000
  H   H131      1.0  0.28242  0.47993  0.50486  1.0000
  H   H132      1.0  0.25013  0.25212  0.45711  1.0000
  N   N6        1.0  0.25261  0.42227  0.38134  1.0000
  C   C93       1.0  0.23179  0.42283  0.41116  1.0000
  C   C94       1.0  0.26815  0.40471  0.40177  1.0000
  C   C95       1.0  0.24557  0.41505  0.33408  1.0000
  C   C96       1.0  0.26263  0.44556  0.37999  1.0000
  C   C97       1.0  0.21231  0.43790  0.39391  1.0000
  C   C98       1.0  0.27544  0.40886  0.45171  1.0000
  C   C99       1.0  0.26424  0.41230  0.29792  1.0000
  C   C100      1.0  0.28787  0.44737  0.36766  1.0000
  H   H133      1.0  0.22495  0.40555  0.41625  1.0000
  H   H134      1.0  0.23578  0.42901  0.44608  1.0000
  H   H135      1.0  0.28371  0.40257  0.38146  1.0000
  H   H136      1.0  0.26015  0.38780  0.40105  1.0000
  H   H137      1.0  0.23634  0.39880  0.33608  1.0000
  H   H138      1.0  0.23372  0.42748  0.31869  1.0000
  H   H139      1.0  0.25321  0.45664  0.35563  1.0000
  H   H140      1.0  0.26069  0.45370  0.41408  1.0000
  H   H141      1.0  0.21793  0.45509  0.38485  1.0000
  H   H142      1.0  0.20359  0.43034  0.36430  1.0000
  H   H143      1.0  0.19968  0.43968  0.42183  1.0000
  H   H144      1.0  0.28121  0.42633  0.45708  1.0000
  H   H145      1.0  0.26168  0.40499  0.47623  1.0000
  H   H146      1.0  0.28960  0.39738  0.46065  1.0000
  H   H147      1.0  0.27196  0.42872  0.28903  1.0000
  H   H148      1.0  0.25660  0.40612  0.26572  1.0000
  H   H149      1.0  0.27716  0.39972  0.30797  1.0000
  H   H150      1.0  0.29032  0.46222  0.34468  1.0000
  H   H151      1.0  0.29523  0.43289  0.34947  1.0000
  H   H152      1.0  0.29786  0.45085  0.39886  1.0000
  H   H153      1.0  0.29400  0.42359  0.70166  1.0000
  H   H154      1.0  0.17593  0.27655  0.14690  1.0000
  N   N7        1.0  0.12493  0.40932  0.14495  1.0000
  C   C101      1.0  0.14048  0.42728  0.12644  1.0000
  C   C102      1.0  0.12341  0.39119  0.10924  1.0000
  C   C103      1.0  0.13575  0.39937  0.18736  1.0000
  C   C104      1.0  0.10243  0.41991  0.15600  1.0000
  C   C105      1.0  0.14481  0.44748  0.15824  1.0000
  C   C106      1.0  0.11628  0.39920  0.06086  1.0000
  C   C107      1.0  0.12245  0.38120  0.21353  1.0000
  C   C108      1.0  0.08159  0.40458  0.15360  1.0000
  H   H155      1.0  0.15709  0.41982  0.11711  1.0000
  H   H156      1.0  0.13379  0.43487  0.09422  1.0000
  H   H157      1.0  0.11158  0.37779  0.11982  1.0000
  H   H158      1.0  0.13988  0.38237  0.10529  1.0000
  H   H159      1.0  0.15239  0.39186  0.17856  1.0000
  H   H160      1.0  0.13917  0.41250  0.21321  1.0000
  H   H161      1.0  0.10268  0.42736  0.19093  1.0000
  H   H162      1.0  0.09879  0.43432  0.13231  1.0000
  H   H163      1.0  0.15544  0.44281  0.18799  1.0000
  H   H164      1.0  0.15438  0.46043  0.13875  1.0000
  H   H165      1.0  0.12909  0.45556  0.17037  1.0000
  H   H166      1.0  0.13094  0.40587  0.04151  1.0000
  H   H167      1.0  0.10995  0.38461  0.04124  1.0000
  H   H168      1.0  0.10285  0.41218  0.06171  1.0000
  H   H169      1.0  0.10793  0.38868  0.23198  1.0000
  H   H170      1.0  0.13348  0.37351  0.24016  1.0000
  H   H171      1.0  0.11697  0.36733  0.19135  1.0000
  H   H172      1.0  0.07758  0.39999  0.11778  1.0000
  H   H173      1.0  0.06679  0.41393  0.16706  1.0000
  H   H174      1.0  0.08314  0.38894  0.17426  1.0000
  N   N8        1.0  0.24961  0.43152  0.72774  1.0000
  C   C109      1.0  0.27063  0.43519  0.75546  1.0000
  C   C110      1.0  0.22986  0.43459  0.75969  1.0000
  C   C111      1.0  0.24884  0.44947  0.69065  1.0000
  C   C112      1.0  0.25067  0.40826  0.70703  1.0000
  H   H175      1.0  0.22361  0.30625  0.97332  1.0000
  C   C113      1.0  0.23050  0.42011  0.80403  1.0000
  C   C114      1.0  0.22784  0.45024  0.66016  1.0000
  C   C115      1.0  0.22810  0.39644  0.69796  1.0000
  H   H176      1.0  0.26915  0.45087  0.77605  1.0000
  H   H177      1.0  0.27320  0.42121  0.78079  1.0000
  H   H178      1.0  0.21375  0.43099  0.74245  1.0000
  H   H179      1.0  0.22842  0.45253  0.77040  1.0000
  H   H180      1.0  0.25064  0.46649  0.70601  1.0000
  H   H181      1.0  0.26317  0.44753  0.66627  1.0000
  H   H182      1.0  0.26018  0.40860  0.67403  1.0000
  H   H183      1.0  0.26032  0.39633  0.72929  1.0000
  H   H184      1.0  0.21203  0.45205  0.67989  1.0000
  H   H185      1.0  0.25085  0.32112  0.92026  1.0000
  C   C116      1.0  0.27694  0.27196  0.01472  1.0000
  H   H186      1.0  0.23548  0.40246  0.79725  1.0000
  H   H187      1.0  0.24223  0.42721  0.82952  1.0000
  H   H188      1.0  0.21361  0.41989  0.82024  1.0000
  H   H189      1.0  0.24201  0.26639  0.18506  1.0000
  H   H190      1.0  0.22895  0.46520  0.63700  1.0000
  H   H191      1.0  0.12830  0.28529  0.11060  1.0000
  H   H192      1.0  0.21991  0.39088  0.73033  1.0000
  H   H193      1.0  0.23131  0.38087  0.67815  1.0000
  H   H194      1.0  0.21614  0.40676  0.67789  1.0000
  H   H195      1.0  0.31039  0.33856  0.89763  1.0000
  H   H196      1.0  0.29427  0.45361  0.71069  1.0000
  C   C117      1.0  0.21721  0.25694  0.06419  1.0000
  C   C118      1.0  0.23781  0.25721  0.52512  1.0000
  H   H197      1.0  0.25246  0.33686  0.00592  1.0000
  H   H198      1.0  0.30630  0.26185  0.53898  1.0000
  C   C119      1.0  0.29720  0.25907  0.57073  1.0000
  C   C120      1.0  0.29878  0.32468  0.90706  1.0000
  C   C121      1.0  0.26209  0.32148  0.01625  1.0000
  H   H199      1.0  0.27960  0.34582  0.95221  1.0000
  H   H200      1.0  0.21946  0.25591  0.52006  1.0000
  C   C122      1.0  0.11334  0.26198  0.18905  1.0000
  H   H201      1.0  0.09868  0.25277  0.20334  1.0000
  C   C123      1.0  0.15625  0.28224  0.06498  1.0000
  H   H202      1.0  0.12635  0.26218  0.07355  1.0000
  H   H203      1.0  0.24242  0.27521  0.52058  1.0000
  C   C124      1.0  0.27764  0.32806  0.05598  1.0000
  C   C125      1.0  0.28797  0.29125  0.98700  1.0000
  H   H204      1.0  0.28986  0.26341  0.03618  1.0000
  C   C126      1.0  0.25647  0.30561  0.93887  1.0000
  H   H205      1.0  0.28760  0.31353  0.06896  1.0000
  H   H206      1.0  0.30339  0.29627  0.00566  1.0000
  H   H207      1.0  0.22724  0.43549  0.63727  1.0000
  C   C127      1.0  0.28870  0.32942  0.95500  1.0000
  C   C128      1.0  0.23469  0.29415  0.95524  1.0000
  H   H208      1.0  0.28876  0.34225  0.04640  1.0000
  S   S39       1.0  0.30929  0.37835  0.71718  1.0000
  H   H209      1.0  0.30718  0.43490  0.75129  1.0000
  N   N9        1.0  0.27357  0.31144  0.97492  1.0000
  H   H210      1.0  0.29471  0.28334  0.95532  1.0000
  H   H211      1.0  0.16584  0.29522  0.08358  1.0000
  C   C129      1.0  0.23489  0.26381  0.15144  1.0000
  H   H212      1.0  0.30864  0.30880  0.90631  1.0000
  H   H213      1.0  0.10653  0.27658  0.16959  1.0000
  H   H214      1.0  0.14773  0.29118  0.03617  1.0000
  C   C130      1.0  0.13829  0.27120  0.09602  1.0000
  H   H215      1.0  0.26959  0.25924  0.99160  1.0000
  H   H216      1.0  0.12322  0.26785  0.21871  1.0000
  H   H217      1.0  0.01704  0.25828  0.97991  1.0000
  H   H218      1.0  0.16795  0.26984  0.04963  1.0000
  S   S40       1.0  0.32621  0.35541  0.62070  1.0000
  H   H219      1.0  0.21027  0.25428  0.03046  1.0000
  H   H220      1.0  0.17345  0.26820  0.23605  1.0000
  Fe  Fe19      1.0  0.33130  0.34919  0.69580  1.0000
  H   H221      1.0  0.24223  0.25270  0.56108  1.0000
  C   C131      1.0  0.17131  0.25651  0.20691  1.0000
  H   H222      1.0  0.32741  0.25282  0.65688  1.0000
  C   C132      1.0  0.27364  0.25183  0.65248  1.0000
  Fe  Fe20      1.0  0.22070  0.54170  0.37988  1.0000
  S   S41       1.0  0.25104  0.54505  0.33427  1.0000
  S   S42       1.0  0.19172  0.56534  0.36277  1.0000
  Fe  Fe21      1.0  0.27017  0.54296  0.40018  1.0000
  S   S43       1.0  0.29590  0.56900  0.42158  1.0000
  S   S44       1.0  0.23970  0.54089  0.44605  1.0000
  S   S45       1.0  0.29923  0.72565  0.45429  1.0000
  Fe  Fe22      1.0  0.15420  0.68297  0.45238  1.0000
  S   S46       1.0  0.15729  0.69304  0.37848  1.0000
  S   S47       1.0  0.16678  0.65038  0.48447  1.0000
  Fe  Fe23      1.0  0.13819  0.72984  0.48146  1.0000
  H   H223      1.0  0.30353  0.72955  0.23946  1.0000
  C   C133      1.0  0.02748  0.67329  0.10716  1.0000
  Fe  Fe24      1.0  0.12407  0.71093  0.38808  1.0000
  S   S48       1.0  0.09849  0.70537  0.33125  1.0000
  Fe  Fe25      1.0  0.17256  0.72460  0.40515  1.0000
  C   C134      1.0  0.29123  0.72345  0.21411  1.0000
  S   S49       1.0  0.11981  0.69838  0.46107  1.0000
  S   S50       1.0  0.17201  0.71339  0.47863  1.0000
  H   H224      1.0  0.04170  0.65935  0.97355  1.0000
  H   H225      1.0  0.02970  0.67218  0.14498  1.0000
  C   C135      1.0  0.07828  0.72435  0.30811  1.0000
  C   C136      1.0  0.06398  0.71667  0.27346  1.0000
  C   C137      1.0  0.04810  0.73118  0.25279  1.0000
  S   S51       1.0  0.22000  0.50387  0.37452  1.0000
  C   C138      1.0  0.11304  0.74446  0.21530  1.0000
  H   H226      1.0  0.21976  0.62230  0.40398  1.0000
  H   H227      1.0  0.06520  0.69932  0.26260  1.0000
  H   H228      1.0  0.03718  0.72494  0.22638  1.0000
  H   H229      1.0  0.23474  0.59362  0.35598  1.0000
  H   H230      1.0  0.27291  0.68767  0.36918  1.0000
  H   H231      1.0  0.24869  0.61889  0.41543  1.0000
  H   H232      1.0  0.28842  0.72189  0.14062  1.0000
  H   H233      1.0  0.11930  0.73024  0.23698  1.0000
  C   C139      1.0  0.27240  0.72958  0.43074  1.0000
  C   C140      1.0  0.31447  0.63176  0.38119  1.0000
  Fe  Fe26      1.0  0.32621  0.72000  0.40126  1.0000
  C   C141      1.0  0.22926  0.73531  0.39352  1.0000
  C   C142      1.0  0.23191  0.72568  0.43719  1.0000
  C   C143      1.0  0.25342  0.72321  0.45611  1.0000
  H   H234      1.0  0.06370  0.73279  0.11925  1.0000
  H   H235      1.0  0.27473  0.68217  0.30953  1.0000
  H   H236      1.0  0.21748  0.72023  0.45650  1.0000
  H   H237      1.0  0.25542  0.71592  0.49004  1.0000
  C   C144      1.0  0.11391  0.69677  0.58972  1.0000
  C   C145      1.0  0.30280  0.59128  0.33892  1.0000
  H   H238      1.0  0.29425  0.68570  0.11485  1.0000
  H   H239      1.0  0.29865  0.57559  0.32248  1.0000
  C   C146      1.0  0.07646  0.74678  0.32211  1.0000
  C   C147      1.0  0.18525  0.58895  0.39703  1.0000
  C   C148      1.0  0.19202  0.59015  0.44286  1.0000
  C   C149      1.0  0.18614  0.60903  0.46935  1.0000
  C   C150      1.0  0.17380  0.62699  0.45005  1.0000
  C   C151      1.0  0.16730  0.62593  0.40409  1.0000
  C   C152      1.0  0.17283  0.60688  0.37787  1.0000
  H   H240      1.0  0.20145  0.57637  0.45805  1.0000
  H   H241      1.0  0.19119  0.60968  0.50491  1.0000
  H   H242      1.0  0.15762  0.63955  0.38895  1.0000
  H   H243      1.0  0.16741  0.60598  0.34255  1.0000
  H   H244      1.0  0.31098  0.73822  0.16137  1.0000
  C   C153      1.0  0.15736  0.74381  0.60835  1.0000
  H   H245      1.0  0.08096  0.71345  0.05002  1.0000
  H   H246      1.0  0.04222  0.67751  0.02180  1.0000
  C   C154      1.0  0.01053  0.65827  0.01280  1.0000
  H   H247      1.0  0.17863  0.66668  0.69472  1.0000
  H   H248      1.0  0.09812  0.63692  0.62370  1.0000
  H   H249      1.0  0.09181  0.70395  0.10392  1.0000
  H   H250      1.0  0.30627  0.61452  0.44465  1.0000
  H   H251      1.0  0.07375  0.73838  0.96226  1.0000
  H   H252      1.0  0.25019  0.67885  0.42677  1.0000
  N   N10       1.0  0.31825  0.70241  0.15804  1.0000
  H   H253      1.0  0.20479  0.65830  0.39981  1.0000
  C   C155      1.0  0.24823  0.74197  0.36849  1.0000
  C   C156      1.0  0.09104  0.71864  0.08008  1.0000
  S   S52       1.0  0.31800  0.71373  0.32792  1.0000
  H   H254      1.0  0.09975  0.68495  0.59420  1.0000
  N   N11       1.0  0.14496  0.67110  0.62400  1.0000
  C   C157      1.0  0.15305  0.68769  0.65898  1.0000
  C   C158      1.0  0.16398  0.67759  0.70252  1.0000
  H   H255      1.0  0.25793  0.61008  0.33716  1.0000
  C   C159      1.0  0.21764  0.66279  0.37356  1.0000
  H   H256      1.0  0.11332  0.66754  0.66109  1.0000
  C   C160      1.0  0.23350  0.65568  0.47131  1.0000
  Fe  Fe27      1.0  0.25196  0.50701  0.33456  1.0000
  C   C161      1.0  0.16595  0.74650  0.65289  1.0000
  H   H257      1.0  0.27390  0.67747  0.18133  1.0000
  H   H258      1.0  0.15791  0.64462  0.58056  1.0000
  H   H259      1.0  0.11019  0.70702  0.55858  1.0000
  C   C162      1.0  0.00340  0.66615  0.09552  1.0000
  C   C163      1.0  0.16367  0.65564  0.60882  1.0000
  H   H260      1.0  0.16528  0.73216  0.58504  1.0000
  C   C164      1.0  0.30721  0.61322  0.40768  1.0000
  H   H261      1.0  0.32261  0.69467  0.23096  1.0000
  C   C165      1.0  0.18519  0.66735  0.59152  1.0000
  C   C166      1.0  0.11589  0.63947  0.61338  1.0000
  N   N12       1.0  0.23970  0.65120  0.38384  1.0000
  C   C167      1.0  0.26339  0.68092  0.33979  1.0000
  H   H262      1.0  0.13482  0.67334  0.55223  1.0000
  H   H263      1.0  0.17023  0.69164  0.72384  1.0000
  C   C168      1.0  0.13644  0.68422  0.58289  1.0000
  H   H264      1.0  0.31201  0.60807  0.27566  1.0000
  C   C169      1.0  0.32242  0.71790  0.07473  1.0000
  H   H265      1.0  0.11436  0.70871  0.61868  1.0000
  H   H266      1.0  0.22988  0.63754  0.47657  1.0000
  C   C170      1.0  0.10034  0.73483  0.17389  1.0000
  C   C171      1.0  0.31672  0.62984  0.33356  1.0000
  H   H267      1.0  0.22997  0.61654  0.31725  1.0000
  H   H268      1.0  0.20201  0.63963  0.32502  1.0000
  C   C172      1.0  0.23998  0.61107  0.34718  1.0000
  H   H269      1.0  0.19690  0.65435  0.57792  1.0000
  H   H270      1.0  0.19404  0.67613  0.61942  1.0000
  H   H271      1.0  0.18177  0.67929  0.56290  1.0000
  H   H272      1.0  0.12499  0.62308  0.61546  1.0000
  H   H273      1.0  0.11536  0.64478  0.57691  1.0000
  C   C173      1.0  0.31044  0.60970  0.31248  1.0000
  S   S53       1.0  0.13982  0.74348  0.40894  1.0000
  H   H274      1.0  0.26540  0.65334  0.43594  1.0000
  H   H275      1.0  0.01664  0.64200  0.02767  1.0000
  H   H276      1.0  0.16537  0.69943  0.64332  1.0000
  C   C174      1.0  0.30574  0.68165  0.14379  1.0000
  H   H277      1.0  0.25195  0.64953  0.31346  1.0000
  H   H278      1.0  0.27289  0.64676  0.35567  1.0000
  H   H279      1.0  0.19128  0.66757  0.32334  1.0000
  H   H280      1.0  0.13904  0.69863  0.67110  1.0000
  H   H281      1.0  0.14876  0.69715  0.57189  1.0000
  C   C175      1.0  0.25711  0.65598  0.34737  1.0000
  C   C176      1.0  0.23664  0.62601  0.38980  1.0000
  H   H282      1.0  0.24859  0.69177  0.33255  1.0000
  C   C177      1.0  0.20696  0.65752  0.32701  1.0000
  H   H283      1.0  0.21786  0.66225  0.29766  1.0000
  H   H284      1.0  0.13341  0.64699  0.67475  1.0000
  H   H285      1.0  0.10812  0.72264  0.06747  1.0000
  C   C178      1.0  0.30223  0.72184  0.16627  1.0000
  H   H286      1.0  0.29823  0.66986  0.21532  1.0000
  H   H287      1.0  0.28390  0.70748  0.22647  1.0000
  C   C179      1.0  0.30162  0.59281  0.38674  1.0000
  C   C180      1.0  0.07946  0.73900  0.10289  1.0000
  H   H288      1.0  0.21935  0.68142  0.37566  1.0000
  C   C181      1.0  0.26977  0.73894  0.38686  1.0000
  H   H289      1.0  0.31881  0.64731  0.39777  1.0000
  C   C182      1.0  0.03132  0.67104  0.99447  1.0000
  H   H290      1.0  0.15172  0.66827  0.72406  1.0000
  H   H291      1.0  0.02659  0.68530  0.97153  1.0000
  H   H292      1.0  0.31130  0.70522  0.05920  1.0000
  H   H293      1.0  0.16855  0.64368  0.63675  1.0000
  H   H294      1.0  0.24250  0.66147  0.50228  1.0000
  C   C183      1.0  0.24832  0.66027  0.42858  1.0000
  H   H295      1.0  0.21750  0.66533  0.46986  1.0000
  S   S54       1.0  0.01010  0.73110  0.13715  1.0000
  H   H296      1.0  0.11161  0.72161  0.15952  1.0000
  C   C184      1.0  0.12673  0.65696  0.64526  1.0000
  H   H297      1.0  0.18041  0.73672  0.66375  1.0000
  H   H298      1.0  0.01150  0.70318  0.03933  1.0000
  H   H299      1.0  0.03995  0.66155  0.09193  1.0000
  H   H300      1.0  0.28954  0.65180  0.17195  1.0000
  C   C185      1.0  0.29101  0.66994  0.18046  1.0000
  H   H301      1.0  0.03127  0.69086  0.09702  1.0000
  S   S55       1.0  0.27442  0.50513  0.39673  1.0000
  H   H302      1.0  0.28429  0.74436  0.36750  1.0000
  H   H303      1.0  0.31304  0.73386  0.08026  1.0000
  H   H304      1.0  0.20873  0.73081  0.54452  1.0000
  H   H305      1.0  0.08546  0.72572  0.18776  1.0000
  S   S56       1.0  0.20256  0.73975  0.36958  1.0000
  H   H306      1.0  0.31723  0.66873  0.12895  1.0000
  Fe  Fe28      1.0  0.24229  0.50320  0.43693  1.0000
  H   H307      1.0  0.27751  0.73621  0.21296  1.0000
  S   S57       1.0  0.03525  0.74493  0.02067  1.0000
  S   S58       1.0  0.32855  0.65171  0.29989  1.0000
  H   H308      1.0  0.00284  0.64793  0.10445  1.0000
  H   H309      1.0  0.00088  0.65349  0.98175  1.0000
  H   H310      1.0  0.12777  0.74898  0.11402  1.0000
  H   H311      1.0  0.24628  0.74953  0.33478  1.0000
  C   C186      1.0  0.21185  0.74902  0.54973  1.0000
  C   C187      1.0  0.33268  0.69824  0.19974  1.0000
  H   H312      1.0  0.07371  0.75008  0.07473  1.0000
  Fe  Fe29      1.0  0.23253  0.97690  0.90827  1.0000
  S   S59       1.0  0.26297  0.97559  0.95378  1.0000
  S   S60       1.0  0.20462  0.95254  0.92650  1.0000
  Fe  Fe30      1.0  0.28217  0.97541  0.88745  1.0000
  S   S61       1.0  0.30947  0.95068  0.86576  1.0000
  S   S62       1.0  0.25172  0.97523  0.84232  1.0000
  S   S63       1.0  0.30865  0.77700  0.87207  1.0000
  Fe  Fe31      1.0  0.18276  0.80176  0.88610  1.0000
  S   S64       1.0  0.19000  0.81082  0.81286  1.0000
  S   S65       1.0  0.20948  0.79744  0.94022  1.0000
  Fe  Fe32      1.0  0.13197  0.80832  0.87534  1.0000
  S   S66       1.0  0.13562  0.81810  0.80032  1.0000
  S   S67       1.0  0.09959  0.81437  0.91618  1.0000
  Fe  Fe33      1.0  0.16031  0.78918  0.79616  1.0000
  H   H313      1.0  0.11461  0.78183  0.61381  1.0000
  Fe  Fe34      1.0  0.16509  0.83882  0.82295  1.0000
  S   S68       1.0  0.17290  0.87399  0.79570  1.0000
  S   S69       1.0  0.15473  0.77797  0.87002  1.0000
  S   S70       1.0  0.15977  0.83117  0.89733  1.0000
  N   N13       1.0  0.19665  0.78795  0.52177  1.0000
  N   N14       1.0  0.11399  0.89533  0.89422  1.0000
  C   C188      1.0  0.15600  0.76169  0.68373  1.0000
  C   C189      1.0  0.11203  0.77185  0.06680  1.0000
  C   C190      1.0  0.08274  0.79461  0.94666  1.0000
  C   C191      1.0  0.08597  0.77132  0.94306  1.0000
  H   H314      1.0  0.30972  0.90480  0.00774  1.0000
  Fe  Fe35      1.0  0.00612  0.76236  0.17878  1.0000
  C   C192      1.0  0.05070  0.78773  0.99789  1.0000
  C   C193      1.0  0.06514  0.80269  0.97451  1.0000
  H   H315      1.0  0.13055  0.95156  0.87694  1.0000
  H   H316      1.0  0.26643  0.97162  0.68395  1.0000
  H   H317      1.0  0.03706  0.79423  0.01862  1.0000
  H   H318      1.0  0.06247  0.82065  0.97750  1.0000
  H   H319      1.0  0.14427  0.89029  0.93367  1.0000
  H   H320      1.0  0.01891  0.85440  0.28927  1.0000
  C   C194      1.0  0.06052  0.76132  0.30143  1.0000
  C   C195      1.0  0.10933  0.87812  0.81391  1.0000
  C   C196      1.0  0.04629  0.75360  0.26666  1.0000
  N   N15       1.0  0.29403  0.98776  0.71890  1.0000
  S   S71       1.0  0.02692  0.77255  0.24037  1.0000
  C   C197      1.0  0.28113  0.78241  0.89162  1.0000
  C   C198      1.0  0.26307  0.77961  0.86157  1.0000
  C   C199      1.0  0.24100  0.78427  0.87603  1.0000
  C   C200      1.0  0.23686  0.79134  0.92093  1.0000
  C   C201      1.0  0.25489  0.79395  0.95110  1.0000
  C   C202      1.0  0.27697  0.78966  0.93640  1.0000
  H   H321      1.0  0.32273  0.93977  0.70752  1.0000
  H   H322      1.0  0.22719  0.78198  0.85268  1.0000
  H   H323      1.0  0.20112  0.75742  0.48254  1.0000
  H   H324      1.0  0.29068  0.79162  0.95994  1.0000
  H   H325      1.0  0.05925  0.77863  0.31244  1.0000
  C   C203      1.0  0.17946  0.79737  0.48858  1.0000
  C   C204      1.0  0.31304  0.97521  0.69605  1.0000
  C   C205      1.0  0.19625  0.76268  0.51773  1.0000
  H   H326      1.0  0.29865  0.93799  0.96035  1.0000
  C   C206      1.0  0.05352  0.76446  0.99320  1.0000
  C   C207      1.0  0.19792  0.93016  0.88955  1.0000
  C   C208      1.0  0.18981  0.90996  0.90852  1.0000
  C   C209      1.0  0.18322  0.89222  0.88006  1.0000
  C   C210      1.0  0.18369  0.89489  0.83233  1.0000
  C   C211      1.0  0.19197  0.91502  0.81333  1.0000
  C   C212      1.0  0.19938  0.93248  0.84181  1.0000
  H   H327      1.0  0.18875  0.90801  0.94542  1.0000
  H   H328      1.0  0.17729  0.87669  0.89513  1.0000
  H   H329      1.0  0.19242  0.91724  0.77644  1.0000
  H   H330      1.0  0.20542  0.94805  0.82684  1.0000
  H   H331      1.0  0.08163  0.86383  0.91935  1.0000
  H   H332      1.0  0.12114  0.85480  0.94894  1.0000
  H   H333      1.0  0.27655  0.83942  0.95216  1.0000
  C   C213      1.0  0.07366  0.87955  0.90676  1.0000
  H   H334      1.0  0.26909  0.84874  0.83109  1.0000
  H   H335      1.0  0.12978  0.78636  0.69259  1.0000
  H   H336      1.0  0.22634  0.78787  0.47866  1.0000
  C   C214      1.0  0.12898  0.77190  0.62460  1.0000
  H   H337      1.0  0.13894  0.93595  0.92635  1.0000
  H   H338      1.0  0.05756  0.79851  0.14932  1.0000
  H   H339      1.0  0.30154  0.84241  0.12022  1.0000
  C   C215      1.0  0.12584  0.89153  0.93933  1.0000
  H   H340      1.0  0.30602  0.83189  0.84583  1.0000
  H   H341      1.0  0.11107  0.85965  0.87733  1.0000
  H   H342      1.0  0.23256  0.84229  0.82875  1.0000
  H   H343      1.0  0.10934  0.94162  0.91574  1.0000
  H   H344      1.0  0.22793  0.87260  0.83281  1.0000
  H   H345      1.0  0.12320  0.90605  0.96259  1.0000
  C   C216      1.0  0.25565  0.90415  0.91035  1.0000
  C   C217      1.0  0.26668  0.88497  0.88312  1.0000
  H   H346      1.0  0.08825  0.77834  0.18654  1.0000
  C   C218      1.0  0.27380  0.84529  0.86740  1.0000
  H   H347      1.0  0.26861  0.82766  0.87478  1.0000
  H   H348      1.0  0.28326  0.93865  0.71856  1.0000
  C   C219      1.0  0.18260  0.79099  0.43766  1.0000
  C   C220      1.0  0.12568  0.93727  0.89975  1.0000
  H   H349      1.0  0.08736  0.75290  0.34874  1.0000
  H   H350      1.0  0.00148  0.85488  0.12753  1.0000
  H   H351      1.0  0.19967  0.78713  0.59665  1.0000
  H   H352      1.0  0.20809  0.85295  0.85536  1.0000
  C   C221      1.0  0.11817  0.87546  0.86337  1.0000
  H   H353      1.0  0.11542  0.92029  0.83907  1.0000
  C   C222      1.0  0.21943  0.79705  0.50887  1.0000
  H   H354      1.0  0.09187  0.88457  0.81278  1.0000
  C   C223      1.0  0.18769  0.82007  0.57836  1.0000
  H   H355      1.0  0.14198  0.91169  0.85980  1.0000
  C   C224      1.0  0.23773  0.79654  0.54649  1.0000
  H   H356      1.0  0.22730  0.86763  0.91993  1.0000
  C   C225      1.0  0.29966  0.84567  0.86803  1.0000
  H   H357      1.0  0.06008  0.88363  0.93162  1.0000
  H   H358      1.0  0.28497  0.88841  0.88388  1.0000
  H   H359      1.0  0.30706  0.96736  0.66383  1.0000
  S   S72       1.0  0.12740  0.75388  0.53814  1.0000
  H   H360      1.0  0.10165  0.87240  0.98137  1.0000
  H   H361      1.0  0.21786  0.81496  0.49739  1.0000
  C   C226      1.0  0.27268  0.97426  0.71925  1.0000
  H   H362      1.0  0.24628  0.87809  0.98620  1.0000
  S   S73       1.0  0.16676  0.76305  0.74025  1.0000
  H   H363      1.0  0.20322  0.82897  0.56820  1.0000
  C   C227      1.0  0.07884  0.76923  0.15972  1.0000
  H   H364      1.0  0.29866  0.98030  0.79172  1.0000
  C   C228      1.0  0.18905  0.79454  0.56932  1.0000
  H   H365      1.0  0.12041  0.88926  0.79315  1.0000
  H   H366      1.0  0.08255  0.91017  0.87228  1.0000
  C   C229      1.0  0.11898  0.87073  0.96784  1.0000
  H   H367      1.0  0.13012  0.86937  0.99822  1.0000
  H   H368      1.0  0.24129  0.81387  0.55835  1.0000
  H   H369      1.0  0.00516  0.83985  0.33631  1.0000
  H   H370      1.0  0.25370  0.79015  0.53142  1.0000
  H   H371      1.0  0.28646  0.86744  0.95300  1.0000
  H   H372      1.0  0.12778  0.75455  0.20476  1.0000
  H   H373      1.0  0.09941  0.76487  0.92173  1.0000
  H   H374      1.0  0.25986  0.92050  0.89359  1.0000
  C   C230      1.0  0.13760  0.77460  0.66921  1.0000
  C   C231      1.0  0.11415  0.76191  0.11605  1.0000
  H   H375      1.0  0.26224  0.90491  0.94575  1.0000
  C   C232      1.0  0.06904  0.78785  0.12847  1.0000
  N   N16       1.0  0.26199  0.86129  0.89959  1.0000
  H   H376      1.0  0.10958  0.86145  0.79699  1.0000
  H   H377      1.0  0.19971  0.79454  0.42459  1.0000
  S   S74       1.0  0.00761  0.78575  0.11759  1.0000
  H   H378      1.0  0.17849  0.77309  0.43171  1.0000
  H   H379      1.0  0.06504  0.87617  0.87385  1.0000
  C   C233      1.0  0.00572  0.84199  0.29840  1.0000
  H   H380      1.0  0.23715  0.90304  0.91080  1.0000
  H   H381      1.0  0.28070  0.95000  0.77593  1.0000
  H   H382      1.0  0.30638  0.86162  0.85371  1.0000
  H   H383      1.0  0.08684  0.91089  0.93248  1.0000
  H   H384      1.0  0.08233  0.79916  0.11515  1.0000
  H   H385      1.0  0.06444  0.76108  0.17760  1.0000
  C   C234      1.0  0.25504  0.86164  0.98823  1.0000
  H   H386      1.0  0.12329  0.78662  0.06341  1.0000
  H   H387      1.0  0.26482  0.86128  0.02058  1.0000
  H   H388      1.0  0.24233  0.84808  0.99106  1.0000
  H   H389      1.0  0.25647  0.94374  0.74351  1.0000
  C   C235      1.0  0.22626  0.85614  0.85070  1.0000
  H   H390      1.0  0.31919  0.95449  0.76022  1.0000
  C   C236      1.0  0.30898  0.92486  0.94561  1.0000
  C   C237      1.0  0.12454  0.91560  0.87107  1.0000
  C   C238      1.0  0.08933  0.90015  0.90173  1.0000
  C   C239      1.0  0.31441  0.84784  0.09488  1.0000
  C   C240      1.0  0.31533  0.90603  0.97246  1.0000
  H   H391      1.0  0.18511  0.82275  0.61574  1.0000
  H   H392      1.0  0.17926  0.81610  0.48912  1.0000
  H   H393      1.0  0.13647  0.87191  0.86081  1.0000
  H   H394      1.0  0.30664  0.84258  0.90271  1.0000
  H   H395      1.0  0.25176  0.79935  0.98589  1.0000
  H   H396      1.0  0.23420  0.78578  0.57670  1.0000
  C   C241      1.0  0.23730  0.85595  0.89837  1.0000
  H   H397      1.0  0.23437  0.83889  0.91331  1.0000
  C   C242      1.0  0.27111  0.85731  0.94745  1.0000
  H   H398      1.0  0.26164  0.88717  0.84665  1.0000
  H   H399      1.0  0.26616  0.77393  0.82694  1.0000
  H   H400      1.0  0.10184  0.75451  0.23778  1.0000
  H   H401      1.0  0.17209  0.78763  0.57663  1.0000
  H   H402      1.0  0.17886  0.75650  0.52331  1.0000
  C   C243      1.0  0.31643  0.92688  0.90019  1.0000
  H   H403      1.0  0.16219  0.79203  0.49880  1.0000
  H   H404      1.0  0.05886  0.78117  0.10007  1.0000
  C   C244      1.0  0.07135  0.75634  0.96604  1.0000
  H   H405      1.0  0.09516  0.77787  0.05682  1.0000
  H   H406      1.0  0.17068  0.80104  0.41641  1.0000
  H   H407      1.0  0.17304  0.82791  0.56089  1.0000
  H   H408      1.0  0.30753  0.84331  0.06083  1.0000
  H   H409      1.0  0.32831  0.85101  0.23487  1.0000
  C   C245      1.0  0.27379  0.95043  0.74077  1.0000
  H   H410      1.0  0.31587  0.86640  0.09490  1.0000
  C   C246      1.0  0.32995  0.90969  0.88168  1.0000
  H   H411      1.0  0.32631  0.98726  0.68491  1.0000
  H   H412      1.0  0.12070  0.77542  0.13851  1.0000
  H   H413      1.0  0.26993  0.99747  0.63212  1.0000
  C   C247      1.0  0.32491  0.95633  0.72430  1.0000
  Fe  Fe36      1.0  0.00957  0.75433  0.07556  1.0000
  C   C248      1.0  0.29925  0.99464  0.76740  1.0000
  H   H414      1.0  0.32755  0.78125  0.17288  1.0000
  C   C249      1.0  0.32891  0.88889  0.95401  1.0000
  H   H415      1.0  0.01095  0.82538  0.28495  1.0000
  H   H416      1.0  0.31974  0.83292  0.18995  1.0000
  H   H417      1.0  0.25907  0.98376  0.73731  1.0000
  H   H418      1.0  0.29997  0.99963  0.62200  1.0000
  N   N17       1.0  0.09337  0.75158  0.13711  1.0000
  H   H419      1.0  0.00980  0.84430  0.20621  1.0000
  H   H420      1.0  0.11827  0.75966  0.04094  1.0000
  C   C250      1.0  0.13867  0.75637  0.59409  1.0000
  H   H421      1.0  0.33253  0.81909  0.12139  1.0000
  H   H422      1.0  0.20868  0.75217  0.58658  1.0000
  H   H423      1.0  0.22974  0.75171  0.54081  1.0000
  H   H424      1.0  0.35738  0.11468  0.63200  1.0000
  N   N18       1.0  0.59131  0.25004  0.65002  1.0000
  H   H425      1.0  0.58108  0.21242  0.59709  1.0000
  H   H426      1.0  0.38087  0.05680  0.66218  1.0000
  S   S75       1.0  0.65095  0.24219  0.89249  1.0000
  H   H427      1.0  0.36282  0.15347  0.69701  1.0000
  Fe  Fe37      1.0  0.63189  0.20989  0.88767  1.0000
  S   S76       1.0  0.59866  0.20400  0.85123  1.0000
  C   C251      1.0  0.38324  0.11656  0.57961  1.0000
  S   S77       1.0  0.63566  0.20109  0.96295  1.0000
  H   H428      1.0  0.59932  0.22461  0.02368  1.0000
  S   S78       1.0  0.50841  0.23015  0.65340  1.0000
  H   H429      1.0  0.38906  0.15437  0.72761  1.0000
  Fe  Fe38      1.0  0.47060  0.23345  0.65458  1.0000
  S   S79       1.0  0.44471  0.20723  0.67497  1.0000
  C   C252      1.0  0.38126  0.25079  0.60419  1.0000
  H   H430      1.0  0.36388  0.14605  0.75620  1.0000
  H   H431      1.0  0.40645  0.08664  0.63658  1.0000
  S   S80       1.0  0.36861  0.17226  0.54168  1.0000
  C   C253      1.0  0.42313  0.19953  0.63691  1.0000
  C   C254      1.0  0.42656  0.19892  0.58943  1.0000
  C   C255      1.0  0.40959  0.19083  0.56056  1.0000
  C   C256      1.0  0.38886  0.18388  0.57872  1.0000
  C   C257      1.0  0.38505  0.18568  0.62592  1.0000
  C   C258      1.0  0.40229  0.19296  0.65498  1.0000
  H   H432      1.0  0.44258  0.20388  0.57512  1.0000
  H   H433      1.0  0.41265  0.18967  0.52402  1.0000
  H   H434      1.0  0.36893  0.18122  0.64005  1.0000
  H   H435      1.0  0.39946  0.19360  0.69164  1.0000
  C   C259      1.0  0.58148  0.22344  0.82075  1.0000
  C   C260      1.0  0.56236  0.21545  0.79819  1.0000
  C   C261      1.0  0.54793  0.23030  0.77426  1.0000
  H   H436      1.0  0.44213  0.13648  0.69746  1.0000
  H   H437      1.0  0.37135  0.14057  0.62799  1.0000
  H   H438      1.0  0.39096  0.24776  0.74882  1.0000
  H   H439      1.0  0.55868  0.19763  0.79924  1.0000
  H   H440      1.0  0.36052  0.11198  0.71234  1.0000
  H   H441      1.0  0.63600  0.22757  0.08081  1.0000
  C   C262      1.0  0.37325  0.14496  0.72325  1.0000
  C   C263      1.0  0.56753  0.21688  0.62155  1.0000
  H   H442      1.0  0.38648  0.09835  0.57479  1.0000
  C   C264      1.0  0.37734  0.11993  0.71196  1.0000
  H   H443      1.0  0.39841  0.12642  0.57079  1.0000
  H   H444      1.0  0.58610  0.23343  0.71590  1.0000
  H   H445      1.0  0.57048  0.22681  0.03917  1.0000
  H   H446      1.0  0.60245  0.21752  0.67690  1.0000
  H   H447      1.0  0.36984  0.22515  0.67987  1.0000
  C   C265      1.0  0.33835  0.23769  0.65461  1.0000
  H   H448      1.0  0.57898  0.19268  0.99620  1.0000
  C   C266      1.0  0.63339  0.24414  0.14658  1.0000
  H   H449      1.0  0.53350  0.24649  0.92392  1.0000
  H   H450      1.0  0.38646  0.11220  0.74148  1.0000
  Fe  Fe39      1.0  0.33417  0.16064  0.56560  1.0000
  H   H451      1.0  0.40434  0.08511  0.69697  1.0000
  C   C267      1.0  0.39494  0.09045  0.66573  1.0000
  C   C268      1.0  0.58228  0.22836  0.00971  1.0000
  H   H452      1.0  0.53330  0.22390  0.75702  1.0000
  H   H453      1.0  0.40740  0.14667  0.65945  1.0000
  N   N19       1.0  0.38939  0.11524  0.66738  1.0000
  C   C269      1.0  0.55166  0.25054  0.92425  1.0000
  C   C270      1.0  0.42750  0.12533  0.70373  1.0000
  H   H454      1.0  0.36330  0.07600  0.69269  1.0000
  H   H455      1.0  0.59612  0.23972  0.54303  1.0000
  H   H456      1.0  0.42038  0.12366  0.63215  1.0000
  H   H457      1.0  0.38760  0.23312  0.60444  1.0000
  H   H458      1.0  0.55133  0.21379  0.60408  1.0000
  H   H459      1.0  0.62600  0.22972  0.16369  1.0000
  H   H460      1.0  0.33962  0.23163  0.61888  1.0000
  H   H461      1.0  0.43410  0.10784  0.70600  1.0000
  C   C271      1.0  0.57597  0.20891  0.97786  1.0000
  C   C272      1.0  0.59929  0.23500  0.68895  1.0000
  C   C273      1.0  0.37437  0.12212  0.62811  1.0000
  C   C274      1.0  0.37467  0.07448  0.66263  1.0000
  H   H462      1.0  0.42022  0.13031  0.73718  1.0000
  H   H463      1.0  0.37037  0.12158  0.55399  1.0000
  H   H464      1.0  0.56816  0.20541  0.65184  1.0000
  H   H465      1.0  0.36490  0.07714  0.63072  1.0000
  C   C275      1.0  0.41089  0.12836  0.66363  1.0000
  C   C276      1.0  0.36134  0.24183  0.67653  1.0000
  H   H466      1.0  0.61533  0.23162  0.60889  1.0000
  H   H467      1.0  0.55634  0.24392  0.66514  1.0000
  S   S81       1.0  0.66218  0.18960  0.86643  1.0000
  H   H468      1.0  0.55789  0.20943  0.96908  1.0000
  H   H469      1.0  0.63492  0.24537  0.68883  1.0000
  H   H470      1.0  0.56091  0.24177  0.45300  1.0000
  H   H471      1.0  0.59561  0.24212  0.92284  1.0000
  H   H472      1.0  0.58633  0.20834  0.94637  1.0000
  C   C277      1.0  0.63907  0.24285  0.09962  1.0000
  C   C278      1.0  0.56847  0.24176  0.63624  1.0000
  C   C279      1.0  0.60832  0.24902  0.61149  1.0000
  Fe  Fe40      1.0  0.65671  0.23233  0.96674  1.0000
  S   S82       1.0  0.52986  0.24529  0.52820  1.0000
  H   H473      1.0  0.40749  0.24162  0.67314  1.0000
  H   H474      1.0  0.35750  0.24737  0.71209  1.0000
  H   H475      1.0  0.61560  0.24798  0.96478  1.0000
  H   H476      1.0  0.62646  0.22842  0.73695  1.0000
  H   H477      1.0  0.36593  0.25020  0.58305  1.0000
  C   C280      1.0  0.58606  0.24650  0.81919  1.0000
  H   H478      1.0  0.56049  0.23548  0.91119  1.0000
  H   H479      1.0  0.48546  0.25156  0.48451  1.0000
  C   C281      1.0  0.62099  0.24220  0.71330  1.0000
  H   H480      1.0  0.65928  0.03285  0.68342  1.0000
  H   H481      1.0  0.54546  0.25123  0.99754  1.0000
  Fe  Fe41      1.0  0.63735  0.29165  0.28343  1.0000
  S   S83       1.0  0.63616  0.27922  0.35701  1.0000
  H   H482      1.0  0.39478  0.28333  0.57880  1.0000
  H   H483      1.0  0.52729  0.29912  0.39482  1.0000
  H   H484      1.0  0.60308  0.42808  0.28755  1.0000
  Fe  Fe42      1.0  0.65068  0.33926  0.31303  1.0000
  C   C282      1.0  0.59895  0.25359  0.95166  1.0000
  Fe  Fe43      1.0  0.61837  0.31164  0.37306  1.0000
  S   S84       1.0  0.58963  0.31844  0.42351  1.0000
  H   H485      1.0  0.50859  0.34020  0.51948  1.0000
  S   S85       1.0  0.61725  0.32308  0.29884  1.0000
  H   H486      1.0  0.56233  0.28744  0.62329  1.0000
  Fe  Fe44      1.0  0.47109  0.28303  0.63006  1.0000
  H   H487      1.0  0.49653  0.31765  0.55395  1.0000
  S   S86       1.0  0.44807  0.31109  0.60519  1.0000
  H   H488      1.0  0.48581  0.34560  0.55773  1.0000
  C   C283      1.0  0.39768  0.26251  0.72971  1.0000
  S   S87       1.0  0.50876  0.28458  0.62721  1.0000
  S   S88       1.0  0.53463  0.27277  0.74385  1.0000
  S   S89       1.0  0.36470  0.34020  0.72859  1.0000
  C   C284      1.0  0.42543  0.31992  0.64026  1.0000
  C   C285      1.0  0.42482  0.31485  0.68722  1.0000
  C   C286      1.0  0.40644  0.32186  0.71414  1.0000
  C   C287      1.0  0.38833  0.33358  0.69426  1.0000
  C   C288      1.0  0.38908  0.33891  0.64737  1.0000
  C   C289      1.0  0.40764  0.33221  0.62056  1.0000
  H   H489      1.0  0.43855  0.30567  0.70292  1.0000
  H   H490      1.0  0.40608  0.31787  0.75045  1.0000
  H   H491      1.0  0.37535  0.34810  0.63173  1.0000
  H   H492      1.0  0.40804  0.33635  0.58435  1.0000
  C   C290      1.0  0.57441  0.29748  0.45412  1.0000
  C   C291      1.0  0.56097  0.30393  0.49163  1.0000
  C   C292      1.0  0.54759  0.28809  0.51523  1.0000
  C   C293      1.0  0.54728  0.26563  0.50115  1.0000
  H   H493      1.0  0.41034  0.27092  0.66317  1.0000
  C   C294      1.0  0.57454  0.27492  0.44078  1.0000
  H   H494      1.0  0.56083  0.32132  0.50235  1.0000
  H   H495      1.0  0.53732  0.29334  0.54388  1.0000
  C   C295      1.0  0.57136  0.26143  0.79613  1.0000
  H   H496      1.0  0.49947  0.29097  0.38073  1.0000
  H   H497      1.0  0.43175  0.32358  0.46078  1.0000
  H   H498      1.0  0.58606  0.28564  0.92177  1.0000
  C   C296      1.0  0.64689  0.28238  0.14917  1.0000
  H   H499      1.0  0.57707  0.30760  0.65558  1.0000
  H   H500      1.0  0.61757  0.41012  0.24858  1.0000
  H   H501      1.0  0.55363  0.26464  0.89921  1.0000
  H   H502      1.0  0.42632  0.30323  0.41771  1.0000
  H   H503      1.0  0.46705  0.28909  0.52147  1.0000
  H   H504      1.0  0.34096  0.27476  0.60040  1.0000
  H   H505      1.0  0.59080  0.29568  0.60725  1.0000
  C   C297      1.0  0.34938  0.28875  0.61772  1.0000
  S   S90       1.0  0.63006  0.26446  0.23070  1.0000
  H   H506      1.0  0.61237  0.27617  0.89904  1.0000
  H   H507      1.0  0.60576  0.28023  0.67872  1.0000
  C   C298      1.0  0.65230  0.28119  0.10211  1.0000
  C   C299      1.0  0.49283  0.33302  0.53346  1.0000
  H   H508      1.0  0.50264  0.32860  0.42281  1.0000
  H   H509      1.0  0.64992  0.29769  0.16791  1.0000
  C   C300      1.0  0.56095  0.25912  0.46407  1.0000
  C   C301      1.0  0.63733  0.26387  0.17161  1.0000
  C   C302      1.0  0.50252  0.31237  0.44234  1.0000
  H   H510      1.0  0.58537  0.26668  0.56131  1.0000
  N   N20       1.0  0.37656  0.25842  0.65255  1.0000
  C   C303      1.0  0.46200  0.30901  0.42850  1.0000
  H   H511      1.0  0.38777  0.27782  0.73802  1.0000
  H   H512      1.0  0.38065  0.29427  0.65047  1.0000
  H   H513      1.0  0.51440  0.27788  0.42872  1.0000
  H   H514      1.0  0.49626  0.28543  0.51187  1.0000
  C   C304      1.0  0.60217  0.27738  0.93089  1.0000
  H   H515      1.0  0.47393  0.34460  0.47479  1.0000
  H   H516      1.0  0.33593  0.29890  0.63427  1.0000
  C   C305      1.0  0.64852  0.26143  0.07713  1.0000
  C   C306      1.0  0.57921  0.29174  0.63603  1.0000
  H   H517      1.0  0.35695  0.30009  0.59144  1.0000
  C   C307      1.0  0.47544  0.32876  0.49545  1.0000
  S   S91       1.0  0.47062  0.26475  0.69771  1.0000
  H   H518      1.0  0.46299  0.32476  0.40746  1.0000
  C   C308      1.0  0.43766  0.30728  0.44659  1.0000
  H   H519      1.0  0.61174  0.28823  0.95453  1.0000
  C   C309      1.0  0.58914  0.27364  0.66841  1.0000
  H   H520      1.0  0.55604  0.27665  0.97331  1.0000
  H   H521      1.0  0.51586  0.31375  0.46850  1.0000
  H   H522      1.0  0.45910  0.32690  0.51366  1.0000
  C   C310      1.0  0.36692  0.28196  0.65444  1.0000
  N   N21       1.0  0.47997  0.30880  0.46481  1.0000
  N   N22       1.0  0.59591  0.39062  0.35408  1.0000
  C   C311      1.0  0.58352  0.36894  0.36358  1.0000
  C   C312      1.0  0.61785  0.38901  0.37947  1.0000
  C   C313      1.0  0.60063  0.39183  0.30318  1.0000
  C   C314      1.0  0.58139  0.41013  0.36934  1.0000
  C   C315      1.0  0.56172  0.36532  0.33643  1.0000
  C   C316      1.0  0.61604  0.38482  0.43169  1.0000
  C   C317      1.0  0.61351  0.41258  0.28547  1.0000
  C   C318      1.0  0.59351  0.43232  0.38116  1.0000
  H   H523      1.0  0.59460  0.35417  0.35687  1.0000
  H   H524      1.0  0.57873  0.36750  0.40046  1.0000
  H   H525      1.0  0.62823  0.40420  0.37454  1.0000
  H   H526      1.0  0.62826  0.37505  0.36528  1.0000
  H   H527      1.0  0.61023  0.37659  0.29211  1.0000
  H   H528      1.0  0.58482  0.39190  0.28316  1.0000
  H   H529      1.0  0.56850  0.41416  0.34288  1.0000
  H   H530      1.0  0.57190  0.40533  0.40097  1.0000
  H   H531      1.0  0.55277  0.35063  0.35155  1.0000
  H   H532      1.0  0.55022  0.38004  0.33810  1.0000
  H   H533      1.0  0.56533  0.36096  0.30016  1.0000
  H   H534      1.0  0.60357  0.39605  0.44826  1.0000
  H   H535      1.0  0.61185  0.36696  0.43940  1.0000
  H   H536      1.0  0.63261  0.38795  0.44763  1.0000
  H   H537      1.0  0.46438  0.29536  0.40333  1.0000
  H   H538      1.0  0.62976  0.41492  0.30287  1.0000
  H   H539      1.0  0.61808  0.25718  0.73510  1.0000
  H   H540      1.0  0.58246  0.44678  0.37171  1.0000
  H   H541      1.0  0.60963  0.43515  0.36331  1.0000
  H   H542      1.0  0.59598  0.43361  0.41880  1.0000
  H   H543      1.0  0.45733  0.25987  0.47583  1.0000
  H   H544      1.0  0.60635  0.26530  0.03576  1.0000
  H   H545      1.0  0.57490  0.27928  0.79548  1.0000
  H   H546      1.0  0.57862  0.27361  0.70006  1.0000
  C   C319      1.0  0.39845  0.26503  0.57700  1.0000
  H   H547      1.0  0.65945  0.29571  0.08488  1.0000
  C   C320      1.0  0.39873  0.25808  0.67765  1.0000
  H   H548      1.0  0.35935  0.28534  0.68874  1.0000
  H   H549      1.0  0.43564  0.29394  0.47313  1.0000
  C   C321      1.0  0.55826  0.25799  0.97320  1.0000
  H   H550      1.0  0.60087  0.25279  0.83581  1.0000
  Fe  Fe45      1.0  0.50839  0.26293  0.69118  1.0000
  H   H551      1.0  0.58720  0.28573  0.01417  1.0000
  S   S92       1.0  0.66114  0.37388  0.28726  1.0000
  H   H552      1.0  0.57910  0.28177  0.09277  1.0000
  S   S93       1.0  0.65042  0.33006  0.38751  1.0000
  H   H553      1.0  0.55649  0.26738  0.06570  1.0000
  C   C322      1.0  0.47489  0.26515  0.46921  1.0000
  C   C323      1.0  0.57483  0.26692  0.07163  1.0000
  C   C324      1.0  0.47993  0.28758  0.49384  1.0000
  C   C325      1.0  0.58842  0.26795  0.02647  1.0000
  H   H554      1.0  0.62289  0.26001  0.61902  1.0000
  H   H555      1.0  0.58476  0.26970  0.41195  1.0000
  H   H556      1.0  0.47838  0.26491  0.43202  1.0000
  H   H557      1.0  0.41499  0.26520  0.74246  1.0000
  S   S94       1.0  0.65467  0.26143  0.01751  1.0000
  C   C326      1.0  0.51094  0.29384  0.40982  1.0000
  H   H558      1.0  0.41581  0.26172  0.58909  1.0000
  H   H559      1.0  0.39801  0.26017  0.54031  1.0000
  H   H560      1.0  0.61363  0.26361  0.54332  1.0000
  C   C327      1.0  0.55228  0.25340  0.77341  1.0000
  C   C328      1.0  0.59992  0.25516  0.56270  1.0000
  N   N23       1.0  0.58159  0.25182  0.98929  1.0000
  Fe  Fe46      1.0  0.50715  0.25207  0.58972  1.0000
  S   S95       1.0  0.46939  0.25185  0.58737  1.0000
  H   H561      1.0  0.57951  0.25187  0.09252  1.0000
  H   H562      1.0  0.56115  0.25177  0.60774  1.0000
  H   H563      1.0  0.54158  0.72484  0.51760  1.0000
  S   S96       1.0  0.34637  0.68828  0.40909  1.0000
  H   H564      1.0  0.63692  0.62458  0.82409  1.0000
  Fe  Fe47      1.0  0.34928  0.73314  0.31117  1.0000
  H   H565      1.0  0.55063  0.73980  0.34026  1.0000
  C   C329      1.0  0.39737  0.74961  0.68043  1.0000
  Fe  Fe48      1.0  0.37592  0.70944  0.38794  1.0000
  S   S97       1.0  0.40781  0.70038  0.42773  1.0000
  S   S98       1.0  0.47940  0.74331  0.75639  1.0000
  S   S99       1.0  0.37142  0.70220  0.31231  1.0000
  C   C330      1.0  0.64606  0.73582  0.65403  1.0000
  Fe  Fe49      1.0  0.53647  0.73240  0.62764  1.0000
  C   C331      1.0  0.64389  0.65612  0.86006  1.0000
  S   S100      1.0  0.56186  0.70608  0.60495  1.0000
  H   H566      1.0  0.42047  0.74262  0.73823  1.0000
  S   S101      1.0  0.49887  0.72815  0.63143  1.0000
  H   H567      1.0  0.34544  0.72244  0.13016  1.0000
  S   S102      1.0  0.64502  0.67658  0.72905  1.0000
  C   C332      1.0  0.58518  0.69864  0.63960  1.0000
  C   C333      1.0  0.60290  0.68606  0.62046  1.0000
  C   C334      1.0  0.62144  0.67938  0.64731  1.0000
  C   C335      1.0  0.62228  0.68500  0.69376  1.0000
  C   C336      1.0  0.60462  0.69766  0.71288  1.0000
  C   C337      1.0  0.58623  0.70459  0.68588  1.0000
  H   H568      1.0  0.60221  0.68129  0.58477  1.0000
  H   H569      1.0  0.63486  0.66955  0.63220  1.0000
  H   H570      1.0  0.60510  0.70204  0.74879  1.0000
  H   H571      1.0  0.57263  0.71406  0.70116  1.0000
  C   C338      1.0  0.42388  0.71950  0.46032  1.0000
  C   C339      1.0  0.63106  0.63391  0.85476  1.0000
  H   H572      1.0  0.63507  0.66625  0.88672  1.0000
  H   H573      1.0  0.34210  0.71374  0.20837  1.0000
  C   C340      1.0  0.45372  0.72562  0.51649  1.0000
  C   C341      1.0  0.43974  0.71100  0.49185  1.0000
  C   C342      1.0  0.40402  0.75075  0.73148  1.0000
  C   C343      1.0  0.45228  0.74891  0.50911  1.0000
  H   H574      1.0  0.46585  0.71880  0.54048  1.0000
  H   H575      1.0  0.44131  0.69299  0.49699  1.0000
  H   H576      1.0  0.37910  0.57257  0.43595  1.0000
  C   C344      1.0  0.53299  0.74051  0.35267  1.0000
  H   H577      1.0  0.35850  0.67654  0.22914  1.0000
  H   H578      1.0  0.36190  0.64418  0.37252  1.0000
  H   H579      1.0  0.34166  0.66251  0.18839  1.0000
  Fe  Fe50      1.0  0.34030  0.68357  0.33424  1.0000
  H   H580      1.0  0.64121  0.66523  0.82699  1.0000
  H   H581      1.0  0.61307  0.63795  0.84870  1.0000
  H   H582      1.0  0.65682  0.69912  0.82875  1.0000
  H   H583      1.0  0.42167  0.71278  0.65672  1.0000
  H   H584      1.0  0.35022  0.62869  0.44534  1.0000
  N   N24       1.0  0.38061  0.61873  0.40989  1.0000
  C   C345      1.0  0.36846  0.59952  0.38733  1.0000
  C   C346      1.0  0.37960  0.63858  0.37714  1.0000
  C   C347      1.0  0.36804  0.62458  0.45331  1.0000
  C   C348      1.0  0.40431  0.61118  0.42038  1.0000
  C   C349      1.0  0.36392  0.57853  0.41756  1.0000
  C   C350      1.0  0.38923  0.63436  0.32876  1.0000
  C   C351      1.0  0.37731  0.64409  0.48181  1.0000
  C   C352      1.0  0.42217  0.62984  0.42511  1.0000
  H   H585      1.0  0.35198  0.60522  0.37374  1.0000
  H   H586      1.0  0.37790  0.59337  0.35682  1.0000
  H   H587      1.0  0.38814  0.65361  0.39058  1.0000
  S   S103      1.0  0.35596  0.74187  0.38545  1.0000
  H   H588      1.0  0.52603  0.71228  0.39677  1.0000
  H   H589      1.0  0.36760  0.60998  0.47748  1.0000
  H   H590      1.0  0.40465  0.60071  0.45232  1.0000
  H   H591      1.0  0.41066  0.60001  0.39260  1.0000
  H   H592      1.0  0.35817  0.56460  0.39539  1.0000
  H   H593      1.0  0.47147  0.72183  0.42003  1.0000
  C   C353      1.0  0.40010  0.73250  0.58192  1.0000
  H   H594      1.0  0.37750  0.62420  0.30805  1.0000
  H   H595      1.0  0.39108  0.65077  0.31049  1.0000
  H   H596      1.0  0.40591  0.62606  0.32973  1.0000
  H   H597      1.0  0.39137  0.74161  0.75255  1.0000
  H   H598      1.0  0.36536  0.64770  0.51023  1.0000
  H   H599      1.0  0.66145  0.65232  0.94375  1.0000
  H   H600      1.0  0.43465  0.62441  0.45125  1.0000
  H   H601      1.0  0.41582  0.64647  0.43609  1.0000
  H   H602      1.0  0.43182  0.63186  0.39266  1.0000
  C   C354      1.0  0.53096  0.71306  0.49831  1.0000
  H   H603      1.0  0.44886  0.71370  0.63183  1.0000
  H   H604      1.0  0.39850  0.74220  0.13258  1.0000
  C   C355      1.0  0.51108  0.72489  0.47389  1.0000
  H   H605      1.0  0.39371  0.73378  0.54618  1.0000
  C   C356      1.0  0.34985  0.67878  0.19574  1.0000
  H   H606      1.0  0.60794  0.74812  0.70277  1.0000
  H   H607      1.0  0.38665  0.72440  0.60238  1.0000
  H   H608      1.0  0.54925  0.72854  0.41471  1.0000
  H   H609      1.0  0.40994  0.74960  0.42986  1.0000
  H   H610      1.0  0.63715  0.73961  0.56418  1.0000
  H   H611      1.0  0.50077  0.73317  0.50092  1.0000
  H   H612      1.0  0.50070  0.71095  0.46060  1.0000
  H   H613      1.0  0.37900  0.65998  0.46198  1.0000
  H   H614      1.0  0.52324  0.73034  0.32807  1.0000
  H   H615      1.0  0.34458  0.69466  0.10847  1.0000
  H   H616      1.0  0.63280  0.72713  0.63433  1.0000
  H   H617      1.0  0.52424  0.70099  0.52424  1.0000
  H   H618      1.0  0.35001  0.58166  0.44226  1.0000
  H   H619      1.0  0.64197  0.73186  0.69055  1.0000
  H   H620      1.0  0.39284  0.73192  0.67394  1.0000
  H   H621      1.0  0.39348  0.63940  0.49812  1.0000
  H   H622      1.0  0.66460  0.62581  0.91857  1.0000
  C   C357      1.0  0.43793  0.72142  0.65846  1.0000
  C   C358      1.0  0.42200  0.74282  0.45407  1.0000
  H   H623      1.0  0.38341  0.73939  0.21221  1.0000
  H   H624      1.0  0.44571  0.71715  0.69210  1.0000
  H   H625      1.0  0.63174  0.62308  0.88587  1.0000
  H   H626      1.0  0.33569  0.72181  0.04897  1.0000
  H   H627      1.0  0.36308  0.68243  0.16995  1.0000
  H   H628      1.0  0.41518  0.72156  0.58020  1.0000
  C   C359      1.0  0.33375  0.70906  0.11906  1.0000
  H   H629      1.0  0.54153  0.70313  0.47441  1.0000
  C   C360      1.0  0.53177  0.72995  0.40147  1.0000
  C   C361      1.0  0.43726  0.74732  0.65140  1.0000
  H   H630      1.0  0.48934  0.72137  0.36972  1.0000
  H   H631      1.0  0.46654  0.74105  0.37422  1.0000
  H   H632      1.0  0.44950  0.74007  0.83389  1.0000
  C   C362      1.0  0.48007  0.73235  0.39384  1.0000
  C   C363      1.0  0.37438  0.74897  0.18637  1.0000
  C   C364      1.0  0.38290  0.75061  0.14125  1.0000
  N   N25       1.0  0.51694  0.74156  0.43619  1.0000
  Fe  Fe51      1.0  0.50044  0.75083  0.69296  1.0000
  C   C365      1.0  0.49516  0.75018  0.41610  1.0000
  H   H633      1.0  0.44787  0.75118  0.62084  1.0000
  Fe  Fe52      1.0  0.36996  0.78730  0.99267  1.0000
  S   S104      1.0  0.37088  0.77393  0.92032  1.0000
  H   H634      1.0  0.36642  0.81606  0.15858  1.0000
  H   H635      1.0  0.52761  0.75829  0.34977  1.0000
  S   S105      1.0  0.35189  0.82361  0.88725  1.0000
  H   H636      1.0  0.40410  0.76830  0.74418  1.0000
  H   H637      1.0  0.46615  0.78904  0.73014  1.0000
  Fe  Fe53      1.0  0.38549  0.80741  0.90064  1.0000
  S   S106      1.0  0.41243  0.81440  0.84655  1.0000
  H   H638      1.0  0.51809  0.85890  0.78178  1.0000
  S   S107      1.0  0.38679  0.82004  0.97345  1.0000
  H   H639      1.0  0.44908  0.78913  0.61942  1.0000
  S   S108      1.0  0.49680  0.78293  0.65280  1.0000
  H   H640      1.0  0.39872  0.80809  0.11265  1.0000
  C   C366      1.0  0.35128  0.77383  0.11880  1.0000
  Fe  Fe54      1.0  0.53449  0.78220  0.64735  1.0000
  S   S109      1.0  0.55676  0.81165  0.66465  1.0000
  H   H641      1.0  0.38119  0.75898  0.67653  1.0000
  H   H642      1.0  0.34325  0.95945  0.72542  1.0000
  H   H643      1.0  0.59152  0.77232  0.68788  1.0000
  S   S110      1.0  0.64363  0.83440  0.54547  1.0000
  C   C367      1.0  0.58109  0.81734  0.63160  1.0000
  C   C368      1.0  0.58401  0.80849  0.58763  1.0000
  C   C369      1.0  0.60323  0.81392  0.56164  1.0000
  C   C370      1.0  0.61991  0.82787  0.57966  1.0000
  C   C371      1.0  0.61720  0.83635  0.62397  1.0000
  C   C372      1.0  0.59778  0.83125  0.64965  1.0000
  H   H644      1.0  0.57125  0.79788  0.57324  1.0000
  H   H645      1.0  0.60517  0.80738  0.52733  1.0000
  H   H646      1.0  0.62983  0.84725  0.63806  1.0000
  H   H647      1.0  0.59564  0.83825  0.68353  1.0000
  C   C373      1.0  0.42967  0.79374  0.82048  1.0000
  C   C374      1.0  0.34303  0.77266  0.16414  1.0000
  C   C375      1.0  0.45686  0.78423  0.76049  1.0000
  C   C376      1.0  0.45983  0.76274  0.77965  1.0000
  H   H648      1.0  0.38538  0.83850  0.16429  1.0000
  C   C377      1.0  0.43221  0.77206  0.83903  1.0000
  C   C378      1.0  0.38321  0.87962  0.11454  1.0000
  H   H649      1.0  0.65406  0.76585  0.71716  1.0000
  C   C379      1.0  0.37334  0.83091  0.13990  1.0000
  H   H650      1.0  0.49717  0.85344  0.74030  1.0000
  C   C380      1.0  0.44735  0.75668  0.81883  1.0000
  Fe  Fe55      1.0  0.35180  0.83340  0.96107  1.0000
  H   H651      1.0  0.34658  0.87765  0.89379  1.0000
  H   H652      1.0  0.42410  0.78600  0.69087  1.0000
  C   C381      1.0  0.36357  0.86569  0.09588  1.0000
  N   N26       1.0  0.35488  0.84735  0.12728  1.0000
  H   H653      1.0  0.61663  0.77603  0.71988  1.0000
  N   N27       1.0  0.52058  0.81101  0.81084  1.0000
  C   C382      1.0  0.50863  0.79116  0.83242  1.0000
  C   C383      1.0  0.53694  0.80173  0.77609  1.0000
  C   C384      1.0  0.50316  0.82515  0.78626  1.0000
  C   C385      1.0  0.53180  0.82420  0.84827  1.0000
  C   C386      1.0  0.48979  0.79678  0.86713  1.0000
  H   H654      1.0  0.34280  0.82949  0.06805  1.0000
  N   N28       1.0  0.41453  0.75848  0.64667  1.0000
  C   C387      1.0  0.55204  0.83898  0.83410  1.0000
  H   H655      1.0  0.50129  0.78033  0.80546  1.0000
  H   H656      1.0  0.52055  0.78009  0.85154  1.0000
  H   H657      1.0  0.54665  0.81517  0.75889  1.0000
  H   H658      1.0  0.52774  0.79344  0.74770  1.0000
  H   H659      1.0  0.49366  0.81457  0.76182  1.0000
  H   H660      1.0  0.49057  0.83203  0.81076  1.0000
  H   H661      1.0  0.51934  0.83525  0.86588  1.0000
  H   H662      1.0  0.53830  0.81241  0.87518  1.0000
  C   C388      1.0  0.51161  0.84571  0.75880  1.0000
  C   C389      1.0  0.43624  0.75740  0.47807  1.0000
  C   C390      1.0  0.62155  0.76895  0.64614  1.0000
  H   H663      1.0  0.52268  0.78850  0.40829  1.0000
  S   S111      1.0  0.33663  0.86569  0.98941  1.0000
  H   H664      1.0  0.35968  0.86578  0.19017  1.0000
  H   H665      1.0  0.44655  0.75462  0.68074  1.0000
  C   C391      1.0  0.35448  0.76017  0.19810  1.0000
  S   S112      1.0  0.47080  0.76806  0.53573  1.0000
  H   H666      1.0  0.55214  0.85425  0.85586  1.0000
  H   H667      1.0  0.55215  0.84506  0.79817  1.0000
  H   H668      1.0  0.56808  0.83008  0.84157  1.0000
  H   H669      1.0  0.34636  0.82844  0.21831  1.0000
  H   H670      1.0  0.61151  0.75995  0.61999  1.0000
  C   C392      1.0  0.43217  0.79676  0.62286  1.0000
  S   S113      1.0  0.38295  0.76497  0.05129  1.0000
  H   H671      1.0  0.64132  0.80472  0.68951  1.0000
  H   H672      1.0  0.44011  0.81644  0.76646  1.0000
  S   S114      1.0  0.53434  0.76302  0.58169  1.0000
  H   H673      1.0  0.37621  0.81313  0.07394  1.0000
  H   H674      1.0  0.52413  0.84124  0.73210  1.0000
  H   H675      1.0  0.38886  0.89148  0.08715  1.0000
  H   H676      1.0  0.43451  0.81398  0.63653  1.0000
  C   C393      1.0  0.37146  0.76314  0.10734  1.0000
  H   H677      1.0  0.43497  0.77538  0.47208  1.0000
  C   C394      1.0  0.60900  0.76605  0.69216  1.0000
  H   H678      1.0  0.42446  0.79884  0.58848  1.0000
  H   H679      1.0  0.39791  0.86906  0.12395  1.0000
  H   H680      1.0  0.40030  0.79195  0.65642  1.0000
  H   H681      1.0  0.55014  0.77479  0.40335  1.0000
  H   H682      1.0  0.48365  0.78083  0.88286  1.0000
  H   H683      1.0  0.48497  0.75872  0.44294  1.0000
  Fe  Fe56      1.0  0.49686  0.76038  0.59100  1.0000
  C   C395      1.0  0.53666  0.78030  0.42714  1.0000
  C   C396      1.0  0.55427  0.78455  0.79467  1.0000
  C   C397      1.0  0.38705  0.82130  0.09948  1.0000
  H   H684      1.0  0.36892  0.85868  0.06222  1.0000
  H   H685      1.0  0.54411  0.79357  0.44889  1.0000
  C   C398      1.0  0.44199  0.79969  0.78100  1.0000
  H   H686      1.0  0.39031  0.76687  0.59394  1.0000
  H   H687      1.0  0.49572  0.80753  0.89541  1.0000
  Fe  Fe57      1.0  0.33731  0.79114  0.91279  1.0000
  H   H688      1.0  0.35012  0.87803  0.08705  1.0000
  H   H689      1.0  0.49779  0.76350  0.38992  1.0000
  H   H690      1.0  0.47503  0.80472  0.85045  1.0000
  C   C399      1.0  0.41699  0.78334  0.65619  1.0000
  H   H691      1.0  0.62045  0.78698  0.63600  1.0000
  H   H692      1.0  0.39746  0.83428  0.08221  1.0000
  H   H693      1.0  0.37796  0.89005  0.14412  1.0000
  H   H694      1.0  0.42287  0.76731  0.86951  1.0000
  H   H695      1.0  0.56226  0.79023  0.82673  1.0000
  H   H696      1.0  0.54653  0.76778  0.80030  1.0000
  H   H697      1.0  0.56772  0.78221  0.76855  1.0000
  H   H698      1.0  0.65452  0.78551  0.59324  1.0000
  C   C400      1.0  0.34592  0.85776  0.17069  1.0000
  N   N29       1.0  0.64557  0.76093  0.64549  1.0000
  C   C401      1.0  0.33675  0.83484  0.10243  1.0000
  C   C402      1.0  0.40574  0.75635  0.59843  1.0000
  C   C403      1.0  0.33449  0.84135  0.20484  1.0000
  C   C404      1.0  0.52891  0.76086  0.45858  1.0000
  H   H699      1.0  0.63083  0.76765  0.54388  1.0000
  C   C405      1.0  0.65914  0.77197  0.68245  1.0000
  H   H700      1.0  0.34209  0.78295  0.09259  1.0000
  H   H701      1.0  0.33386  0.87166  0.16288  1.0000
  S   S115      1.0  0.34339  0.75948  0.25460  1.0000
  H   H702      1.0  0.51801  0.76846  0.48565  1.0000
  C   C406      1.0  0.65840  0.79794  0.68315  1.0000
  H   H703      1.0  0.54438  0.75495  0.47618  1.0000
  H   H704      1.0  0.66534  0.80538  0.65119  1.0000
  C   C407      1.0  0.64435  0.75641  0.55726  1.0000
  C   C408      1.0  0.65559  0.76701  0.59948  1.0000
  H   H705      1.0  0.33644  0.99555  0.76444  1.0000
  H   H706      1.0  0.33585  0.91113  0.84663  1.0000
  H   H707      1.0  0.65713  0.75388  0.52991  1.0000
  H   H708      1.0  0.41815  0.76286  0.57309  1.0000
  C   C409      1.0  0.33604  0.89068  0.90834  1.0000
  S   S116      1.0  0.33518  0.80165  0.98633  1.0000
  S   S117      1.0  0.53822  0.75175  0.69304  1.0000
  Fe  Fe58      1.0  0.73162  0.04125  0.86764  1.0000
  S   S118      1.0  0.76197  0.04114  0.82159  1.0000
  S   S119      1.0  0.70410  0.06580  0.84715  1.0000
  Fe  Fe59      1.0  0.78136  0.04023  0.88730  1.0000
  S   S120      1.0  0.80967  0.06348  0.90781  1.0000
  S   S121      1.0  0.75102  0.04203  0.93304  1.0000
  Fe  Fe60      1.0  0.84887  0.18269  0.81705  1.0000
  S   S122      1.0  0.84823  0.19358  0.89031  1.0000
  S   S123      1.0  0.83399  0.15062  0.78819  1.0000
  Fe  Fe61      1.0  0.86788  0.22781  0.78308  1.0000
  H   H709      1.0  0.66986  0.01207  0.74693  1.0000
  H   H710      1.0  0.76331  0.24393  0.94575  1.0000
  Fe  Fe62      1.0  0.88229  0.20870  0.87713  1.0000
  S   S124      1.0  0.90936  0.20176  0.93096  1.0000
  Fe  Fe63      1.0  0.83469  0.22627  0.86240  1.0000
  C   C410      1.0  0.68706  0.12706  0.93652  1.0000
  S   S125      1.0  0.88410  0.19499  0.80524  1.0000
  S   S126      1.0  0.83288  0.21453  0.78966  1.0000
  H   H711      1.0  0.82672  0.05150  0.00437  1.0000
  C   C411      1.0  0.69892  0.10864  0.95526  1.0000
  H   H712      1.0  0.75079  0.23184  0.77985  1.0000
  C   C412      1.0  0.92671  0.22197  0.95747  1.0000
  C   C413      1.0  0.93908  0.21553  0.99649  1.0000
  C   C414      1.0  0.95365  0.23074  0.01784  1.0000
  C   C415      1.0  0.81461  0.01418  0.09220  1.0000
  H   H713      1.0  0.78348  0.14697  0.81237  1.0000
  H   H714      1.0  0.66765  0.02852  0.62469  1.0000
  H   H715      1.0  0.93729  0.19866  0.01038  1.0000
  H   H716      1.0  0.96278  0.22562  0.04815  1.0000
  H   H717      1.0  0.79164  0.03460  0.99109  1.0000
  H   H718      1.0  0.82414  0.07998  0.06315  1.0000
  C   C416      1.0  0.68932  0.22507  0.15670  1.0000
  C   C417      1.0  0.75352  0.23433  0.81611  1.0000
  H   H719      1.0  0.76222  0.01544  0.06473  1.0000
  H   H720      1.0  0.67123  0.23197  0.21784  1.0000
  Fe  Fe64      1.0  0.75117  0.00411  0.93011  1.0000
  C   C418      1.0  0.68872  0.22668  0.20941  1.0000
  H   H721      1.0  0.97508  0.21128  0.89034  1.0000
  C   C419      1.0  0.72895  0.23465  0.21924  1.0000
  N   N30       1.0  0.70544  0.24216  0.23136  1.0000
  H   H722      1.0  0.75289  0.18868  0.79799  1.0000
  H   H723      1.0  0.82066  0.24502  0.60869  1.0000
  C   C420      1.0  0.84692  0.24682  0.65933  1.0000
  H   H724      1.0  0.98043  0.19885  0.96876  1.0000
  H   H725      1.0  0.73213  0.23499  0.18184  1.0000
  C   C421      1.0  0.69803  0.08932  0.88207  1.0000
  C   C422      1.0  0.70452  0.08991  0.92811  1.0000
  C   C423      1.0  0.77186  0.03041  0.05310  1.0000
  H   H726      1.0  0.74789  0.07486  0.71245  1.0000
  H   H727      1.0  0.71350  0.07580  0.94309  1.0000
  H   H728      1.0  0.78723  0.00634  0.00865  1.0000
  C   C424      1.0  0.81554  0.08811  0.87499  1.0000
  C   C425      1.0  0.82894  0.10506  0.89380  1.0000
  C   C426      1.0  0.83443  0.12451  0.86801  1.0000
  C   C427      1.0  0.82695  0.12692  0.82277  1.0000
  C   C428      1.0  0.81350  0.11001  0.80406  1.0000
  C   C429      1.0  0.80759  0.09085  0.83017  1.0000
  H   H729      1.0  0.83521  0.10311  0.92840  1.0000
  H   H730      1.0  0.84483  0.13738  0.88283  1.0000
  H   H731      1.0  0.80764  0.11171  0.76912  1.0000
  H   H732      1.0  0.79739  0.07791  0.81516  1.0000
  H   H733      1.0  0.85702  0.13282  0.69561  1.0000
  N   N31       1.0  0.76662  0.16078  0.87167  1.0000
  C   C430      1.0  0.78641  0.17540  0.88330  1.0000
  C   C431      1.0  0.76779  0.15632  0.82083  1.0000
  C   C432      1.0  0.76950  0.13884  0.89767  1.0000
  C   C433      1.0  0.74533  0.17283  0.88601  1.0000
  C   C434      1.0  0.78962  0.18061  0.93466  1.0000
  H   H734      1.0  0.78635  0.13139  0.89044  1.0000
  C   C435      1.0  0.73231  0.04228  0.70222  1.0000
  C   C436      1.0  0.72335  0.16621  0.86166  1.0000
  H   H735      1.0  0.80238  0.16772  0.87055  1.0000
  H   H736      1.0  0.78509  0.19209  0.86594  1.0000
  H   H737      1.0  0.88467  0.14418  0.70447  1.0000
  H   H738      1.0  0.83190  0.01450  0.10658  1.0000
  H   H739      1.0  0.75417  0.14521  0.80932  1.0000
  H   H740      1.0  0.76879  0.14162  0.93532  1.0000
  H   H741      1.0  0.74244  0.17082  0.92363  1.0000
  H   H742      1.0  0.74710  0.19127  0.87991  1.0000
  H   H743      1.0  0.80263  0.19378  0.93800  1.0000
  H   H744      1.0  0.77416  0.18745  0.95076  1.0000
  H   H745      1.0  0.79581  0.16566  0.95406  1.0000
  H   H746      1.0  0.69260  0.04900  0.75567  1.0000
  C   C437      1.0  0.82562  0.04535  0.04053  1.0000
  H   H747      1.0  0.72311  0.14922  0.84669  1.0000
  C   C438      1.0  0.67283  0.02612  0.66101  1.0000
  H   H748      1.0  0.68994  0.05626  0.67771  1.0000
  H   H749      1.0  0.78307  0.18678  0.79051  1.0000
  H   H750      1.0  0.70943  0.16682  0.88709  1.0000
  H   H751      1.0  0.93267  0.22849  0.18437  1.0000
  H   H752      1.0  0.71875  0.17895  0.83507  1.0000
  H   H753      1.0  0.71472  0.03203  0.77842  1.0000
  N   N32       1.0  0.71063  0.02926  0.70491  1.0000
  C   C439      1.0  0.73102  0.06726  0.71659  1.0000
  H   H754      1.0  0.74542  0.03410  0.72410  1.0000
  N   N33       1.0  0.81476  0.02249  0.04306  1.0000
  C   C440      1.0  0.77546  0.23647  0.83284  1.0000
  C   C441      1.0  0.68603  0.10765  0.86340  1.0000
  H   H755      1.0  0.70359  0.04073  0.63518  1.0000
  H   H756      1.0  0.72469  0.23985  0.91623  1.0000
  H   H757      1.0  0.80480  0.02531  0.11505  1.0000
  H   H758      1.0  0.70380  0.10888  0.99097  1.0000
  H   H759      1.0  0.88308  0.24675  0.07705  1.0000
  S   S127      1.0  0.97360  0.24366  0.24332  1.0000
  S   S128      1.0  0.68892  0.21380  0.95173  1.0000
  S   S129      1.0  0.99720  0.23182  0.12358  1.0000
  C   C442      1.0  0.92898  0.24389  0.94013  1.0000
  H   H760      1.0  0.73154  0.21664  0.22930  1.0000
  C   C443      1.0  0.76064  0.24110  0.90957  1.0000
  H   H761      1.0  0.93851  0.23637  0.30961  1.0000
  H   H762      1.0  0.67659  0.21263  0.14589  1.0000
  H   H763      1.0  0.75686  0.10508  0.90892  1.0000
  C   C444      1.0  0.69498  0.03873  0.66898  1.0000
  Fe  Fe65      1.0  0.66753  0.18327  0.94144  1.0000
  H   H764      1.0  0.73927  0.04227  0.66673  1.0000
  H   H765      1.0  0.82415  0.20162  0.69236  1.0000
  C   C445      1.0  0.73875  0.23862  0.89295  1.0000
  C   C446      1.0  0.81374  0.06458  0.06629  1.0000
  H   H766      1.0  0.81875  0.20206  0.63125  1.0000
  H   H767      1.0  0.84321  0.04431  0.05327  1.0000
  H   H768      1.0  0.68030  0.24431  0.34073  1.0000
  H   H769      1.0  0.70857  0.22239  0.29435  1.0000
  H   H770      1.0  0.67409  0.00768  0.66573  1.0000
  H   H771      1.0  0.68078  0.10728  0.82795  1.0000
  H   H772      1.0  0.77625  0.04079  0.08287  1.0000
  H   H773      1.0  0.76486  0.17200  0.75330  1.0000
  H   H774      1.0  0.91120  0.23669  0.06285  1.0000
  S   S130      1.0  0.70796  0.23040  0.82497  1.0000
  C   C447      1.0  0.77906  0.23975  0.87970  1.0000
  Fe  Fe66      1.0  0.68162  0.22125  0.87777  1.0000
  C   C448      1.0  0.67924  0.24324  0.30272  1.0000
  C   C449      1.0  0.79169  0.02325  0.02176  1.0000
  H   H775      1.0  0.88083  0.12082  0.66751  1.0000
  S   S131      1.0  0.80629  0.24218  0.90204  1.0000
  H   H776      1.0  0.80178  0.18576  0.66943  1.0000
  H   H777      1.0  0.94361  0.22232  0.12944  1.0000
  C   C450      1.0  0.73513  0.23496  0.84626  1.0000
  H   H778      1.0  0.83658  0.24055  0.68714  1.0000
  H   H779      1.0  0.67714  0.02034  0.80350  1.0000
  H   H780      1.0  0.91958  0.24908  0.91010  1.0000
  C   C451      1.0  0.76708  0.17735  0.78939  1.0000
  C   C452      1.0  0.70299  0.23950  0.28284  1.0000
  S   S132      1.0  0.86857  0.24233  0.85445  1.0000
  H   H781      1.0  0.75161  0.11509  0.85242  1.0000
  H   H782      1.0  0.73532  0.12552  0.90105  1.0000
  N   N34       1.0  0.85865  0.17489  0.64523  1.0000
  C   C453      1.0  0.86059  0.18938  0.60261  1.0000
  C   C454      1.0  0.86943  0.18699  0.68449  1.0000
  C   C455      1.0  0.83446  0.17042  0.65744  1.0000
  C   C456      1.0  0.87019  0.15264  0.63646  1.0000
  C   C457      1.0  0.84762  0.18125  0.56025  1.0000
  C   C458      1.0  0.89474  0.19176  0.67893  1.0000
  C   C459      1.0  0.81922  0.19137  0.66259  1.0000
  C   C460      1.0  0.87318  0.13698  0.67872  1.0000
  H   H783      1.0  0.85524  0.20697  0.60953  1.0000
  H   H784      1.0  0.87841  0.19080  0.59146  1.0000
  H   H785      1.0  0.86678  0.17771  0.71742  1.0000
  H   H786      1.0  0.86134  0.20365  0.68989  1.0000
  H   H787      1.0  0.82658  0.15914  0.63196  1.0000
  H   H788      1.0  0.83322  0.16119  0.69071  1.0000
  H   H789      1.0  0.86075  0.14279  0.61074  1.0000
  H   H790      1.0  0.88708  0.15522  0.62091  1.0000
  H   H791      1.0  0.82927  0.18079  0.56619  1.0000
  H   H792      1.0  0.85045  0.19342  0.53155  1.0000
  H   H793      1.0  0.85369  0.16458  0.54850  1.0000
  H   H794      1.0  0.90488  0.17626  0.67412  1.0000
  H   H795      1.0  0.89802  0.20395  0.65062  1.0000
  H   H796      1.0  0.90094  0.19986  0.71057  1.0000
  H   H797      1.0  0.79738  0.06886  0.05031  1.0000
  H   H798      1.0  0.81174  0.06107  0.10347  1.0000
  H   H799      1.0  0.71934  0.07726  0.69487  1.0000
  H   H800      1.0  0.72638  0.06918  0.75328  1.0000
  C   C461      1.0  0.93068  0.23261  0.14730  1.0000
  H   H801      1.0  0.68439  0.24122  0.14012  1.0000
  S   S133      1.0  0.68049  0.15032  0.97182  1.0000
  H   H802      1.0  0.69071  0.20922  0.22333  1.0000
  C   C462      1.0  0.75215  0.12037  0.88873  1.0000
  C   C463      1.0  0.83792  0.24952  0.61494  1.0000
  S   S134      1.0  0.88200  0.24759  0.72185  1.0000
  H   H803      1.0  0.76431  0.24294  0.22616  1.0000
  H   H804      1.0  0.75978  0.04062  0.03263  1.0000
  H   H805      1.0  0.66798  0.22898  0.29501  1.0000
  H   H806      1.0  0.78953  0.23590  0.80943  1.0000
  H   H807      1.0  0.70561  0.21894  0.14317  1.0000
  C   C464      1.0  0.70100  0.03224  0.75255  1.0000
  H   H808      1.0  0.74923  0.24505  0.27876  1.0000
  C   C465      1.0  0.68067  0.12649  0.89040  1.0000
  C   C466      1.0  0.99532  0.19785  0.94595  1.0000
  H   H809      1.0  0.98198  0.17281  0.02441  1.0000
  H   H810      1.0  0.84694  0.02671  0.96362  1.0000
  C   C467      1.0  0.89927  0.25097  0.06043  1.0000
  C   C468      1.0  0.71646  0.00485  0.69716  1.0000
  H   H811      1.0  0.91427  0.22651  0.13564  1.0000
  C   C469      1.0  0.68415  0.01453  0.77019  1.0000
  H   H812      1.0  0.99249  0.19661  0.05606  1.0000
  S   S135      1.0  0.78306  0.00221  0.88960  1.0000
  C   C470      1.0  0.82938  0.00633  0.01623  1.0000
  C   C471      1.0  0.83442  0.01299  0.96594  1.0000
  H   H813      1.0  0.84587  0.00373  0.03349  1.0000
  H   H814      1.0  0.81911  0.01812  0.94717  1.0000
  C   C472      1.0  0.99081  0.21571  0.90842  1.0000
  H   H815      1.0  0.98772  0.23255  0.92352  1.0000
  H   H816      1.0  0.99461  0.18098  0.92961  1.0000
  H   H817      1.0  0.67130  0.14041  0.87569  1.0000
  H   H818      1.0  0.88884  0.25071  0.15098  1.0000
  H   H819      1.0  0.74324  0.00660  0.64456  1.0000
  S   S136      1.0  0.72844  0.00343  0.86852  1.0000
  C   C473      1.0  0.99687  0.18004  0.04143  1.0000
  H   H820      1.0  0.71505  0.00410  0.62137  1.0000
  Fe  Fe67      1.0  0.76040  0.00326  0.82794  1.0000
  C   C474      1.0  0.74799  0.24826  0.24126  1.0000
  H   H821      1.0  0.71394  0.25153  0.30112  1.0000
  Fe  Fe68      1.0  0.77333  0.47498  0.36594  1.0000
  S   S137      1.0  0.74231  0.47434  0.32248  1.0000
  S   S138      1.0  0.80085  0.45069  0.34449  1.0000
  Fe  Fe69      1.0  0.72384  0.47638  0.38945  1.0000
  S   S139      1.0  0.69657  0.45255  0.41401  1.0000
  S   S140      1.0  0.75487  0.47520  0.43300  1.0000
  Fe  Fe70      1.0  0.84664  0.28398  0.46364  1.0000
  S   S141      1.0  0.85160  0.27338  0.38971  1.0000
  S   S142      1.0  0.99798  0.28621  0.14798  1.0000
  Fe  Fe71      1.0  0.83967  0.33381  0.43702  1.0000
  S   S143      1.0  0.84403  0.32707  0.36214  1.0000
  S   S144      1.0  0.82835  0.36654  0.47027  1.0000
  Fe  Fe72      1.0  0.82266  0.29672  0.37434  1.0000
  S   S145      1.0  0.79498  0.29041  0.32338  1.0000
  Fe  Fe73      1.0  0.87293  0.30448  0.38270  1.0000
  S   S146      1.0  0.90408  0.31100  0.33877  1.0000
  S   S147      1.0  0.81612  0.30506  0.44772  1.0000
  S   S148      1.0  0.87013  0.31350  0.45788  1.0000
  S   S149      1.0  0.69696  0.28546  0.40687  1.0000
  H   H822      1.0  0.91343  0.25940  0.22140  1.0000
  S   S150      1.0  0.83942  0.25936  0.52281  1.0000
  H   H823      1.0  0.71581  0.46002  0.60134  1.0000
  C   C475      1.0  0.78593  0.48946  0.23277  1.0000
  H   H824      1.0  0.77317  0.37810  0.40350  1.0000
  C   C476      1.0  0.92322  0.29181  0.31306  1.0000
  C   C477      1.0  0.92295  0.26868  0.32276  1.0000
  H   H825      1.0  0.67505  0.48644  0.55892  1.0000
  H   H826      1.0  0.78498  0.47533  0.25824  1.0000
  C   C478      1.0  0.95482  0.28573  0.26039  1.0000
  C   C479      1.0  0.93925  0.30021  0.28185  1.0000
  C   C480      1.0  0.71094  0.47707  0.61390  1.0000
  Fe  Fe74      1.0  0.66805  0.29864  0.36480  1.0000
  H   H827      1.0  0.89726  0.28667  0.07066  1.0000
  C   C481      1.0  0.74525  0.40978  0.38314  1.0000
  C   C482      1.0  0.76790  0.28903  0.34712  1.0000
  C   C483      1.0  0.76450  0.28296  0.39308  1.0000
  C   C484      1.0  0.74265  0.28191  0.41112  1.0000
  C   C485      1.0  0.72414  0.28721  0.38348  1.0000
  C   C486      1.0  0.72761  0.29356  0.33769  1.0000
  C   C487      1.0  0.74939  0.29417  0.31940  1.0000
  H   H828      1.0  0.77865  0.27852  0.41446  1.0000
  C   C488      1.0  0.93551  0.25788  0.13833  1.0000
  H   H829      1.0  0.71356  0.29781  0.31628  1.0000
  H   H830      1.0  0.93382  0.31227  0.07474  1.0000
  H   H831      1.0  0.88113  0.27928  0.14853  1.0000
  H   H832      1.0  0.69679  0.28525  0.15425  1.0000
  C   C489      1.0  0.94052  0.30768  0.10908  1.0000
  H   H833      1.0  0.79941  0.34851  0.39529  1.0000
  H   H834      1.0  0.70768  0.27779  0.24493  1.0000
  C   C490      1.0  0.80839  0.42749  0.38010  1.0000
  C   C491      1.0  0.82092  0.40966  0.36140  1.0000
  C   C492      1.0  0.82698  0.39084  0.38856  1.0000
  C   C493      1.0  0.82081  0.38981  0.43490  1.0000
  C   C494      1.0  0.80836  0.40770  0.45370  1.0000
  C   C495      1.0  0.80207  0.42641  0.42640  1.0000
  H   H835      1.0  0.82599  0.41035  0.32573  1.0000
  H   H836      1.0  0.83675  0.37730  0.37376  1.0000
  H   H837      1.0  0.80358  0.40709  0.48953  1.0000
  H   H838      1.0  0.79257  0.44008  0.44132  1.0000
  C   C496      1.0  0.68855  0.43005  0.37837  1.0000
  C   C497      1.0  0.67388  0.39191  0.37080  1.0000
  C   C498      1.0  0.73154  0.36147  0.43554  1.0000
  H   H839      1.0  0.74615  0.26656  0.23466  1.0000
  H   H840      1.0  0.84125  0.29520  0.63449  1.0000
  N   N35       1.0  0.84086  0.33002  0.61157  1.0000
  C   C499      1.0  0.85625  0.32374  0.57247  1.0000
  C   C500      1.0  0.81719  0.33141  0.59378  1.0000
  C   C501      1.0  0.84688  0.35256  0.63111  1.0000
  C   C502      1.0  0.88159  0.32617  0.58162  1.0000
  C   C503      1.0  0.80716  0.30901  0.57742  1.0000
  C   C504      1.0  0.84646  0.37271  0.59707  1.0000
  H   H841      1.0  0.85220  0.33357  0.54086  1.0000
  H   H842      1.0  0.85365  0.30595  0.56238  1.0000
  H   H843      1.0  0.80561  0.33859  0.61996  1.0000
  H   H844      1.0  0.81618  0.34332  0.56400  1.0000
  H   H845      1.0  0.83492  0.35724  0.65887  1.0000
  H   H846      1.0  0.86338  0.35203  0.64888  1.0000
  H   H847      1.0  0.89109  0.31983  0.55146  1.0000
  H   H848      1.0  0.88640  0.34403  0.58594  1.0000
  H   H849      1.0  0.88718  0.31599  0.61157  1.0000
  H   H850      1.0  0.80558  0.29638  0.60548  1.0000
  H   H851      1.0  0.81705  0.30167  0.54899  1.0000
  H   H852      1.0  0.79003  0.31225  0.56391  1.0000
  H   H853      1.0  0.82925  0.37981  0.59365  1.0000
  H   H854      1.0  0.85272  0.36848  0.56242  1.0000
  H   H855      1.0  0.85792  0.38600  0.60938  1.0000
  H   H856      1.0  0.72692  0.34634  0.45620  1.0000
  H   H857      1.0  0.78692  0.33758  0.34528  1.0000
  C   C505      1.0  0.84319  0.31231  0.64876  1.0000
  C   C506      1.0  0.68868  0.43229  0.33055  1.0000
  H   H858      1.0  0.71494  0.35608  0.37242  1.0000
  C   C507      1.0  0.73259  0.35493  0.38455  1.0000
  H   H859      1.0  0.69428  0.44784  0.31475  1.0000
  S   S151      1.0  0.97504  0.27202  0.02470  1.0000
  H   H860      1.0  0.73638  0.33656  0.38261  1.0000
  H   H861      1.0  0.86036  0.31234  0.66354  1.0000
  C   C508      1.0  0.70068  0.26644  0.21851  1.0000
  C   C509      1.0  0.69185  0.48561  0.54221  1.0000
  C   C510      1.0  0.87330  0.26398  0.58712  1.0000
  H   H862      1.0  0.75413  0.33969  0.31000  1.0000
  H   H863      1.0  0.72840  0.34899  0.24733  1.0000
  H   H864      1.0  0.82988  0.29973  0.71341  1.0000
  C   C511      1.0  0.74824  0.35743  0.30715  1.0000
  H   H865      1.0  0.93967  0.31809  0.27436  1.0000
  H   H866      1.0  0.84335  0.46209  0.16102  1.0000
  C   C512      1.0  0.78306  0.34595  0.37821  1.0000
  H   H867      1.0  0.71820  0.37357  0.27549  1.0000
  H   H868      1.0  0.77318  0.33464  0.40087  1.0000
  C   C513      1.0  0.82687  0.31426  0.68979  1.0000
  H   H869      1.0  0.80906  0.31344  0.67933  1.0000
  C   C514      1.0  0.68121  0.40975  0.39836  1.0000
  C   C515      1.0  0.72560  0.35661  0.28156  1.0000
  H   H870      1.0  0.68154  0.49086  0.65139  1.0000
  H   H871      1.0  0.72414  0.28682  0.17736  1.0000
  C   C516      1.0  0.93873  0.25421  0.30171  1.0000
  H   H872      1.0  0.82979  0.32969  0.70993  1.0000
  H   H873      1.0  0.68010  0.41694  0.26620  1.0000
  H   H874      1.0  0.73607  0.42574  0.37589  1.0000
  S   S152      1.0  0.67050  0.30892  0.29076  1.0000
  C   C517      1.0  0.73885  0.39222  0.34696  1.0000
  H   H875      1.0  0.71325  0.34577  0.29963  1.0000
  C   C518      1.0  0.92231  0.29708  0.14010  1.0000
  H   H876      1.0  0.74961  0.49084  0.22560  1.0000
  N   N36       1.0  0.74780  0.36851  0.35358  1.0000
  C   C519      1.0  0.76449  0.48750  0.20358  1.0000
  H   H877      1.0  0.76051  0.36597  0.28393  1.0000
  C   C520      1.0  0.90947  0.27287  0.07863  1.0000
  H   H878      1.0  0.80383  0.45484  0.18451  1.0000
  H   H879      1.0  0.74776  0.36682  0.44975  1.0000
  C   C521      1.0  0.77166  0.36905  0.37062  1.0000
  H   H880      1.0  0.75199  0.29901  0.28392  1.0000
  H   H881      1.0  0.74099  0.40455  0.41856  1.0000
  C   C522      1.0  0.95469  0.26264  0.27033  1.0000
  H   H882      1.0  0.90011  0.28691  0.22139  1.0000
  C   C523      1.0  0.67295  0.39458  0.32305  1.0000
  H   H883      1.0  0.94471  0.26371  0.16916  1.0000
  H   H884      1.0  0.78236  0.37880  0.34616  1.0000
  C   C524      1.0  0.82597  0.48140  0.24134  1.0000
  H   H885      1.0  0.71866  0.37477  0.44129  1.0000
  C   C525      1.0  0.68064  0.41474  0.30309  1.0000
  H   H886      1.0  0.79403  0.47523  0.14503  1.0000
  H   H887      1.0  0.71534  0.26208  0.14735  1.0000
  H   H888      1.0  0.72027  0.39221  0.34497  1.0000
  H   H889      1.0  0.74474  0.39949  0.31361  1.0000
  H   H890      1.0  0.95525  0.29645  0.10492  1.0000
  H   H891      1.0  0.94563  0.27585  0.94711  1.0000
  C   C526      1.0  0.85110  0.25794  0.57855  1.0000
  H   H892      1.0  0.69261  0.46494  0.67395  1.0000
  H   H893      1.0  0.68125  0.40780  0.43531  1.0000
  H   H894      1.0  0.90746  0.30862  0.13887  1.0000
  C   C527      1.0  0.88236  0.26104  0.63139  1.0000
  H   H895      1.0  0.82620  0.45785  0.11221  1.0000
  H   H896      1.0  0.69463  0.46757  0.53311  1.0000
  H   H897      1.0  0.76328  0.41394  0.38070  1.0000
  H   H898      1.0  0.89971  0.26528  0.63746  1.0000
  H   H899      1.0  0.92879  0.29808  0.17581  1.0000
  H   H900      1.0  0.94653  0.32347  0.12492  1.0000
  H   H901      1.0  0.88368  0.27031  0.55936  1.0000
  H   H902      1.0  0.96708  0.29246  0.23660  1.0000
  H   H903      1.0  0.92442  0.27611  0.05659  1.0000
  H   H904      1.0  0.74009  0.27689  0.44655  1.0000
  H   H905      1.0  0.72414  0.48130  0.63884  1.0000
  N   N37       1.0  0.70992  0.49362  0.57434  1.0000
  H   H906      1.0  0.91076  0.26200  0.34678  1.0000
  H   H907      1.0  0.82290  0.46369  0.25291  1.0000
  C   C528      1.0  0.82934  0.46956  0.14096  1.0000
  N   N38       1.0  0.91568  0.27324  0.12879  1.0000
  C   C529      1.0  0.70998  0.27511  0.17186  1.0000
  H   H908      1.0  0.84289  0.48136  0.22520  1.0000
  C   C530      1.0  0.68900  0.47442  0.64170  1.0000
  C   C531      1.0  0.80769  0.47181  0.16985  1.0000
  H   H909      1.0  0.68228  0.26980  0.21876  1.0000
  H   H910      1.0  0.88375  0.26212  0.22788  1.0000
  H   H911      1.0  0.67648  0.46446  0.62263  1.0000
  H   H912      1.0  0.67397  0.49318  0.47889  1.0000
  H   H913      1.0  0.76253  0.47017  0.19029  1.0000
  N   N39       1.0  0.80819  0.48900  0.20762  1.0000
  Fe  Fe75      1.0  0.99841  0.26446  0.08488  1.0000
  H   H914      1.0  0.73470  0.47582  0.53368  1.0000
  H   H915      1.0  0.67155  0.25915  0.29031  1.0000
  Fe  Fe76      1.0  0.99832  0.25337  0.18673  1.0000
  C   C532      1.0  0.89863  0.26921  0.20993  1.0000
  C   C533      1.0  0.89532  0.26776  0.15764  1.0000
  H   H916      1.0  0.94797  0.25891  0.10982  1.0000
  H   H917      1.0  0.75611  0.48845  0.60537  1.0000
  C   C534      1.0  0.94379  0.25902  0.96116  1.0000
  H   H918      1.0  0.81244  0.49654  0.30485  1.0000
  H   H919      1.0  0.83449  0.48585  0.12541  1.0000
  H   H920      1.0  0.84085  0.48759  0.30791  1.0000
  C   C535      1.0  0.73183  0.49291  0.54824  1.0000
  C   C536      1.0  0.82825  0.49571  0.28498  1.0000
  H   H921      1.0  0.70348  0.49505  0.47292  1.0000
  H   H922      1.0  0.66846  0.37636  0.38667  1.0000
  C   C537      1.0  0.95635  0.25249  0.99987  1.0000
  H   H923      1.0  0.89570  0.25326  0.02324  1.0000
  H   H924      1.0  0.76373  0.49982  0.17500  1.0000
  C   C538      1.0  0.75313  0.49919  0.57471  1.0000
  H   H925      1.0  0.76786  0.49667  0.55174  1.0000
  C   C539      1.0  0.68938  0.49881  0.49660  1.0000
  C   C540      1.0  0.86936  0.25210  0.66752  1.0000
  Fe  Fe77      1.0  0.97240  0.73138  0.13145  1.0000
  S   S153      1.0  0.95125  0.70021  0.14294  1.0000
  H   H926      1.0  0.91205  0.67469  0.16639  1.0000
  Fe  Fe78      1.0  0.72277  0.64352  0.72801  1.0000
  S   S154      1.0  0.73605  0.64226  0.65520  1.0000
  S   S155      1.0  0.74315  0.62917  0.78798  1.0000
  S   S156      1.0  0.68669  0.66264  0.62345  1.0000
  Fe  Fe79      1.0  0.70232  0.62853  0.63651  1.0000
  S   S157      1.0  0.69437  0.60112  0.58481  1.0000
  Fe  Fe80      1.0  0.71951  0.67629  0.64742  1.0000
  S   S158      1.0  0.73350  0.70494  0.60522  1.0000
  S   S159      1.0  0.68999  0.62725  0.70971  1.0000
  S   S160      1.0  0.70915  0.67874  0.72127  1.0000
  Fe  Fe81      1.0  0.82987  0.66744  0.06882  1.0000
  S   S161      1.0  0.82402  0.66069  0.14359  1.0000
  S   S162      1.0  0.86134  0.68066  0.03351  1.0000
  Fe  Fe82      1.0  0.78010  0.66095  0.04495  1.0000
  S   S163      1.0  0.77033  0.65380  0.11885  1.0000
  S   S164      1.0  0.75466  0.66918  0.98851  1.0000
  Fe  Fe83      1.0  0.79328  0.68233  0.13599  1.0000
  S   S165      1.0  0.78694  0.70878  0.18967  1.0000
  Fe  Fe84      1.0  0.80165  0.63234  0.12136  1.0000
  S   S166      1.0  0.80719  0.59969  0.16240  1.0000
  S   S167      1.0  0.80065  0.69116  0.06299  1.0000
  S   S168      1.0  0.80998  0.63742  0.04583  1.0000
  Fe  Fe85      1.0  0.75461  0.51302  0.42592  1.0000
  S   S169      1.0  0.72210  0.51438  0.38781  1.0000
  S   S170      1.0  0.76398  0.53667  0.48338  1.0000
  Fe  Fe86      1.0  0.74390  0.51230  0.32454  1.0000
  S   S171      1.0  0.73679  0.53579  0.26401  1.0000
  S   S172      1.0  0.77634  0.51280  0.36262  1.0000
  C   C541      1.0  0.75633  0.55451  0.23819  1.0000
  C   C542      1.0  0.74914  0.56899  0.20263  1.0000
  C   C543      1.0  0.76427  0.58366  0.18033  1.0000
  C   C544      1.0  0.78688  0.58369  0.19289  1.0000
  C   C545      1.0  0.79399  0.56946  0.22899  1.0000
  C   C546      1.0  0.77877  0.55513  0.25189  1.0000
  H   H927      1.0  0.73179  0.56873  0.19190  1.0000
  H   H928      1.0  0.75859  0.59444  0.15249  1.0000
  H   H929      1.0  0.81145  0.56942  0.23896  1.0000
  H   H930      1.0  0.78451  0.54434  0.27956  1.0000
  C   C547      1.0  0.71444  0.58457  0.55517  1.0000
  C   C548      1.0  0.70753  0.57201  0.51715  1.0000
  C   C549      1.0  0.72261  0.55755  0.49430  1.0000
  C   C550      1.0  0.74467  0.55525  0.50983  1.0000
  C   C551      1.0  0.75171  0.56812  0.54724  1.0000
  C   C552      1.0  0.73670  0.58279  0.56975  1.0000
  H   H931      1.0  0.69034  0.57335  0.50563  1.0000
  H   H932      1.0  0.71703  0.54791  0.46531  1.0000
  H   H933      1.0  0.76882  0.56660  0.55920  1.0000
  H   H934      1.0  0.74220  0.59236  0.59899  1.0000
  C   C553      1.0  0.74753  0.64121  0.84264  1.0000
  C   C554      1.0  0.74084  0.66326  0.85268  1.0000
  C   C555      1.0  0.74357  0.67169  0.89734  1.0000
  C   C556      1.0  0.75332  0.65834  0.93219  1.0000
  C   C557      1.0  0.76060  0.63654  0.92183  1.0000
  C   C558      1.0  0.75771  0.62804  0.87725  1.0000
  H   H935      1.0  0.73327  0.67368  0.82620  1.0000
  H   H936      1.0  0.73791  0.68860  0.90507  1.0000
  H   H937      1.0  0.76786  0.62599  0.94846  1.0000
  H   H938      1.0  0.76298  0.61097  0.86978  1.0000
  C   C559      1.0  0.96869  0.63654  0.05555  1.0000
  H   H939      1.0  0.68573  0.51922  0.59377  1.0000
  H   H940      1.0  0.69652  0.62966  0.96480  1.0000
  C   C560      1.0  0.97204  0.66162  0.04309  1.0000
  H   H941      1.0  0.77119  0.72622  0.10211  1.0000
  C   C561      1.0  0.72874  0.73175  0.62831  1.0000
  H   H942      1.0  0.72179  0.74679  0.56240  1.0000
  H   H943      1.0  0.73492  0.72175  0.69836  1.0000
  H   H944      1.0  0.69597  0.67739  0.88115  1.0000
  C   C562      1.0  0.92593  0.69579  0.11292  1.0000
  C   C563      1.0  0.92241  0.70490  0.06905  1.0000
  C   C564      1.0  0.90259  0.70006  0.04507  1.0000
  C   C565      1.0  0.88594  0.68642  0.06501  1.0000
  C   C566      1.0  0.88935  0.67754  0.10907  1.0000
  C   C567      1.0  0.90940  0.68196  0.13262  1.0000
  H   H945      1.0  0.93505  0.71546  0.05339  1.0000
  H   H946      1.0  0.90009  0.70700  0.01099  1.0000
  H   H947      1.0  0.87673  0.66690  0.12472  1.0000
  N   N40       1.0  0.76198  0.59553  0.37796  1.0000
  C   C568      1.0  0.74813  0.57503  0.36771  1.0000
  C   C569      1.0  0.78626  0.58993  0.36816  1.0000
  C   C570      1.0  0.75515  0.61538  0.34844  1.0000
  C   C571      1.0  0.75834  0.60161  0.42753  1.0000
  C   C572      1.0  0.72243  0.57842  0.36831  1.0000
  C   C573      1.0  0.79772  0.57374  0.40265  1.0000
  C   C574      1.0  0.75603  0.61145  0.29617  1.0000
  C   C575      1.0  0.77166  0.62199  0.44505  1.0000
  H   H948      1.0  0.75267  0.56794  0.33375  1.0000
  H   H949      1.0  0.75181  0.56124  0.39279  1.0000
  H   H950      1.0  0.79666  0.60538  0.36561  1.0000
  H   H951      1.0  0.78808  0.58201  0.33386  1.0000
  H   H952      1.0  0.73798  0.62140  0.35753  1.0000
  H   H953      1.0  0.76617  0.63005  0.35502  1.0000
  H   H954      1.0  0.74040  0.60578  0.43414  1.0000
  H   H955      1.0  0.76150  0.58700  0.45082  1.0000
  H   H956      1.0  0.71603  0.58290  0.40282  1.0000
  H   H957      1.0  0.71667  0.59101  0.34257  1.0000
  H   H958      1.0  0.71439  0.56230  0.35895  1.0000
  H   H959      1.0  0.81494  0.56978  0.39026  1.0000
  H   H960      1.0  0.79944  0.58138  0.43703  1.0000
  H   H961      1.0  0.78873  0.55757  0.40588  1.0000
  H   H962      1.0  0.74472  0.59778  0.28536  1.0000
  H   H963      1.0  0.77332  0.60784  0.28400  1.0000
  H   H964      1.0  0.75040  0.62703  0.27803  1.0000
  H   H965      1.0  0.76189  0.63785  0.44025  1.0000
  H   H966      1.0  0.78820  0.62398  0.42829  1.0000
  H   H967      1.0  0.77520  0.61958  0.48222  1.0000
  H   H968      1.0  0.71964  0.54373  0.62930  1.0000
  C   C576      1.0  0.67762  0.67779  0.87465  1.0000
  C   C577      1.0  0.83224  0.74954  0.06701  1.0000
  C   C578      1.0  0.70421  0.51731  0.58911  1.0000
  H   H969      1.0  0.98125  0.62543  0.03884  1.0000
  C   C579      1.0  0.73082  0.73557  0.67537  1.0000
  H   H970      1.0  0.84634  0.71634  0.94301  1.0000
  H   H971      1.0  0.84497  0.70978  0.13096  1.0000
  C   C580      1.0  0.68096  0.64208  0.83292  1.0000
  H   H972      1.0  0.86172  0.72884  0.07337  1.0000
  C   C581      1.0  0.72365  0.74976  0.59875  1.0000
  H   H973      1.0  0.86637  0.70989  0.17516  1.0000
  H   H974      1.0  0.75312  0.51732  0.58358  1.0000
  C   C582      1.0  0.68207  0.61601  0.83596  1.0000
  C   C583      1.0  0.67446  0.69328  0.83229  1.0000
  H   H975      1.0  0.86513  0.69278  0.93266  1.0000
  H   H976      1.0  0.70160  0.65804  0.94773  1.0000
  C   C584      1.0  0.99464  0.69548  0.03836  1.0000
  H   H977      1.0  0.95183  0.63127  0.04380  1.0000
  H   H978      1.0  0.69870  0.64769  0.83143  1.0000
  H   H979      1.0  0.79824  0.71787  0.97278  1.0000
  N   N41       1.0  0.82242  0.67976  0.89769  1.0000
  C   C585      1.0  0.83530  0.65823  0.90724  1.0000
  C   C586      1.0  0.83870  0.69724  0.88029  1.0000
  C   C587      1.0  0.80453  0.67640  0.86212  1.0000
  C   C588      1.0  0.81125  0.68710  0.94158  1.0000
  C   C589      1.0  0.82109  0.63695  0.91595  1.0000
  C   C590      1.0  0.85513  0.70642  0.91620  1.0000
  C   C591      1.0  0.81285  0.66795  0.81512  1.0000
  C   C592      1.0  0.79755  0.70930  0.93911  1.0000
  H   H980      1.0  0.84708  0.65426  0.87866  1.0000
  H   H981      1.0  0.84613  0.66012  0.93802  1.0000
  H   H982      1.0  0.82983  0.71187  0.86432  1.0000
  H   H983      1.0  0.84921  0.69030  0.85200  1.0000
  H   H984      1.0  0.79157  0.66455  0.87488  1.0000
  H   H985      1.0  0.79520  0.69240  0.85532  1.0000
  H   H986      1.0  0.79932  0.67412  0.95387  1.0000
  H   H987      1.0  0.82339  0.68809  0.97036  1.0000
  H   H988      1.0  0.81191  0.63167  0.88490  1.0000
  H   H989      1.0  0.83242  0.62276  0.92566  1.0000
  H   H990      1.0  0.80907  0.63906  0.94460  1.0000
  H   H991      1.0  0.81302  0.52457  0.21864  1.0000
  H   H992      1.0  0.85547  0.74868  0.19779  1.0000
  H   H993      1.0  0.66844  0.60788  0.85557  1.0000
  H   H994      1.0  0.82309  0.68083  0.79707  1.0000
  Fe  Fe87      1.0  0.67720  0.66258  0.69781  1.0000
  C   C593      1.0  0.84998  0.71701  0.16425  1.0000
  H   H995      1.0  0.77972  0.70584  0.93098  1.0000
  H   H996      1.0  0.70761  0.63524  0.90877  1.0000
  H   H997      1.0  0.88993  0.72802  0.12975  1.0000
  H   H998      1.0  0.82949  0.74309  0.03184  1.0000
  H   H999      1.0  0.86714  0.71798  0.89894  1.0000
  H   H1000     1.0  0.79379  0.74476  0.53894  1.0000
  H   H1001     1.0  0.96037  0.67149  0.06520  1.0000
  C   C594      1.0  0.69574  0.64151  0.93510  1.0000
  H   H1002     1.0  0.89344  0.75014  0.16958  1.0000
  C   C595      1.0  0.66856  0.72389  0.64396  1.0000
  H   H1003     1.0  0.79804  0.66463  0.79317  1.0000
  H   H1004     1.0  0.96507  0.70281  0.99585  1.0000
  H   H1005     1.0  0.96561  0.66375  0.00750  1.0000
  H   H1006     1.0  0.82244  0.65194  0.81780  1.0000
  H   H1007     1.0  0.68484  0.70859  0.83629  1.0000
  H   H1008     1.0  0.83431  0.51295  0.27721  1.0000
  H   H1009     1.0  0.80403  0.72159  0.91373  1.0000
  H   H1010     1.0  0.79516  0.51010  0.12491  1.0000
  H   H1011     1.0  0.68248  0.73096  0.66412  1.0000
  H   H1012     1.0  0.66998  0.68665  0.90453  1.0000
  H   H1013     1.0  0.83231  0.51318  0.18020  1.0000
  H   H1014     1.0  0.70872  0.52952  0.56162  1.0000
  H   H1015     1.0  0.69864  0.61030  0.84920  1.0000
  C   C596      1.0  0.78339  0.73632  0.16814  1.0000
  C   C597      1.0  0.71488  0.52577  0.63407  1.0000
  C   C598      1.0  0.77565  0.74024  0.12353  1.0000
  H   H1016     1.0  0.83748  0.71120  0.19007  1.0000
  H   H1017     1.0  0.96886  0.63380  0.09330  1.0000
  C   C599      1.0  0.81431  0.51221  0.19036  1.0000
  H   H1018     1.0  0.99186  0.67463  0.12027  1.0000
  H   H1019     1.0  0.70235  0.52574  0.66239  1.0000
  H   H1020     1.0  0.78496  0.53109  0.16466  1.0000
  H   H1021     1.0  0.66715  0.70592  0.65422  1.0000
  H   H1022     1.0  0.67287  0.72425  0.60690  1.0000
  H   H1023     1.0  0.98855  0.72063  0.98471  1.0000
  H   H1024     1.0  0.68118  0.60907  0.80082  1.0000
  H   H1025     1.0  0.68780  0.51724  0.50162  1.0000
  H   H1026     1.0  0.73140  0.50472  0.51843  1.0000
  H   H1027     1.0  0.81031  0.53506  0.13213  1.0000
  N   N42       1.0  0.99569  0.67041  0.04688  1.0000
  C   C600      1.0  0.80011  0.52239  0.15110  1.0000
  C   C601      1.0  0.88809  0.74651  0.13378  1.0000
  H   H1028     1.0  0.67996  0.68505  0.80025  1.0000
  C   C602      1.0  0.84998  0.74302  0.16328  1.0000
  H   H1029     1.0  0.82132  0.73949  0.09009  1.0000
  H   H1030     1.0  0.76623  0.74230  0.51404  1.0000
  H   H1031     1.0  0.73018  0.51680  0.64537  1.0000
  C   C603      1.0  0.98364  0.70299  0.99277  1.0000
  H   H1032     1.0  0.98506  0.70384  0.06636  1.0000
  H   H1033     1.0  0.78409  0.50511  0.25317  1.0000
  H   H1034     1.0  0.67377  0.64678  0.79889  1.0000
  H   H1035     1.0  0.98880  0.69237  0.96347  1.0000
  H   H1036     1.0  0.83215  0.74828  0.16053  1.0000
  C   C604      1.0  0.85723  0.74683  0.07896  1.0000
  C   C605      1.0  0.67141  0.64308  0.91737  1.0000
  H   H1037     1.0  0.90371  0.75100  0.06544  1.0000
  N   N43       1.0  0.66856  0.65416  0.87087  1.0000
  Fe  Fe88      1.0  0.97008  0.78148  0.11501  1.0000
  C   C606      1.0  0.78852  0.75463  0.19608  1.0000
  S   S173      1.0  0.94576  0.81007  0.09989  1.0000
  Fe  Fe89      1.0  0.72445  0.85964  0.55060  1.0000
  S   S174      1.0  0.73421  0.86230  0.62531  1.0000
  S   S175      1.0  0.75401  0.85956  0.50021  1.0000
  Fe  Fe90      1.0  0.71292  0.83167  0.63629  1.0000
  S   S176      1.0  0.72201  0.80308  0.68474  1.0000
  Fe  Fe91      1.0  0.70234  0.88222  0.63388  1.0000
  S   S177      1.0  0.69681  0.91148  0.68327  1.0000
  S   S178      1.0  0.70557  0.82750  0.56178  1.0000
  S   S179      1.0  0.69353  0.88158  0.55821  1.0000
  Fe  Fe92      1.0  0.83231  0.85288  0.20209  1.0000
  S   S180      1.0  0.82350  0.85269  0.12749  1.0000
  S   S181      1.0  0.86464  0.83775  0.23035  1.0000
  Fe  Fe93      1.0  0.78532  0.86909  0.23121  1.0000
  S   S182      1.0  0.77339  0.87015  0.15766  1.0000
  S   S183      1.0  0.75738  0.87639  0.28329  1.0000
  Fe  Fe94      1.0  0.79134  0.83699  0.15087  1.0000
  S   S184      1.0  0.77596  0.80823  0.11200  1.0000
  Fe  Fe95      1.0  0.80642  0.88606  0.14048  1.0000
  S   S185      1.0  0.81325  0.91322  0.08597  1.0000
  S   S186      1.0  0.80109  0.83483  0.22475  1.0000
  S   S187      1.0  0.81750  0.88748  0.21464  1.0000
  C   C607      1.0  0.76032  0.81282  0.31784  1.0000
  C   C608      1.0  0.77329  0.76239  0.10679  1.0000
  S   S188      1.0  0.74392  0.98146  0.99177  1.0000
  H   H1038     1.0  0.98644  0.82985  0.14107  1.0000
  S   S189      1.0  0.76738  0.97911  0.76928  1.0000
  H   H1039     1.0  0.70962  0.82783  0.17951  1.0000
  C   C609      1.0  0.79327  0.93118  0.05909  1.0000
  C   C610      1.0  0.77158  0.93408  0.07663  1.0000
  C   C611      1.0  0.75665  0.94948  0.05549  1.0000
  C   C612      1.0  0.76314  0.96193  0.01641  1.0000
  C   C613      1.0  0.78465  0.95863  0.99819  1.0000
  C   C614      1.0  0.79968  0.94349  0.01970  1.0000
  H   H1040     1.0  0.76646  0.92479  0.10700  1.0000
  H   H1041     1.0  0.74002  0.95186  0.06977  1.0000
  H   H1042     1.0  0.78981  0.96790  0.96790  1.0000
  H   H1043     1.0  0.81642  0.94129  0.00588  1.0000
  C   C615      1.0  0.77890  0.78070  0.13432  1.0000
  C   C616      1.0  0.78653  0.77675  0.17904  1.0000
  H   H1044     1.0  0.87654  0.78530  0.15434  1.0000
  H   H1045     1.0  0.79096  0.79065  0.20052  1.0000
  H   H1046     1.0  0.99348  0.81023  0.22715  1.0000
  C   C617      1.0  0.71726  0.92890  0.70866  1.0000
  C   C618      1.0  0.71075  0.94302  0.74494  1.0000
  C   C619      1.0  0.72609  0.95794  0.76479  1.0000
  C   C620      1.0  0.74805  0.95925  0.74790  1.0000
  C   C621      1.0  0.75469  0.94489  0.71217  1.0000
  C   C622      1.0  0.73943  0.92967  0.69281  1.0000
  H   H1047     1.0  0.69364  0.94250  0.75746  1.0000
  H   H1048     1.0  0.72080  0.96873  0.79249  1.0000
  H   H1049     1.0  0.77164  0.94576  0.69887  1.0000
  H   H1050     1.0  0.74463  0.91896  0.66481  1.0000
  C   C623      1.0  0.72381  0.77563  0.66273  1.0000
  H   H1051     1.0  0.96472  0.78617  0.26330  1.0000
  H   H1052     1.0  0.73453  0.83552  0.15051  1.0000
  C   C624      1.0  0.72105  0.77161  0.61596  1.0000
  H   H1053     1.0  0.96778  0.81179  0.19842  1.0000
  H   H1054     1.0  0.71729  0.78532  0.59283  1.0000
  C   C625      1.0  0.75432  0.86374  0.43971  1.0000
  C   C626      1.0  0.77466  0.86086  0.41567  1.0000
  C   C627      1.0  0.77589  0.86441  0.36779  1.0000
  C   C628      1.0  0.75678  0.87115  0.34345  1.0000
  C   C629      1.0  0.73638  0.87374  0.36740  1.0000
  C   C630      1.0  0.73509  0.86992  0.41520  1.0000
  H   H1055     1.0  0.78969  0.85625  0.43428  1.0000
  H   H1056     1.0  0.79171  0.86242  0.34988  1.0000
  H   H1057     1.0  0.72151  0.87902  0.34894  1.0000
  H   H1058     1.0  0.71935  0.87227  0.43321  1.0000
  C   C631      1.0  0.92236  0.81616  0.13531  1.0000
  C   C632      1.0  0.91982  0.80628  0.17882  1.0000
  C   C633      1.0  0.90216  0.81319  0.20779  1.0000
  C   C634      1.0  0.88633  0.82924  0.19273  1.0000
  C   C635      1.0  0.88836  0.83844  0.14857  1.0000
  C   C636      1.0  0.90648  0.83213  0.12025  1.0000
  H   H1059     1.0  0.93165  0.79368  0.19060  1.0000
  H   H1060     1.0  0.90058  0.80589  0.24182  1.0000
  H   H1061     1.0  0.87632  0.85090  0.13671  1.0000
  H   H1062     1.0  0.90828  0.83985  0.08664  1.0000
  H   H1063     1.0  0.79221  0.79550  0.47038  1.0000
  N   N44       1.0  0.86411  0.75399  0.12636  1.0000
  H   H1064     1.0  0.67716  0.76725  0.67919  1.0000
  H   H1065     1.0  0.81533  0.82801  0.57573  1.0000
  C   C637      1.0  0.75666  0.80229  0.47291  1.0000
  H   H1066     1.0  0.96947  0.84565  0.30709  1.0000
  H   H1067     1.0  0.75333  0.81365  0.56855  1.0000
  C   C638      1.0  0.76180  0.88827  0.81542  1.0000
  H   H1068     1.0  0.83905  0.78592  0.18648  1.0000
  H   H1069     1.0  0.68897  0.80339  0.31301  1.0000
  C   C639      1.0  0.75120  0.90795  0.96631  1.0000
  H   H1070     1.0  0.74117  0.92318  0.97456  1.0000
  H   H1071     1.0  0.74510  0.89429  0.98942  1.0000
  H   H1072     1.0  0.76901  0.91065  0.97524  1.0000
  H   H1073     1.0  0.70813  0.78004  0.26295  1.0000
  H   H1074     1.0  0.78939  0.98741  0.08243  1.0000
  C   C640      1.0  0.77178  0.81324  0.57382  1.0000
  C   C641      1.0  0.74117  0.82284  0.21972  1.0000
  N   N45       1.0  0.72917  0.80953  0.25646  1.0000
  H   H1075     1.0  0.79328  0.81104  0.63570  1.0000
  H   H1076     1.0  0.82657  0.78576  0.12998  1.0000
  H   H1077     1.0  0.82158  0.98939  0.01486  1.0000
  H   H1078     1.0  0.77739  0.83063  0.56524  1.0000
  C   C642      1.0  0.71424  0.79190  0.23591  1.0000
  C   C643      1.0  0.79129  0.93590  0.84610  1.0000
  C   C644      1.0  0.74834  0.90061  0.91601  1.0000
  H   H1079     1.0  0.83891  0.81119  0.55939  1.0000
  C   C645      1.0  0.95269  0.85092  0.22338  1.0000
  H   H1080     1.0  0.76848  0.79357  0.63863  1.0000
  C   C646      1.0  0.70214  0.81504  0.32485  1.0000
  H   H1081     1.0  0.69867  0.79950  0.22146  1.0000
  H   H1082     1.0  0.90515  0.77573  0.10085  1.0000
  H   H1083     1.0  0.75299  0.77529  0.54560  1.0000
  H   H1084     1.0  0.84323  0.80878  0.14779  1.0000
  H   H1085     1.0  0.73047  0.89584  0.91155  1.0000
  S   S190      1.0  0.96839  0.76059  0.17917  1.0000
  H   H1086     1.0  0.71299  0.95768  0.89646  1.0000
  H   H1087     1.0  0.75220  0.78449  0.46657  1.0000
  H   H1088     1.0  0.86665  0.75639  0.05221  1.0000
  H   H1089     1.0  0.74362  0.81024  0.49473  1.0000
  C   C647      1.0  0.78030  0.80429  0.49375  1.0000
  H   H1090     1.0  0.67395  0.76347  0.59825  1.0000
  H   H1091     1.0  0.81787  0.97715  0.08833  1.0000
  C   C648      1.0  0.86330  0.77942  0.13062  1.0000
  H   H1092     1.0  0.74994  0.82044  0.34536  1.0000
  H   H1093     1.0  0.70224  0.83409  0.26199  1.0000
  H   H1094     1.0  0.75351  0.81231  0.20075  1.0000
  H   H1095     1.0  0.78500  0.82235  0.49061  1.0000
  H   H1096     1.0  0.96020  0.88474  0.19453  1.0000
  C   C649      1.0  0.72619  0.83554  0.18471  1.0000
  H   H1097     1.0  0.75178  0.83592  0.23530  1.0000
  H   H1098     1.0  0.99520  0.87029  0.20482  1.0000
  H   H1099     1.0  0.76631  0.82320  0.64456  1.0000
  H   H1100     1.0  0.74940  0.95199  0.85871  1.0000
  H   H1101     1.0  0.76912  0.82637  0.29889  1.0000
  H   H1102     1.0  0.94681  0.80967  0.27480  1.0000
  H   H1103     1.0  0.73865  0.78452  0.30807  1.0000
  C   C650      1.0  0.97616  0.81717  0.23048  1.0000
  H   H1104     1.0  0.76122  0.87369  0.83942  1.0000
  H   H1105     1.0  0.71310  0.76411  0.18773  1.0000
  H   H1106     1.0  0.77343  0.80242  0.33503  1.0000
  H   H1107     1.0  0.75418  0.88282  0.78261  1.0000
  N   N46       1.0  0.97609  0.84253  0.23377  1.0000
  H   H1108     1.0  0.66919  0.80388  0.71151  1.0000
  C   C651      1.0  0.98250  0.85010  0.28107  1.0000
  H   H1109     1.0  0.71127  0.93500  0.85691  1.0000
  H   H1110     1.0  0.75880  0.78847  0.26415  1.0000
  H   H1111     1.0  0.72880  0.99922  0.72335  1.0000
  C   C652      1.0  0.78022  0.75410  0.52074  1.0000
  C   C653      1.0  0.71502  0.82562  0.28408  1.0000
  H   H1112     1.0  0.69357  0.82871  0.34415  1.0000
  C   C654      1.0  0.74648  0.79771  0.28595  1.0000
  H   H1113     1.0  0.75124  0.94816  0.91857  1.0000
  H   H1114     1.0  0.94669  0.84415  0.19028  1.0000
  N   N47       1.0  0.75554  0.91740  0.87973  1.0000
  H   H1115     1.0  0.78536  0.92734  0.91610  1.0000
  H   H1116     1.0  0.71247  0.92968  0.91833  1.0000
  H   H1117     1.0  0.79084  0.95367  0.85761  1.0000
  C   C655      1.0  0.74844  0.90868  0.83359  1.0000
  S   S191      1.0  0.68173  0.85155  0.65093  1.0000
  H   H1118     1.0  0.77946  0.89266  0.80761  1.0000
  C   C656      1.0  0.84161  0.79020  0.14965  1.0000
  H   H1119     1.0  0.75633  0.81125  0.43924  1.0000
  H   H1120     1.0  0.78958  0.90361  0.88213  1.0000
  C   C657      1.0  0.78061  0.92013  0.88245  1.0000
  H   H1121     1.0  0.86705  0.78785  0.09715  1.0000
  C   C658      1.0  0.71890  0.94025  0.88971  1.0000
  H   H1122     1.0  0.74916  0.92205  0.80677  1.0000
  H   H1123     1.0  0.75795  0.88457  0.91256  1.0000
  H   H1124     1.0  0.94051  0.84460  0.24944  1.0000
  H   H1125     1.0  0.80282  0.98706  0.13708  1.0000
  H   H1126     1.0  0.72930  0.78723  0.16706  1.0000
  H   H1127     1.0  0.72532  0.83966  0.29732  1.0000
  H   H1128     1.0  0.84178  0.99829  0.94781  1.0000
  C   C659      1.0  0.72514  0.77724  0.19834  1.0000
  H   H1129     1.0  0.82115  0.82272  0.51579  1.0000
  H   H1130     1.0  0.73049  0.90362  0.83426  1.0000
  C   C660      1.0  0.74475  0.94012  0.88701  1.0000
  C   C661      1.0  0.77543  0.80971  0.62586  1.0000
  H   H1131     1.0  0.97202  0.85670  0.13786  1.0000
  H   H1132     1.0  0.78320  0.93509  0.81211  1.0000
  N   N48       1.0  0.78274  0.79615  0.54276  1.0000
  H   H1133     1.0  0.72357  0.85330  0.19544  1.0000
  H   H1134     1.0  0.71334  0.80617  0.34939  1.0000
  C   C662      1.0  0.80730  0.79341  0.55340  1.0000
  H   H1135     1.0  0.72879  0.98055  0.64783  1.0000
  H   H1136     1.0  0.80899  0.93074  0.84010  1.0000
  C   C663      1.0  0.82118  0.81523  0.55082  1.0000
  Fe  Fe96      1.0  0.67536  0.84918  0.57559  1.0000
  C   C664      1.0  0.77143  0.77381  0.55017  1.0000
  C   C665      1.0  0.96458  0.80448  0.27048  1.0000
  H   H1137     1.0  0.76721  0.76533  0.07229  1.0000
  H   H1138     1.0  0.80975  0.78559  0.58792  1.0000
  H   H1139     1.0  0.81537  0.78141  0.52913  1.0000
  H   H1140     1.0  0.77320  0.76799  0.58636  1.0000
  C   C666      1.0  0.90563  0.75710  0.10102  1.0000
  H   H1141     1.0  0.98302  0.86881  0.28245  1.0000
  H   H1142     1.0  0.82686  0.76740  0.06672  1.0000
  C   C667      1.0  0.72642  0.99912  0.64975  1.0000
  H   H1143     1.0  0.70193  0.99357  0.70222  1.0000
  H   H1144     1.0  0.93177  0.88038  0.21115  1.0000
  C   C668      1.0  0.72847  0.75752  0.69250  1.0000
  H   H1145     1.0  0.97371  0.80647  0.30324  1.0000
  C   C669      1.0  0.99291  0.85188  0.20000  1.0000
  C   C670      1.0  0.80560  0.99010  0.09981  1.0000
  H   H1146     1.0  0.74037  0.76836  0.21085  1.0000
  H   H1147     1.0  0.69255  0.99814  0.77732  1.0000
  H   H1148     1.0  0.73057  0.76050  0.72879  1.0000
  H   H1149     1.0  0.78654  0.75946  0.48665  1.0000
  C   C671      1.0  0.98763  0.84799  0.14894  1.0000
  H   H1150     1.0  0.95205  0.88469  0.25475  1.0000
  C   C672      1.0  0.94944  0.87670  0.22101  1.0000
  H   H1151     1.0  0.92267  0.75194  0.11256  1.0000
  S   S192      1.0  0.97206  0.75213  0.06687  1.0000
  H   H1152     1.0  0.79450  0.75166  0.23063  1.0000
