data_image0
_chemical_formula_structural       H2FeSFeSFeSFeS2HFeS2FeSHFe2S2H3C2H2SFeSHCH2SH3C3NH4CH2CHSC2HCHC3HSC6H4C6H5NFeCH4C2H2CH2CHC2SH2CSH2CSH2CH2NHSCH2SC2HCHCH2CHC2H3C2HCHCH4FeHNC8H8CHCH5CH2NH2CH3C2HCSH4NCHSH2CH3SH2CH2CHCH2CH7FeH2CHCH4CHCH2SHCSC2SC2FeC2S2FeHSFeHSCFeS2C6H5C5H3C3H2CFeCSCHSCS2HFeS2FeS2Fe2S3HCH2CH3C3H2C3HC5HCH7NCH2CHNC8H20NHC2HCHFeCH3NH2CFeH4CH2CH2NC3H2CH2C2H3SC2H4CHCSCH2CH4C2H5CSHCH4C3H3SH10CHC2H8C3H4SFeH4FeC2HCH3FeSFeSHSC2H3SFeSHSHSFeSFeSHNHFeHNFeHSC2S2C6H4SH3CH2CH2CHCH2SH2C3H3C6H6CH4CH3NC4HC2SH6CH8NCHC3HC2HSCH4CH5CH3SCFeHNHCHFeH5CH2FeCHCSH3FeH2CHCHNC5HC2H17SCHCH3C2H3CH2SHCH2CHC2H4C4H3CH4NHSH3SC2H2CFeHCHCHC3HCSHCH3CFeCH5CFeC2HCHSH3CH3CH4CHSHCH2CH2SCH2CH3CH2CHC2HCH2FeH4CHC2H2CHNC5H2CH4CH7NHCH5CH3CH2CNCSHCH3CHSCHFeHFeHCSCH3C2HFeHC2SCH3CH2C2S2HSH2CH2CH3NHSC3HCHC2H2SC2H5CH2NH2CHCSHCHCH3CHSFeHC3HCH3CH5CH2CSH2SH2CHCH2SCH3CHCHCH2CH7CFeSCHC2HCS2NH3CH3CFeHC2HSH2CNSCH2CH6C2HC3HFeH5SCH2C2H5C2H5CH2C2H2CH2FeCH2CH4CNH4CSCH6CFeH2CHC2NHC2H2CH2CHC2SH3SHCH2S2H2CHC3HCH3CSHSH6FeCFeHSFeC2HCHC2H5S2HSH2C2H6C2HNH4CH2SC2SHSNHFeCHCH2C2H3CHC3H2C2H3CH4CH2C2HFeC2SH5SHNC2HC3NH2CSC2H2CSCHCHC3H3CHCS2H2CHCHCH4CH2CH5CHCHCH5CHC2H2FeH3CFeH5CSHCH4CSFeSFe2HCFeSFeSFeSFeS3HCH2FeH3FeS3CHSFeC3H2C6H4C3H2C3H7CH3C7H4C5HC2H2CH6SFeHNC8H11SH2CH3CN2CHCHC2SH5CH6C3H16C2HCHC2SNH3CH2C2H2SH2NC3HC2H2FeH3CHSH2C3HC2SH6S2HSHC2FeH5CSCH2CHSFeCHCSH4FeSHSFeSFeSH2NH3S2C4H4CFeSHC4H3C2H2SC3FeH2CHSCSFeSFeS2FeHS2H2FeHSHCHC4H2C6H4CH2SHCH3C2HCHCHCH2FeHC3HSHCHSFeH2C2HCH2C3NC8H21SCH6SC2H3CH3C2H3CHCH2FeSCH3CH2NSCH4CSFeCH5CH2CNCHC2H3C3H7C2H3CHCFeHCH3NH3CH2CH2NCNCHC2H2C2S2H3SH2CH3CH2C2H4NH5C2HC2FeSFeSFeSFeSFeS2HCFeSFeSHSCHC2H2CFeSFeSFeSFeS3HC2H4C6H9SC6H4C4HSCSH6CH3CSC2HC2H2NC5HC2H8CFeSCH9CH2CH4C2HCHC2SCH2C2H11C3H3NC5H14CH2CHCH3C2HC3NC2HC2H3SC2SH6CHCH4CHNH3SHSH2CHCH2CH5CH
_chemical_formula_sum              "H1152 Fe96 S192 C672 N48"
_cell_length_a       39.5957
_cell_length_b       39.4584
_cell_length_c       46.662
_cell_angle_alpha    90.1576
_cell_angle_beta     89.9855
_cell_angle_gamma    90.3804

_space_group_name_H-M_alt    "P 1"
_space_group_IT_number       1

loop_
  _space_group_symop_operation_xyz
  'x, y, z'

loop_
  _atom_site_type_symbol
  _atom_site_label
  _atom_site_symmetry_multiplicity
  _atom_site_fract_x
  _atom_site_fract_y
  _atom_site_fract_z
  _atom_site_occupancy
  H   H1        1.0  0.35097  0.46744  0.09022  1.0000
  H   H2        1.0  0.17482  0.33482  0.26675  1.0000
  Fe  Fe1       1.0  0.30008  0.46300  0.20674  1.0000
  S   S1        1.0  0.29093  0.40804  0.19731  1.0000
  Fe  Fe2       1.0  0.23250  0.46939  0.24032  1.0000
  S   S2        1.0  0.21869  0.41494  0.23256  1.0000
  Fe  Fe3       1.0  0.27304  0.40445  0.24271  1.0000
  S   S3        1.0  0.28496  0.36080  0.27176  1.0000
  Fe  Fe4       1.0  0.23772  0.42368  0.18791  1.0000
  S   S4        1.0  0.21503  0.40260  0.14742  1.0000
  S   S5        1.0  0.41684  0.48600  0.06992  1.0000
  H   H3        1.0  0.45544  0.40553  0.07294  1.0000
  Fe  Fe5       1.0  0.08264  0.26538  0.12599  1.0000
  S   S6        1.0  0.02943  0.25039  0.11475  1.0000
  S   S7        1.0  0.09239  0.30110  0.16292  1.0000
  Fe  Fe6       1.0  0.11204  0.22458  0.07757  1.0000
  S   S8        1.0  0.06124  0.20726  0.06172  1.0000
  H   H4        1.0  0.10163  0.44575  0.11857  1.0000
  Fe  Fe7       1.0  0.04528  0.26154  0.06915  1.0000
  Fe  Fe8       1.0  0.05034  0.19785  0.10879  1.0000
  S   S9        1.0  0.09715  0.27907  0.08111  1.0000
  S   S10       1.0  0.10242  0.21228  0.12372  1.0000
  H   H5        1.0  0.24283  0.01367  0.29430  1.0000
  H   H6        1.0  0.44492  0.36774  0.09199  1.0000
  H   H7        1.0  0.47471  0.14980  0.36030  1.0000
  C   C1        1.0  0.45854  0.42392  0.17032  1.0000
  C   C2        1.0  0.02455  0.12960  0.15710  1.0000
  H   H8        1.0  0.04471  0.17337  0.17888  1.0000
  H   H9        1.0  0.09474  0.34914  0.09909  1.0000
  S   S11       1.0  0.43199  0.22363  0.31429  1.0000
  Fe  Fe9       1.0  0.45086  0.27671  0.30590  1.0000
  S   S12       1.0  0.43665  0.31191  0.26985  1.0000
  H   H10       1.0  0.29330  0.30062  0.22997  1.0000
  C   C3        1.0  0.45816  0.41212  0.11917  1.0000
  H   H11       1.0  0.28989  0.32920  0.18395  1.0000
  H   H12       1.0  0.26558  0.29620  0.16688  1.0000
  S   S13       1.0  0.18671  0.05646  0.03785  1.0000
  H   H13       1.0  0.39321  0.40491  0.33945  1.0000
  H   H14       1.0  0.15578  0.31252  0.23757  1.0000
  H   H15       1.0  0.40691  0.11789  0.34316  1.0000
  C   C4        1.0  0.16976  0.16848  0.05639  1.0000
  C   C5        1.0  0.45688  0.36402  0.15205  1.0000
  C   C6        1.0  0.06933  0.40031  0.12559  1.0000
  N   N1        1.0  0.46663  0.40390  0.33700  1.0000
  H   H16       1.0  0.25767  0.33943  0.15913  1.0000
  H   H17       1.0  0.30010  0.25675  0.23694  1.0000
  H   H18       1.0  0.27372  0.28029  0.26048  1.0000
  H   H19       1.0  0.21142  0.28863  0.15229  1.0000
  C   C7        1.0  0.14015  0.45037  0.31932  1.0000
  H   H20       1.0  0.21060  0.04603  0.34669  1.0000
  H   H21       1.0  0.10510  0.09445  0.10552  1.0000
  C   C8        1.0  0.05529  0.42271  0.07783  1.0000
  H   H22       1.0  0.34595  0.12813  0.35126  1.0000
  S   S14       1.0  0.44540  0.29391  0.35142  1.0000
  C   C9        1.0  0.14306  0.14531  0.05897  1.0000
  C   C10       1.0  0.43474  0.11923  0.34102  1.0000
  H   H23       1.0  0.11791  0.15414  0.06386  1.0000
  C   C11       1.0  0.20777  0.12230  0.04488  1.0000
  H   H24       1.0  0.45041  0.36528  0.19982  1.0000
  C   C12       1.0  0.10202  0.42105  0.12975  1.0000
  C   C13       1.0  0.02623  0.37286  0.09619  1.0000
  C   C14       1.0  0.16779  0.06573  0.12283  1.0000
  H   H25       1.0  0.02309  0.34891  0.13889  1.0000
  S   S15       1.0  0.01854  0.08248  0.24757  1.0000
  C   C15       1.0  0.18076  0.37479  0.15198  1.0000
  C   C16       1.0  0.17493  0.34946  0.13150  1.0000
  C   C17       1.0  0.14811  0.32646  0.13493  1.0000
  C   C18       1.0  0.12645  0.32928  0.15845  1.0000
  C   C19       1.0  0.13216  0.35476  0.17889  1.0000
  C   C20       1.0  0.15940  0.37740  0.17575  1.0000
  H   H26       1.0  0.19158  0.34720  0.11320  1.0000
  H   H27       1.0  0.14460  0.30631  0.11955  1.0000
  H   H28       1.0  0.11548  0.35699  0.19717  1.0000
  H   H29       1.0  0.16350  0.39721  0.19144  1.0000
  C   C21       1.0  0.32730  0.34775  0.27135  1.0000
  C   C22       1.0  0.35054  0.36218  0.25229  1.0000
  C   C23       1.0  0.38406  0.35081  0.25187  1.0000
  C   C24       1.0  0.39447  0.32522  0.27059  1.0000
  C   C25       1.0  0.37136  0.31108  0.28987  1.0000
  C   C26       1.0  0.33776  0.32221  0.29012  1.0000
  H   H30       1.0  0.34276  0.38212  0.23798  1.0000
  H   H31       1.0  0.40210  0.36212  0.23737  1.0000
  H   H32       1.0  0.37932  0.29143  0.30448  1.0000
  H   H33       1.0  0.31988  0.31108  0.30496  1.0000
  H   H34       1.0  0.22262  0.24682  0.16590  1.0000
  N   N2        1.0  0.44498  0.39991  0.14781  1.0000
  Fe  Fe10      1.0  0.48694  0.21152  0.32120  1.0000
  C   C27       1.0  0.24684  0.00147  0.31546  1.0000
  H   H35       1.0  0.07280  0.37721  0.13891  1.0000
  H   H36       1.0  0.13757  0.42404  0.32531  1.0000
  H   H37       1.0  0.18283  0.34890  0.23110  1.0000
  H   H38       1.0  0.18028  0.25665  0.15660  1.0000
  C   C28       1.0  0.03536  0.14770  0.18127  1.0000
  C   C29       1.0  0.03358  0.13275  0.20869  1.0000
  H   H39       1.0  0.11492  0.38288  0.04460  1.0000
  H   H40       1.0  0.07373  0.35109  0.06553  1.0000
  C   C30       1.0  0.08919  0.01905  0.18337  1.0000
  H   H41       1.0  0.15801  0.08443  0.10752  1.0000
  H   H42       1.0  0.48587  0.40802  0.11732  1.0000
  C   C31       1.0  0.29483  0.06077  0.29931  1.0000
  H   H43       1.0  0.39278  0.37941  0.18899  1.0000
  C   C32       1.0  0.18086  0.09930  0.04636  1.0000
  C   C33       1.0  0.34660  0.00351  0.05595  1.0000
  S   S16       1.0  0.08921  0.46098  0.35833  1.0000
  H   H44       1.0  0.44107  0.13374  0.32135  1.0000
  H   H45       1.0  0.30708  0.05467  0.34387  1.0000
  C   C34       1.0  0.20222  0.15687  0.04993  1.0000
  S   S17       1.0  0.01172  0.29629  0.04212  1.0000
  H   H46       1.0  0.04846  0.41480  0.13584  1.0000
  H   H47       1.0  0.39299  0.42540  0.18815  1.0000
  C   C35       1.0  0.40454  0.40396  0.31788  1.0000
  S   S18       1.0  0.16225  0.21216  0.05795  1.0000
  H   H48       1.0  0.01882  0.36358  0.07450  1.0000
  H   H49       1.0  0.22968  0.06611  0.31729  1.0000
  C   C36       1.0  0.44223  0.39565  0.09225  1.0000
  H   H50       1.0  0.08438  0.03901  0.19966  1.0000
  H   H51       1.0  0.12454  0.40625  0.12354  1.0000
  N   N3        1.0  0.06003  0.39090  0.09521  1.0000
  H   H52       1.0  0.36031  0.40191  0.17125  1.0000
  S   S19       1.0  0.02659  0.14700  0.12194  1.0000
  C   C37       1.0  0.45038  0.34748  0.18154  1.0000
  H   H53       1.0  0.14321  0.12324  0.14265  1.0000
  H   H54       1.0  0.04549  0.44112  0.03458  1.0000
  S   S20       1.0  0.24774  0.47926  0.19426  1.0000
  C   C38       1.0  0.34979  0.47687  0.13583  1.0000
  C   C39       1.0  0.10809  0.08684  0.16389  1.0000
  H   H55       1.0  0.12106  0.13939  0.17294  1.0000
  C   C40       1.0  0.02184  0.09927  0.21229  1.0000
  H   H56       1.0  0.06518  0.08263  0.11840  1.0000
  C   C41       1.0  0.08261  0.03168  0.15255  1.0000
  H   H57       1.0  0.18496  0.04960  0.10986  1.0000
  H   H58       1.0  0.47109  0.32948  0.18636  1.0000
  C   C42       1.0  0.01227  0.09629  0.16075  1.0000
  H   H59       1.0  0.44843  0.39039  0.29453  1.0000
  C   C43       1.0  0.14025  0.04333  0.13668  1.0000
  C   C44       1.0  0.16454  0.45971  0.29870  1.0000
  H   H60       1.0  0.44474  0.34684  0.13612  1.0000
  H   H61       1.0  0.10506  0.42677  0.15295  1.0000
  H   H62       1.0  0.13956  0.36682  0.07298  1.0000
  C   C45       1.0  0.11906  0.47469  0.33212  1.0000
  C   C46       1.0  0.11867  0.12262  0.15387  1.0000
  H   H63       1.0  0.18051  0.44063  0.28916  1.0000
  C   C47       1.0  0.14860  0.11078  0.05370  1.0000
  H   H64       1.0  0.42624  0.33294  0.18152  1.0000
  C   C48       1.0  0.08575  0.36710  0.08247  1.0000
  H   H65       1.0  0.00585  0.39051  0.10301  1.0000
  H   H66       1.0  0.11293  0.03739  0.08237  1.0000
  H   H67       1.0  0.03687  0.43978  0.08860  1.0000
  H   H68       1.0  0.28099  0.08492  0.30192  1.0000
  Fe  Fe11      1.0  0.02050  0.02769  0.26352  1.0000
  H   H69       1.0  0.32143  0.06775  0.29431  1.0000
  N   N4        1.0  0.22412  0.29379  0.21454  1.0000
  C   C49       1.0  0.21010  0.30243  0.24382  1.0000
  C   C50       1.0  0.25037  0.26673  0.21889  1.0000
  C   C51       1.0  0.19536  0.27970  0.19682  1.0000
  C   C52       1.0  0.23844  0.32572  0.20141  1.0000
  C   C53       1.0  0.17913  0.32602  0.24441  1.0000
  C   C54       1.0  0.28087  0.27711  0.23765  1.0000
  C   C55       1.0  0.20370  0.26734  0.16633  1.0000
  C   C56       1.0  0.26422  0.32160  0.17666  1.0000
  H   H70       1.0  0.20276  0.27899  0.25564  1.0000
  H   H71       1.0  0.22960  0.31514  0.25731  1.0000
  H   H72       1.0  0.26086  0.25734  0.19843  1.0000
  H   H73       1.0  0.23865  0.24385  0.22886  1.0000
  H   H74       1.0  0.18290  0.25820  0.20823  1.0000
  H   H75       1.0  0.17550  0.29909  0.19376  1.0000
  H   H76       1.0  0.21778  0.34204  0.19344  1.0000
  H   H77       1.0  0.25143  0.34125  0.21810  1.0000
  C   C57       1.0  0.38785  0.40190  0.17575  1.0000
  H   H78       1.0  0.05753  0.39759  0.03545  1.0000
  C   C58       1.0  0.40688  0.40144  0.14693  1.0000
  H   H79       1.0  0.11496  0.00884  0.18613  1.0000
  H   H80       1.0  0.01560  0.41013  0.04631  1.0000
  H   H81       1.0  0.28497  0.04662  0.28053  1.0000
  H   H82       1.0  0.04142  0.14727  0.22727  1.0000
  H   H83       1.0  0.18296  0.07912  0.13943  1.0000
  C   C59       1.0  0.11743  0.38309  0.06832  1.0000
  H   H84       1.0  0.44449  0.09348  0.33706  1.0000
  H   H85       1.0  0.08303  0.09038  0.17423  1.0000
  N   N5        1.0  0.10612  0.05910  0.14150  1.0000
  H   H86       1.0  0.34756  0.00237  0.10225  1.0000
  H   H87       1.0  0.07872  0.43800  0.07632  1.0000
  C   C60       1.0  0.02407  0.34160  0.11592  1.0000
  H   H88       1.0  0.43733  0.36083  0.32158  1.0000
  H   H89       1.0  0.32422  0.46752  0.13843  1.0000
  H   H90       1.0  0.15114  0.03470  0.15734  1.0000
  C   C61       1.0  0.23533  0.05551  0.33883  1.0000
  C   C62       1.0  0.09089  0.07248  0.11416  1.0000
  H   H91       1.0  0.00040  0.32736  0.11119  1.0000
  C   C63       1.0  0.08785  0.04681  0.08929  1.0000
  S   S21       1.0  0.01790  0.02090  0.31149  1.0000
  H   H92       1.0  0.41840  0.32437  0.03477  1.0000
  H   H93       1.0  0.12551  0.07960  0.18155  1.0000
  H   H94       1.0  0.39630  0.37991  0.13424  1.0000
  H   H95       1.0  0.13824  0.01950  0.12392  1.0000
  N   N6        1.0  0.26021  0.02691  0.33685  1.0000
  C   C64       1.0  0.01131  0.08103  0.18810  1.0000
  H   H96       1.0  0.08341  0.00877  0.13862  1.0000
  S   S22       1.0  0.28601  0.45830  0.25354  1.0000
  H   H97       1.0  0.12429  0.40880  0.07570  1.0000
  H   H98       1.0  0.44870  0.41812  0.19197  1.0000
  C   C65       1.0  0.29437  0.03933  0.32692  1.0000
  H   H99       1.0  0.09898  0.13415  0.14014  1.0000
  H   H100      1.0  0.22300  0.17470  0.04826  1.0000
  H   H101      1.0  0.46615  0.45232  0.31551  1.0000
  S   S23       1.0  0.10912  0.00875  0.33385  1.0000
  H   H102      1.0  0.39874  0.42477  0.13567  1.0000
  H   H103      1.0  0.45454  0.44000  0.11690  1.0000
  C   C66       1.0  0.39847  0.48838  0.10466  1.0000
  H   H104      1.0  0.37584  0.18365  0.35001  1.0000
  H   H105      1.0  0.05589  0.04034  0.15204  1.0000
  C   C67       1.0  0.48905  0.46089  0.35699  1.0000
  H   H106      1.0  0.12769  0.09312  0.05433  1.0000
  C   C68       1.0  0.44025  0.38847  0.31734  1.0000
  H   H107      1.0  0.12488  0.37417  0.35886  1.0000
  H   H108      1.0  0.00172  0.05546  0.19053  1.0000
  C   C69       1.0  0.04279  0.41716  0.04685  1.0000
  H   H109      1.0  0.41529  0.40270  0.08973  1.0000
  H   H110      1.0  0.40439  0.42957  0.30810  1.0000
  H   H111      1.0  0.38741  0.38792  0.30469  1.0000
  H   H112      1.0  0.04528  0.32398  0.11236  1.0000
  H   H113      1.0  0.07654  0.05978  0.07053  1.0000
  H   H114      1.0  0.07084  0.02530  0.09451  1.0000
  H   H115      1.0  0.07129  0.99796  0.18817  1.0000
  Fe  Fe12      1.0  0.43223  0.23970  0.36059  1.0000
  H   H116      1.0  0.00353  0.08217  0.14225  1.0000
  H   H117      1.0  0.43817  0.45020  0.34476  1.0000
  C   C70       1.0  0.36505  0.47685  0.10849  1.0000
  H   H118      1.0  0.44964  0.45014  0.16600  1.0000
  C   C71       1.0  0.46351  0.44197  0.33761  1.0000
  H   H119      1.0  0.23280  0.11354  0.03953  1.0000
  H   H120      1.0  0.31156  0.01760  0.32307  1.0000
  H   H121      1.0  0.19110  0.99993  0.31476  1.0000
  H   H122      1.0  0.31996  0.00926  0.05475  1.0000
  C   C72       1.0  0.36766  0.48897  0.15964  1.0000
  H   H123      1.0  0.48426  0.48855  0.35565  1.0000
  C   C73       1.0  0.24541  0.08506  0.35879  1.0000
  H   H124      1.0  0.26913  0.09769  0.35191  1.0000
  H   H125      1.0  0.48430  0.36155  0.14716  1.0000
  S   S24       1.0  0.06786  0.99760  0.25912  1.0000
  H   H126      1.0  0.22528  0.10451  0.35831  1.0000
  C   C74       1.0  0.36237  0.99958  0.08291  1.0000
  S   S25       1.0  0.34986  0.48896  0.19463  1.0000
  C   C75       1.0  0.16832  0.49364  0.29063  1.0000
  C   C76       1.0  0.13466  0.99990  0.36434  1.0000
  S   S26       1.0  0.24485  0.44852  0.68093  1.0000
  C   C77       1.0  0.17781  0.02032  0.39814  1.0000
  C   C78       1.0  0.01864  0.33707  0.51864  1.0000
  Fe  Fe13      1.0  0.01513  0.47175  0.44264  1.0000
  C   C79       1.0  0.13676  0.47518  0.67072  1.0000
  C   C80       1.0  0.34922  0.14257  0.37081  1.0000
  S   S27       1.0  0.39380  0.23055  0.39550  1.0000
  S   S28       1.0  0.43499  0.00592  0.62781  1.0000
  Fe  Fe14      1.0  0.26966  0.06959  0.49789  1.0000
  H   H127      1.0  0.43171  0.15605  0.44127  1.0000
  S   S29       1.0  0.24813  0.09553  0.53688  1.0000
  Fe  Fe15      1.0  0.30339  0.06732  0.43985  1.0000
  H   H128      1.0  0.46703  0.36097  0.36563  1.0000
  S   S30       1.0  0.32095  0.08816  0.39750  1.0000
  C   C81       1.0  0.43204  0.39544  0.38393  1.0000
  Fe  Fe16      1.0  0.32336  0.01699  0.48654  1.0000
  S   S31       1.0  0.24883  0.06939  0.45302  1.0000
  S   S32       1.0  0.32414  0.07381  0.48442  1.0000
  C   C82       1.0  0.33744  0.12944  0.39686  1.0000
  C   C83       1.0  0.34121  0.14833  0.42204  1.0000
  C   C84       1.0  0.35771  0.17992  0.42121  1.0000
  C   C85       1.0  0.37085  0.19238  0.39535  1.0000
  C   C86       1.0  0.11350  0.06076  0.50529  1.0000
  C   C87       1.0  0.16761  0.32018  0.68048  1.0000
  H   H129      1.0  0.33208  0.13835  0.44218  1.0000
  H   H130      1.0  0.36109  0.19437  0.44075  1.0000
  H   H131      1.0  0.13841  0.11170  0.46582  1.0000
  H   H132      1.0  0.18884  0.40631  0.65870  1.0000
  H   H133      1.0  0.08219  0.35544  0.45636  1.0000
  C   C88       1.0  0.00248  0.38089  0.48406  1.0000
  C   C89       1.0  0.47284  0.46056  0.67759  1.0000
  C   C90       1.0  0.22089  0.12988  0.53222  1.0000
  C   C91       1.0  0.22249  0.15003  0.50769  1.0000
  C   C92       1.0  0.20157  0.17846  0.50531  1.0000
  H   H134      1.0  0.24043  0.14420  0.49091  1.0000
  H   H135      1.0  0.20342  0.19455  0.48662  1.0000
  H   H136      1.0  0.46706  0.07102  0.50371  1.0000
  C   C93       1.0  0.02479  0.40405  0.49684  1.0000
  C   C94       1.0  0.04458  0.39324  0.52011  1.0000
  C   C95       1.0  0.04182  0.35989  0.53077  1.0000
  H   H137      1.0  0.42131  0.42087  0.38069  1.0000
  H   H138      1.0  0.05681  0.35218  0.54896  1.0000
  C   C96       1.0  0.02477  0.15447  0.66655  1.0000
  Fe  Fe17      1.0  0.25252  0.01293  0.45572  1.0000
  C   C97       1.0  0.11772  0.09533  0.52085  1.0000
  S   S33       1.0  0.04028  0.14911  0.60842  1.0000
  C   C98       1.0  0.11136  0.43188  0.45459  1.0000
  H   H139      1.0  0.47038  0.17902  0.44484  1.0000
  S   S34       1.0  0.31859  0.41550  0.69730  1.0000
  C   C99       1.0  0.01898  0.08401  0.67398  1.0000
  S   S35       1.0  0.00880  0.44825  0.39905  1.0000
  S   S36       1.0  0.25869  0.35599  0.65488  1.0000
  H   H140      1.0  0.10407  0.30243  0.44772  1.0000
  Fe  Fe18      1.0  0.09550  0.26697  0.61427  1.0000
  S   S37       1.0  0.04056  0.25334  0.60905  1.0000
  S   S38       1.0  0.11147  0.29434  0.65442  1.0000
  Fe  Fe19      1.0  0.11587  0.23266  0.55902  1.0000
  S   S39       1.0  0.06290  0.21587  0.55010  1.0000
  S   S40       1.0  0.15511  0.22382  0.52486  1.0000
  Fe  Fe20      1.0  0.04863  0.26891  0.56287  1.0000
  Fe  Fe21      1.0  0.06037  0.20187  0.59691  1.0000
  S   S41       1.0  0.10195  0.28644  0.56940  1.0000
  S   S42       1.0  0.11494  0.21483  0.60470  1.0000
  S   S43       1.0  0.01167  0.29592  0.53327  1.0000
  H   H141      1.0  0.08765  0.00902  0.47223  1.0000
  C   C100      1.0  0.42278  0.10286  0.40372  1.0000
  H   H142      1.0  0.17549  0.04433  0.45517  1.0000
  H   H143      1.0  0.47230  0.07743  0.57071  1.0000
  C   C101      1.0  0.16118  0.09624  0.46167  1.0000
  H   H144      1.0  0.06306  0.41067  0.44481  1.0000
  H   H145      1.0  0.04093  0.33812  0.42397  1.0000
  H   H146      1.0  0.19408  0.39797  0.62165  1.0000
  C   C102      1.0  0.17870  0.18647  0.52722  1.0000
  C   C103      1.0  0.17634  0.16564  0.55132  1.0000
  C   C104      1.0  0.19765  0.13756  0.55393  1.0000
  H   H147      1.0  0.15869  0.17158  0.56823  1.0000
  H   H148      1.0  0.19629  0.12186  0.57288  1.0000
  C   C105      1.0  0.03105  0.13306  0.64322  1.0000
  C   C106      1.0  0.41887  0.00218  0.59232  1.0000
  C   C107      1.0  0.39702  0.45656  0.62200  1.0000
  H   H149      1.0  0.11473  0.41597  0.47392  1.0000
  C   C108      1.0  0.07183  0.37284  0.39730  1.0000
  C   C109      1.0  0.21873  0.33661  0.65540  1.0000
  C   C110      1.0  0.20530  0.32318  0.63000  1.0000
  C   C111      1.0  0.17289  0.30856  0.62972  1.0000
  C   C112      1.0  0.15377  0.30769  0.65491  1.0000
  H   H150      1.0  0.48649  0.39651  0.38011  1.0000
  C   C113      1.0  0.15472  0.02625  0.37573  1.0000
  H   H151      1.0  0.21955  0.32523  0.61034  1.0000
  H   H152      1.0  0.16225  0.29914  0.60988  1.0000
  H   H153      1.0  0.11822  0.09186  0.54447  1.0000
  H   H154      1.0  0.06183  0.41095  0.53023  1.0000
  H   H155      1.0  0.41268  0.37565  0.37930  1.0000
  H   H156      1.0  0.40562  0.12454  0.40727  1.0000
  H   H157      1.0  0.13022  0.47450  0.69382  1.0000
  N   N7        1.0  0.14509  0.04462  0.49345  1.0000
  C   C114      1.0  0.36828  0.46429  0.63853  1.0000
  H   H158      1.0  0.09988  0.31318  0.41139  1.0000
  H   H159      1.0  0.16907  0.10183  0.43931  1.0000
  C   C115      1.0  0.17846  0.41224  0.63730  1.0000
  H   H160      1.0  0.44287  0.40424  0.69010  1.0000
  N   N8        1.0  0.25859  0.24153  0.57995  1.0000
  C   C116      1.0  0.24631  0.23855  0.61053  1.0000
  C   C117      1.0  0.29149  0.26104  0.58062  1.0000
  C   C118      1.0  0.26419  0.20603  0.56867  1.0000
  C   C119      1.0  0.23166  0.25931  0.56293  1.0000
  C   C120      1.0  0.21400  0.21703  0.61513  1.0000
  C   C121      1.0  0.28948  0.29792  0.59158  1.0000
  C   C122      1.0  0.28879  0.20170  0.54329  1.0000
  C   C123      1.0  0.23993  0.26850  0.53161  1.0000
  H   H161      1.0  0.26638  0.22765  0.62444  1.0000
  H   H162      1.0  0.24061  0.26383  0.61978  1.0000
  H   H163      1.0  0.30347  0.26245  0.55920  1.0000
  H   H164      1.0  0.31022  0.24756  0.59422  1.0000
  H   H165      1.0  0.27410  0.18921  0.58586  1.0000
  H   H166      1.0  0.23987  0.19440  0.56192  1.0000
  H   H167      1.0  0.20855  0.24331  0.56170  1.0000
  H   H168      1.0  0.22254  0.28250  0.57400  1.0000
  H   H169      1.0  0.19162  0.22875  0.60501  1.0000
  H   H170      1.0  0.21674  0.19056  0.60748  1.0000
  H   H171      1.0  0.20849  0.21581  0.63846  1.0000
  H   H172      1.0  0.28321  0.29931  0.61471  1.0000
  H   H173      1.0  0.31466  0.31019  0.58917  1.0000
  H   H174      1.0  0.27142  0.31327  0.57903  1.0000
  H   H175      1.0  0.31532  0.20656  0.54990  1.0000
  H   H176      1.0  0.28236  0.21762  0.52468  1.0000
  H   H177      1.0  0.28763  0.17491  0.53585  1.0000
  H   H178      1.0  0.23327  0.24723  0.51698  1.0000
  H   H179      1.0  0.26641  0.27632  0.52803  1.0000
  H   H180      1.0  0.22469  0.29083  0.52533  1.0000
  N   N9        1.0  0.11652  0.41463  0.65552  1.0000
  H   H181      1.0  0.49206  0.45046  0.69249  1.0000
  C   C124      1.0  0.38868  0.01892  0.58551  1.0000
  C   C125      1.0  0.12725  0.40411  0.68518  1.0000
  H   H182      1.0  0.17545  0.00589  0.54207  1.0000
  C   C126      1.0  0.41967  0.48212  0.61328  1.0000
  H   H183      1.0  0.13220  0.05359  0.44885  1.0000
  Fe  Fe22      1.0  0.04709  0.48702  0.38389  1.0000
  C   C127      1.0  0.06924  0.40166  0.61857  1.0000
  H   H184      1.0  0.48373  0.11992  0.43360  1.0000
  H   H185      1.0  0.46689  0.44158  0.66066  1.0000
  H   H186      1.0  0.48649  0.07197  0.40620  1.0000
  N   N10       1.0  0.45666  0.11512  0.39322  1.0000
  H   H187      1.0  0.40197  0.43049  0.61620  1.0000
  H   H188      1.0  0.10023  0.45609  0.46217  1.0000
  C   C128      1.0  0.11289  0.32089  0.43133  1.0000
  Fe  Fe23      1.0  0.26612  0.39673  0.68830  1.0000
  H   H189      1.0  0.09509  0.11107  0.51662  1.0000
  H   H190      1.0  0.18199  0.43937  0.63197  1.0000
  H   H191      1.0  0.39667  0.07512  0.43726  1.0000
  H   H192      1.0  0.47709  0.32220  0.41473  1.0000
  C   C129      1.0  0.45412  0.16519  0.42926  1.0000
  H   H193      1.0  0.43665  0.05733  0.42835  1.0000
  H   H194      1.0  0.47553  0.03198  0.53963  1.0000
  C   C130      1.0  0.17536  0.04942  0.51266  1.0000
  H   H195      1.0  0.43410  0.09571  0.44979  1.0000
  H   H196      1.0  0.06286  0.40781  0.66375  1.0000
  N   N11       1.0  0.09881  0.38328  0.41852  1.0000
  C   C131      1.0  0.37382  0.01562  0.55816  1.0000
  C   C132      1.0  0.15337  0.05809  0.46405  1.0000
  C   C133      1.0  0.36619  0.17389  0.37006  1.0000
  H   H197      1.0  0.45036  0.15580  0.68282  1.0000
  H   H198      1.0  0.02671  0.18164  0.66389  1.0000
  C   C134      1.0  0.08680  0.41530  0.43291  1.0000
  H   H199      1.0  0.44621  0.18404  0.41315  1.0000
  H   H200      1.0  0.18236  0.10442  0.47555  1.0000
  C   C135      1.0  0.38874  0.99506  0.53731  1.0000
  C   C136      1.0  0.13157  0.39167  0.40329  1.0000
  H   H201      1.0  0.35047  0.02856  0.55338  1.0000
  H   H202      1.0  0.02507  0.38096  0.42262  1.0000
  H   H203      1.0  0.03271  0.08096  0.62923  1.0000
  S   S44       1.0  0.30639  0.01070  0.44063  1.0000
  C   C137      1.0  0.14142  0.40106  0.63390  1.0000
  C   C138      1.0  0.11276  0.45259  0.65264  1.0000
  H   H204      1.0  0.37648  0.03443  0.60157  1.0000
  H   H205      1.0  0.99737  0.17602  0.56341  1.0000
  H   H206      1.0  0.08010  0.35184  0.38323  1.0000
  H   H207      1.0  0.35117  0.44428  0.64499  1.0000
  C   C139      1.0  0.19991  0.33497  0.68069  1.0000
  H   H208      1.0  0.11588  0.46042  0.62986  1.0000
  C   C140      1.0  0.48741  0.36598  0.44149  1.0000
  S   S45       1.0  0.02749  0.44719  0.48587  1.0000
  C   C141      1.0  0.42317  0.08161  0.43141  1.0000
  H   H209      1.0  0.46299  0.36502  0.45188  1.0000
  H   H210      1.0  0.16756  0.37611  0.37069  1.0000
  C   C142      1.0  0.08290  0.39772  0.64939  1.0000
  H   H211      1.0  0.04245  0.39307  0.61793  1.0000
  H   H212      1.0  0.08675  0.46072  0.65851  1.0000
  H   H213      1.0  0.13615  0.43830  0.44493  1.0000
  H   H214      1.0  0.19329  0.04386  0.55643  1.0000
  C   C143      1.0  0.02807  0.09779  0.64713  1.0000
  C   C144      1.0  0.14152  0.36925  0.37755  1.0000
  H   H215      1.0  0.24774  0.07669  0.38138  1.0000
  H   H216      1.0  0.15317  0.39132  0.41856  1.0000
  H   H217      1.0  0.13266  0.37657  0.68556  1.0000
  H   H218      1.0  0.27937  0.02844  0.38040  1.0000
  H   H219      1.0  0.40995  0.08704  0.38713  1.0000
  C   C145      1.0  0.45108  0.13691  0.36723  1.0000
  S   S46       1.0  0.45775  0.47004  0.59610  1.0000
  H   H220      1.0  0.14138  0.34192  0.38262  1.0000
  C   C146      1.0  0.03792  0.36084  0.41029  1.0000
  H   H221      1.0  0.02052  0.35366  0.39258  1.0000
  H   H222      1.0  0.14100  0.37285  0.63404  1.0000
  H   H223      1.0  0.14833  0.04024  0.55354  1.0000
  H   H224      1.0  0.13973  0.11080  0.51430  1.0000
  C   C147      1.0  0.44059  0.47233  0.69321  1.0000
  C   C148      1.0  0.17242  0.03382  0.54284  1.0000
  C   C149      1.0  0.47461  0.13608  0.41573  1.0000
  H   H225      1.0  0.43800  0.39467  0.40716  1.0000
  H   H226      1.0  0.19358  0.04080  0.40599  1.0000
  H   H227      1.0  0.13436  0.40856  0.61175  1.0000
  S   S47       1.0  0.26960  0.01283  0.50197  1.0000
  H   H228      1.0  0.01678  0.05684  0.67660  1.0000
  H   H229      1.0  0.08311  0.38524  0.60325  1.0000
  H   H230      1.0  0.08074  0.43495  0.41665  1.0000
  H   H231      1.0  0.12534  0.36471  0.45578  1.0000
  H   H232      1.0  0.14059  0.31801  0.42858  1.0000
  H   H233      1.0  0.07000  0.42833  0.61119  1.0000
  H   H234      1.0  0.23999  0.00842  0.37732  1.0000
  H   H235      1.0  0.19833  0.03852  0.50246  1.0000
  H   H236      1.0  0.18169  0.07640  0.51573  1.0000
  H   H237      1.0  0.42203  0.47913  0.67639  1.0000
  C   C150      1.0  0.10419  0.35701  0.44145  1.0000
  H   H238      1.0  0.08417  0.36995  0.65388  1.0000
  C   C151      1.0  0.47826  0.08486  0.38622  1.0000
  C   C152      1.0  0.13928  0.00685  0.49054  1.0000
  H   H239      1.0  0.40220  0.41877  0.67990  1.0000
  H   H240      1.0  0.09450  0.06413  0.48795  1.0000
  H   H241      1.0  0.13106  0.41799  0.39460  1.0000
  H   H242      1.0  0.06644  0.39411  0.38230  1.0000
  H   H243      1.0  0.15124  0.41655  0.69180  1.0000
  H   H244      1.0  0.15275  0.05141  0.36673  1.0000
  H   H245      1.0  0.10147  0.04353  0.52126  1.0000
  H   H246      1.0  0.48612  0.45374  0.37986  1.0000
  C   C153      1.0  0.01184  0.10545  0.69709  1.0000
  C   C154      1.0  0.99922  0.34772  0.49509  1.0000
  C   C155      1.0  0.46451  0.38889  0.36662  1.0000
  H   H247      1.0  0.13179  0.99556  0.51144  1.0000
  H   H248      1.0  0.16370  0.46864  0.66840  1.0000
  H   H249      1.0  0.48811  0.05182  0.59981  1.0000
  H   H250      1.0  0.43425  0.15845  0.37247  1.0000
  S   S48       1.0  0.48591  0.22442  0.36855  1.0000
  Fe  Fe24      1.0  0.48667  0.99890  0.64868  1.0000
  H   H251      1.0  0.48432  0.48253  0.66624  1.0000
  H   H252      1.0  0.42319  0.20343  0.69405  1.0000
  H   H253      1.0  0.09191  0.11005  0.68632  1.0000
  H   H254      1.0  0.46362  0.06517  0.37434  1.0000
  Fe  Fe25      1.0  0.29682  0.46733  0.69296  1.0000
  C   C156      1.0  0.01486  0.14073  0.69319  1.0000
  C   C157      1.0  0.26450  0.01133  0.36613  1.0000
  H   H255      1.0  0.12049  0.99867  0.44648  1.0000
  C   C158      1.0  0.11182  0.99557  0.46896  1.0000
  H   H256      1.0  0.38761  0.17772  0.79696  1.0000
  H   H257      1.0  0.37080  0.23779  0.71348  1.0000
  H   H258      1.0  0.45877  0.39398  0.92577  1.0000
  Fe  Fe26      1.0  0.23260  0.44786  0.72830  1.0000
  S   S49       1.0  0.25111  0.39449  0.73464  1.0000
  Fe  Fe27      1.0  0.30153  0.41885  0.74293  1.0000
  S   S50       1.0  0.33703  0.40860  0.77950  1.0000
  H   H259      1.0  0.39755  0.14525  0.77189  1.0000
  S   S51       1.0  0.28250  0.47217  0.73972  1.0000
  C   C159      1.0  0.39472  0.17304  0.77428  1.0000
  C   C160      1.0  0.36514  0.99919  0.03068  1.0000
  H   H260      1.0  0.43523  0.12007  0.88987  1.0000
  H   H261      1.0  0.18214  0.40028  0.78440  1.0000
  H   H262      1.0  0.30022  0.33511  0.83116  1.0000
  S   S52       1.0  0.34618  0.00213  0.99602  1.0000
  Fe  Fe28      1.0  0.03532  0.45253  0.92446  1.0000
  S   S53       1.0  0.05591  0.40598  0.94802  1.0000
  H   H263      1.0  0.01316  0.02712  0.89644  1.0000
  S   S54       1.0  0.41462  0.26316  0.88407  1.0000
  H   H264      1.0  0.39786  0.36387  0.70179  1.0000
  S   S55       1.0  0.43316  0.19587  0.84518  1.0000
  Fe  Fe29      1.0  0.41391  0.24850  0.83764  1.0000
  S   S56       1.0  0.37132  0.25563  0.80621  1.0000
  Fe  Fe30      1.0  0.43926  0.21284  0.89076  1.0000
  S   S57       1.0  0.42549  0.18089  0.92897  1.0000
  H   H265      1.0  0.37795  0.44574  0.73858  1.0000
  N   N12       1.0  0.41223  0.05232  0.93197  1.0000
  H   H266      1.0  0.16522  0.40745  0.81972  1.0000
  Fe  Fe31      1.0  0.22504  0.04927  0.00257  1.0000
  H   H267      1.0  0.42363  0.13853  0.72994  1.0000
  N   N13       1.0  0.43953  0.19086  0.73692  1.0000
  Fe  Fe32      1.0  0.26351  0.08358  0.95459  1.0000
  H   H268      1.0  0.45569  0.33229  0.97693  1.0000
  S   S58       1.0  0.27301  0.13218  0.93034  1.0000
  C   C161      1.0  0.00071  0.35024  0.00581  1.0000
  C   C162      1.0  0.46519  0.14710  0.70150  1.0000
  S   S59       1.0  0.21014  0.06453  0.95808  1.0000
  S   S60       1.0  0.27663  0.07343  0.00054  1.0000
  C   C163      1.0  0.31484  0.14735  0.93108  1.0000
  C   C164      1.0  0.33640  0.13948  0.95380  1.0000
  C   C165      1.0  0.37013  0.15078  0.95344  1.0000
  C   C166      1.0  0.38250  0.16955  0.93019  1.0000
  C   C167      1.0  0.36072  0.17817  0.90784  1.0000
  C   C168      1.0  0.32687  0.16729  0.90840  1.0000
  H   H269      1.0  0.32715  0.12445  0.97154  1.0000
  H   H270      1.0  0.38677  0.14438  0.97096  1.0000
  H   H271      1.0  0.37001  0.19278  0.88987  1.0000
  H   H272      1.0  0.31022  0.17358  0.89085  1.0000
  S   S61       1.0  0.99880  0.08970  0.73113  1.0000
  H   H273      1.0  0.15400  0.10158  0.98965  1.0000
  H   H274      1.0  0.11707  0.04589  0.75272  1.0000
  H   H275      1.0  0.07241  0.07739  0.73035  1.0000
  C   C169      1.0  0.47834  0.38102  0.93754  1.0000
  H   H276      1.0  0.13688  0.18891  0.92222  1.0000
  H   H277      1.0  0.42499  0.09126  0.98245  1.0000
  C   C170      1.0  0.39879  0.22899  0.99450  1.0000
  H   H278      1.0  0.49097  0.15828  0.70094  1.0000
  H   H279      1.0  0.38938  0.21499  0.01355  1.0000
  C   C171      1.0  0.00980  0.37496  0.98528  1.0000
  H   H280      1.0  0.11483  0.44636  0.77249  1.0000
  C   C172      1.0  0.16200  0.18717  0.93281  1.0000
  H   H281      1.0  0.46318  0.14301  0.74726  1.0000
  H   H282      1.0  0.00936  0.15757  0.71090  1.0000
  S   S62       1.0  0.07801  0.02424  0.83206  1.0000
  H   H283      1.0  0.46842  0.11925  0.69912  1.0000
  H   H284      1.0  0.17693  0.40851  0.86516  1.0000
  C   C173      1.0  0.04290  0.37655  0.97482  1.0000
  C   C174      1.0  0.06677  0.35346  0.98547  1.0000
  C   C175      1.0  0.05781  0.32911  0.00629  1.0000
  H   H285      1.0  0.09244  0.35441  0.97755  1.0000
  H   H286      1.0  0.07649  0.31156  0.01418  1.0000
  H   H287      1.0  0.15797  0.36809  0.80171  1.0000
  C   C176      1.0  0.34750  0.36605  0.78563  1.0000
  C   C177      1.0  0.33203  0.33986  0.77010  1.0000
  C   C178      1.0  0.33960  0.30596  0.77644  1.0000
  C   C179      1.0  0.36285  0.29820  0.79809  1.0000
  C   C180      1.0  0.37872  0.32444  0.81325  1.0000
  C   C181      1.0  0.37092  0.35831  0.80710  1.0000
  H   H288      1.0  0.31395  0.34569  0.75348  1.0000
  H   H289      1.0  0.32731  0.28570  0.76466  1.0000
  H   H290      1.0  0.39668  0.31865  0.82999  1.0000
  H   H291      1.0  0.38291  0.37850  0.81919  1.0000
  H   H292      1.0  0.36024  0.03676  0.93829  1.0000
  H   H293      1.0  0.45599  0.28735  0.94233  1.0000
  C   C182      1.0  0.47913  0.25217  0.97070  1.0000
  H   H294      1.0  0.07118  0.06972  0.78169  1.0000
  H   H295      1.0  0.37013  0.09916  0.89904  1.0000
  H   H296      1.0  0.11715  0.13900  0.94066  1.0000
  H   H297      1.0  0.04239  0.12668  0.77198  1.0000
  C   C183      1.0  0.10910  0.10309  0.70417  1.0000
  H   H298      1.0  0.16456  0.04443  0.90574  1.0000
  H   H299      1.0  0.20094  0.42543  0.89406  1.0000
  H   H300      1.0  0.44256  0.35955  0.02196  1.0000
  N   N14       1.0  0.10884  0.09972  0.75951  1.0000
  C   C184      1.0  0.13184  0.06934  0.75761  1.0000
  C   C185      1.0  0.08851  0.10055  0.73217  1.0000
  C   C186      1.0  0.08530  0.09399  0.78450  1.0000
  C   C187      1.0  0.13015  0.13119  0.76392  1.0000
  H   H301      1.0  0.11412  0.12333  0.99347  1.0000
  C   C188      1.0  0.05897  0.12159  0.79055  1.0000
  C   C189      1.0  0.11453  0.16540  0.75474  1.0000
  S   S63       1.0  0.17820  0.45643  0.74354  1.0000
  H   H302      1.0  0.15015  0.07224  0.73968  1.0000
  H   H303      1.0  0.40863  0.01630  0.96693  1.0000
  H   H304      1.0  0.46729  0.30614  0.00575  1.0000
  H   H305      1.0  0.26156  0.46328  0.84451  1.0000
  H   H306      1.0  0.13773  0.13356  0.78684  1.0000
  H   H307      1.0  0.15415  0.12898  0.75157  1.0000
  C   C190      1.0  0.44933  0.44319  0.73902  1.0000
  H   H308      1.0  0.21019  0.34511  0.70039  1.0000
  H   H309      1.0  0.44922  0.03505  0.96297  1.0000
  H   H310      1.0  0.45877  0.08132  0.93391  1.0000
  H   H311      1.0  0.40299  0.35012  0.00548  1.0000
  H   H312      1.0  0.20763  0.13963  0.95620  1.0000
  H   H313      1.0  0.12322  0.18552  0.76979  1.0000
  H   H314      1.0  0.11418  0.40867  0.73030  1.0000
  H   H315      1.0  0.12925  0.12263  0.70525  1.0000
  N   N15       1.0  0.15962  0.16610  0.95966  1.0000
  C   C191      1.0  0.14089  0.13371  0.95254  1.0000
  H   H316      1.0  0.07108  0.14526  0.79839  1.0000
  C   C192      1.0  0.14154  0.18613  0.98244  1.0000
  C   C193      1.0  0.19411  0.15721  0.97081  1.0000
  C   C194      1.0  0.44500  0.31572  0.99383  1.0000
  H   H317      1.0  0.28897  0.44801  0.81602  1.0000
  C   C195      1.0  0.02462  0.32716  0.01646  1.0000
  C   C196      1.0  0.21769  0.18736  0.97816  1.0000
  H   H318      1.0  0.36254  0.05607  0.88593  1.0000
  S   S64       1.0  0.99520  0.03073  0.79683  1.0000
  C   C197      1.0  0.12965  0.46362  0.78547  1.0000
  H   H319      1.0  0.48790  0.44794  0.91148  1.0000
  H   H320      1.0  0.42182  0.10616  0.93543  1.0000
  H   H321      1.0  0.15514  0.21035  0.98704  1.0000
  H   H322      1.0  0.19192  0.14237  0.99084  1.0000
  C   C198      1.0  0.16227  0.47315  0.77641  1.0000
  H   H323      1.0  0.18183  0.14753  0.90365  1.0000
  H   H324      1.0  0.45281  0.26239  0.74453  1.0000
  H   H325      1.0  0.13797  0.05116  0.80206  1.0000
  H   H326      1.0  0.25858  0.47973  0.80911  1.0000
  H   H327      1.0  0.39175  0.18386  0.71446  1.0000
  C   C199      1.0  0.35977  0.07373  0.90423  1.0000
  H   H328      1.0  0.41713  0.32233  0.92712  1.0000
  H   H329      1.0  0.38737  0.06695  0.99162  1.0000
  H   H330      1.0  0.47366  0.03159  0.90755  1.0000
  S   S65       1.0  0.24233  0.99721  0.98966  1.0000
  C   C200      1.0  0.43285  0.08354  0.92482  1.0000
  Fe  Fe33      1.0  0.23049  0.01432  0.94450  1.0000
  H   H331      1.0  0.21349  0.17682  0.91691  1.0000
  N   N16       1.0  0.42514  0.28689  0.98074  1.0000
  H   H332      1.0  0.37339  0.18225  0.76113  1.0000
  C   C201      1.0  0.12693  0.03493  0.87293  1.0000
  H   H333      1.0  0.37959  0.39208  0.72697  1.0000
  Fe  Fe34      1.0  0.00266  0.03583  0.74910  1.0000
  H   H334      1.0  0.09958  0.09145  0.80488  1.0000
  H   H335      1.0  0.40774  0.35253  0.95507  1.0000
  H   H336      1.0  0.10305  0.21253  0.95675  1.0000
  H   H337      1.0  0.08667  0.16631  0.75474  1.0000
  H   H338      1.0  0.07028  0.12162  0.73191  1.0000
  C   C202      1.0  0.42788  0.19227  0.76768  1.0000
  H   H339      1.0  0.47708  0.21577  0.71018  1.0000
  H   H340      1.0  0.44783  0.18209  0.78206  1.0000
  Fe  Fe35      1.0  0.29350  0.02230  0.98482  1.0000
  C   C203      1.0  0.41284  0.20258  0.71620  1.0000
  H   H341      1.0  0.18426  0.18986  0.89017  1.0000
  C   C204      1.0  0.39722  0.23781  0.72149  1.0000
  S   S66       1.0  0.48297  0.48139  0.00927  1.0000
  H   H342      1.0  0.39538  0.27513  0.01842  1.0000
  H   H343      1.0  0.42425  0.21856  0.77536  1.0000
  H   H344      1.0  0.02945  0.34488  0.91672  1.0000
  Fe  Fe36      1.0  0.04388  0.00148  0.79706  1.0000
  H   H345      1.0  0.19994  0.44824  0.86127  1.0000
  H   H346      1.0  0.43054  0.45287  0.78272  1.0000
  C   C205      1.0  0.99349  0.01857  0.88112  1.0000
  H   H347      1.0  0.08839  0.17300  0.97243  1.0000
  C   C206      1.0  0.41450  0.26300  0.00431  1.0000
  H   H348      1.0  0.15610  0.11768  0.93779  1.0000
  N   N17       1.0  0.23638  0.39668  0.82933  1.0000
  C   C207      1.0  0.27035  0.38044  0.82447  1.0000
  C   C208      1.0  0.23612  0.42962  0.81300  1.0000
  C   C209      1.0  0.20951  0.37269  0.81784  1.0000
  C   C210      1.0  0.23202  0.40234  0.86110  1.0000
  C   C211      1.0  0.27509  0.34491  0.83767  1.0000
  H   H349      1.0  0.36880  0.07906  0.94868  1.0000
  C   C212      1.0  0.17698  0.38843  0.80552  1.0000
  C   C213      1.0  0.20055  0.42233  0.87039  1.0000
  H   H350      1.0  0.27541  0.37806  0.80105  1.0000
  H   H351      1.0  0.29121  0.39632  0.83332  1.0000
  H   H352      1.0  0.21153  0.44243  0.81517  1.0000
  H   H353      1.0  0.23910  0.42477  0.78966  1.0000
  H   H354      1.0  0.21960  0.35716  0.79977  1.0000
  H   H355      1.0  0.20173  0.35403  0.83450  1.0000
  H   H356      1.0  0.23054  0.37775  0.87264  1.0000
  H   H357      1.0  0.25449  0.41565  0.87015  1.0000
  H   H358      1.0  0.27509  0.34578  0.86142  1.0000
  H   H359      1.0  0.25609  0.32626  0.82997  1.0000
  H   H360      1.0  0.42189  0.37580  0.73247  1.0000
  H   H361      1.0  0.37698  0.23232  0.97992  1.0000
  H   H362      1.0  0.48081  0.41899  0.97107  1.0000
  H   H363      1.0  0.46196  0.99571  0.92965  1.0000
  H   H364      1.0  0.41939  0.08048  0.87778  1.0000
  H   H365      1.0  0.21228  0.19748  0.99989  1.0000
  H   H366      1.0  0.11809  0.08790  0.96996  1.0000
  S   S67       1.0  0.04097  0.45262  0.87635  1.0000
  C   C214      1.0  0.15434  0.02618  0.89070  1.0000
  H   H367      1.0  0.14159  0.17241  0.00315  1.0000
  C   C215      1.0  0.39386  0.29947  0.96576  1.0000
  H   H368      1.0  0.40246  0.00084  0.91802  1.0000
  H   H369      1.0  0.47785  0.07766  0.79567  1.0000
  H   H370      1.0  0.11620  0.05999  0.87460  1.0000
  C   C216      1.0  0.18685  0.17425  0.90980  1.0000
  C   C217      1.0  0.43415  0.43112  0.76789  1.0000
  H   H371      1.0  0.06287  0.99432  0.89299  1.0000
  H   H372      1.0  0.47358  0.23322  0.98753  1.0000
  H   H373      1.0  0.09071  0.46870  0.81782  1.0000
  C   C218      1.0  0.26306  0.45622  0.82156  1.0000
  H   H374      1.0  0.37472  0.33458  0.93385  1.0000
  H   H375      1.0  0.33223  0.07744  0.90732  1.0000
  S   S68       1.0  0.46466  0.27105  0.82862  1.0000
  H   H376      1.0  0.47711  0.24190  0.77219  1.0000
  C   C219      1.0  0.39916  0.32887  0.94440  1.0000
  H   H377      1.0  0.08984  0.43611  0.70785  1.0000
  H   H378      1.0  0.04209  0.11256  0.80802  1.0000
  C   C220      1.0  0.41471  0.06554  0.98655  1.0000
  H   H379      1.0  0.46970  0.42519  0.73297  1.0000
  C   C221      1.0  0.41846  0.02305  0.91183  1.0000
  C   C222      1.0  0.44712  0.15417  0.73023  1.0000
  H   H380      1.0  0.02828  0.35439  0.87954  1.0000
  H   H381      1.0  0.41038  0.41651  0.76639  1.0000
  H   H382      1.0  0.15295  0.31923  0.70004  1.0000
  H   H383      1.0  0.09420  0.20978  0.99419  1.0000
  C   C223      1.0  0.13144  0.11081  0.97814  1.0000
  C   C224      1.0  0.43768  0.09222  0.89268  1.0000
  C   C225      1.0  0.37494  0.05986  0.93220  1.0000
  C   C226      1.0  0.39160  0.46229  0.72338  1.0000
  H   H384      1.0  0.99455  0.03639  0.86276  1.0000
  H   H385      1.0  0.21612  0.20835  0.96261  1.0000
  H   H386      1.0  0.17221  0.04198  0.77893  1.0000
  C   C227      1.0  0.44707  0.26928  0.95895  1.0000
  H   H387      1.0  0.39498  0.24489  0.74432  1.0000
  H   H388      1.0  0.46374  0.08615  0.88560  1.0000
  H   H389      1.0  0.12416  0.17319  0.73337  1.0000
  H   H390      1.0  0.00151  0.32105  0.89433  1.0000
  N   N18       1.0  0.42510  0.44772  0.71433  1.0000
  H   H391      1.0  0.16772  0.08428  0.79209  1.0000
  S   S69       1.0  0.28343  0.03422  0.93818  1.0000
  H   H392      1.0  0.41051  0.02869  0.88964  1.0000
  H   H393      1.0  0.16896  0.21391  0.93783  1.0000
  H   H394      1.0  0.37448  0.30776  0.98153  1.0000
  S   S70       1.0  0.47789  0.33613  0.89236  1.0000
  C   C228      1.0  0.01227  0.34668  0.89796  1.0000
  C   C229      1.0  0.15344  0.06180  0.78440  1.0000
  H   H395      1.0  0.43612  0.25712  0.01868  1.0000
  H   H396      1.0  0.24434  0.17876  0.97725  1.0000
  C   C230      1.0  0.47433  0.24552  0.74877  1.0000
  Fe  Fe37      1.0  0.46749  0.28214  0.87609  1.0000
  H   H397      1.0  0.41159  0.25783  0.70996  1.0000
  C   C231      1.0  0.42176  0.04058  0.96169  1.0000
  H   H398      1.0  0.43235  0.24981  0.94696  1.0000
  C   C232      1.0  0.10471  0.19561  0.97561  1.0000
  H   H399      1.0  0.38165  0.27863  0.95330  1.0000
  C   C233      1.0  0.42563  0.33841  0.01513  1.0000
  C   C234      1.0  0.11587  0.47624  0.81126  1.0000
  C   C235      1.0  0.10131  0.41063  0.70922  1.0000
  H   H400      1.0  0.41770  0.21247  0.98410  1.0000
  C   C236      1.0  0.11321  0.01156  0.85318  1.0000
  S   S71       1.0  0.05220  0.00884  0.74971  1.0000
  H   H401      1.0  0.42707  0.05600  0.00630  1.0000
  C   C237      1.0  0.47184  0.21103  0.73328  1.0000
  H   H402      1.0  0.46231  0.46769  0.74388  1.0000
  H   H403      1.0  0.45257  0.41431  0.77871  1.0000
  H   H404      1.0  0.99784  0.39858  0.90499  1.0000
  C   C238      1.0  0.40365  0.38539  0.71643  1.0000
  Fe  Fe38      1.0  0.48437  0.21876  0.83831  1.0000
  C   C239      1.0  0.45528  0.01058  0.91032  1.0000
  H   H405      1.0  0.08099  0.39109  0.70894  1.0000
  H   H406      1.0  0.37438  0.46407  0.70457  1.0000
  H   H407      1.0  0.48110  0.13419  0.81927  1.0000
  H   H408      1.0  0.47583  0.49138  0.90974  1.0000
  H   H409      1.0  0.49158  0.23830  0.95287  1.0000
  C   C240      1.0  0.41894  0.41465  0.69878  1.0000
  Fe  Fe39      1.0  0.99244  0.48255  0.87494  1.0000
  C   C241      1.0  0.49092  0.39535  0.96319  1.0000
  C   C242      1.0  0.49134  0.35047  0.92668  1.0000
  H   H410      1.0  0.12023  0.07824  0.69838  1.0000
  C   C243      1.0  0.41571  0.98841  0.05980  1.0000
  H   H411      1.0  0.46531  0.83228  0.16092  1.0000
  S   S72       1.0  0.02750  0.68212  0.04694  1.0000
  H   H412      1.0  0.40457  0.84890  0.18275  1.0000
  H   H413      1.0  0.41513  0.94078  0.17220  1.0000
  H   H414      1.0  0.12829  0.72704  0.14973  1.0000
  C   C244      1.0  0.02294  0.88142  0.20038  1.0000
  H   H415      1.0  0.44227  0.98233  0.06101  1.0000
  H   H416      1.0  0.37997  0.87523  0.16012  1.0000
  H   H417      1.0  0.48416  0.90975  0.23303  1.0000
  C   C245      1.0  0.02252  0.87428  0.17075  1.0000
  H   H418      1.0  0.11363  0.79168  0.17340  1.0000
  H   H419      1.0  0.36395  0.81798  0.15148  1.0000
  H   H420      1.0  0.07357  0.70499  0.16115  1.0000
  H   H421      1.0  0.06983  0.79342  0.08328  1.0000
  C   C246      1.0  0.42566  0.89814  0.12511  1.0000
  H   H422      1.0  0.04877  0.73322  0.20281  1.0000
  S   S73       1.0  0.41507  0.98541  0.11963  1.0000
  H   H423      1.0  0.04848  0.72839  0.10125  1.0000
  C   C247      1.0  0.44749  0.89526  0.17398  1.0000
  H   H424      1.0  0.47000  0.91016  0.16713  1.0000
  H   H425      1.0  0.38835  0.87857  0.09425  1.0000
  C   C248      1.0  0.11936  0.75092  0.13966  1.0000
  H   H426      1.0  0.14998  0.54437  0.29745  1.0000
  H   H427      1.0  0.40413  0.91481  0.13081  1.0000
  S   S74       1.0  0.04260  0.91970  0.21273  1.0000
  C   C249      1.0  0.99790  0.82557  0.20858  1.0000
  H   H428      1.0  0.23388  0.55734  0.18987  1.0000
  H   H429      1.0  0.22947  0.59963  0.20464  1.0000
  C   C250      1.0  0.06566  0.74749  0.18805  1.0000
  H   H430      1.0  0.43658  0.93470  0.20521  1.0000
  H   H431      1.0  0.10681  0.52769  0.33370  1.0000
  H   H432      1.0  0.05663  0.77398  0.18842  1.0000
  C   C251      1.0  0.45959  0.84829  0.14188  1.0000
  H   H433      1.0  0.15367  0.77196  0.17173  1.0000
  H   H434      1.0  0.41481  0.51078  0.17398  1.0000
  C   C252      1.0  0.06363  0.73100  0.15814  1.0000
  H   H435      1.0  0.30778  0.97773  0.35743  1.0000
  C   C253      1.0  0.99746  0.81847  0.17897  1.0000
  C   C254      1.0  0.39976  0.99147  0.03284  1.0000
  H   H436      1.0  0.42386  0.90027  0.07865  1.0000
  C   C255      1.0  0.41610  0.88243  0.09590  1.0000
  H   H437      1.0  0.07052  0.83018  0.10547  1.0000
  H   H438      1.0  0.29872  0.54143  0.19127  1.0000
  Fe  Fe40      1.0  0.06446  0.98880  0.30681  1.0000
  H   H439      1.0  0.32321  0.53093  0.28870  1.0000
  H   H440      1.0  0.13322  0.75307  0.11893  1.0000
  H   H441      1.0  0.03634  0.72780  0.15274  1.0000
  H   H442      1.0  0.44665  0.91646  0.12143  1.0000
  C   C256      1.0  0.40150  0.85716  0.16005  1.0000
  H   H443      1.0  0.06853  0.79987  0.14863  1.0000
  C   C257      1.0  0.38949  0.82526  0.14368  1.0000
  C   C258      1.0  0.25592  0.56320  0.23299  1.0000
  H   H444      1.0  0.45044  0.83017  0.12542  1.0000
  H   H445      1.0  0.40625  0.80340  0.14800  1.0000
  C   C259      1.0  0.08706  0.69113  0.10779  1.0000
  H   H446      1.0  0.31376  0.52489  0.23745  1.0000
  N   N19       1.0  0.29219  0.57398  0.22822  1.0000
  C   C260      1.0  0.31428  0.55118  0.24611  1.0000
  C   C261      1.0  0.30201  0.56863  0.19728  1.0000
  C   C262      1.0  0.40083  0.50116  0.15575  1.0000
  C   C263      1.0  0.29800  0.60991  0.23815  1.0000
  C   C264      1.0  0.07970  0.80368  0.10383  1.0000
  H   H447      1.0  0.26685  0.95661  0.35614  1.0000
  H   H448      1.0  0.24616  0.57330  0.25370  1.0000
  C   C265      1.0  0.28095  0.63827  0.22081  1.0000
  H   H449      1.0  0.08665  0.68078  0.08560  1.0000
  H   H450      1.0  0.34119  0.55936  0.24527  1.0000
  H   H451      1.0  0.28523  0.58226  0.18231  1.0000
  H   H452      1.0  0.38746  0.82925  0.12034  1.0000
  C   C266      1.0  0.41628  0.50064  0.12847  1.0000
  H   H453      1.0  0.27961  0.53745  0.28172  1.0000
  H   H454      1.0  0.28879  0.61319  0.26050  1.0000
  H   H455      1.0  0.32546  0.61600  0.23981  1.0000
  H   H456      1.0  0.30740  0.57311  0.28954  1.0000
  H   H457      1.0  0.34217  0.57445  0.16592  1.0000
  H   H458      1.0  0.34295  0.60667  0.19294  1.0000
  H   H459      1.0  0.10763  0.80459  0.10312  1.0000
  N   N20       1.0  0.43336  0.87439  0.14950  1.0000
  H   H460      1.0  0.20427  0.56538  0.21766  1.0000
  C   C267      1.0  0.30516  0.54847  0.27826  1.0000
  H   H461      1.0  0.01050  0.86179  0.24203  1.0000
  H   H462      1.0  0.14285  0.80133  0.14478  1.0000
  H   H463      1.0  0.25530  0.64358  0.22932  1.0000
  H   H464      1.0  0.27938  0.63312  0.19758  1.0000
  H   H465      1.0  0.29641  0.66179  0.22259  1.0000
  C   C268      1.0  0.22987  0.57236  0.20973  1.0000
  H   H466      1.0  0.08912  0.74004  0.08844  1.0000
  H   H467      1.0  0.35765  0.56406  0.20042  1.0000
  H   H468      1.0  0.03246  0.89289  0.15595  1.0000
  C   C269      1.0  0.07579  0.72852  0.10706  1.0000
  H   H469      1.0  0.00914  0.83849  0.13724  1.0000
  H   H470      1.0  0.25426  0.53514  0.23492  1.0000
  C   C270      1.0  0.33834  0.57928  0.18918  1.0000
  N   N21       1.0  0.08183  0.74894  0.13409  1.0000
  C   C271      1.0  0.42315  0.92113  0.18767  1.0000
  S   S75       1.0  0.03457  0.93994  0.30081  1.0000
  H   H471      1.0  0.49002  0.87858  0.11147  1.0000
  C   C272      1.0  0.13224  0.78081  0.15841  1.0000
  H   H472      1.0  0.45650  0.87846  0.19152  1.0000
  H   H473      1.0  0.09149  0.74587  0.19707  1.0000
  H   H474      1.0  0.20872  0.98080  0.34621  1.0000
  C   C273      1.0  0.06614  0.78327  0.12960  1.0000
  H   H475      1.0  0.03842  0.78056  0.12662  1.0000
  S   S76       1.0  0.99353  0.77111  0.07929  1.0000
  C   C274      1.0  0.00937  0.84333  0.16006  1.0000
  H   H476      1.0  0.06915  0.67528  0.12032  1.0000
  Fe  Fe41      1.0  0.03370  0.95184  0.25329  1.0000
  H   H477      1.0  0.46647  0.86931  0.27119  1.0000
  Fe  Fe42      1.0  0.47066  0.98904  0.13311  1.0000
  H   H478      1.0  0.11311  0.68806  0.11595  1.0000
  C   C275      1.0  0.14728  0.51805  0.30345  1.0000
  S   S77       1.0  0.19917  0.50661  0.26496  1.0000
  C   C276      1.0  0.12273  0.50866  0.32402  1.0000
  H   H479      1.0  0.44190  0.50984  0.12583  1.0000
  H   H480      1.0  0.40071  0.90885  0.19745  1.0000
  H   H481      1.0  0.42927  0.85859  0.09085  1.0000
  C   C277      1.0  0.39702  0.99217  0.08506  1.0000
  C   C278      1.0  0.01009  0.85695  0.21920  1.0000
  H   H482      1.0  0.21121  0.95893  0.31334  1.0000
  Fe  Fe43      1.0  0.47150  0.49467  0.05535  1.0000
  H   H483      1.0  0.26558  0.98130  0.31070  1.0000
  C   C279      1.0  0.49064  0.86624  0.26072  1.0000
  C   C280      1.0  0.21253  0.98468  0.32298  1.0000
  S   S78       1.0  0.48228  0.99350  0.18056  1.0000
  C   C281      1.0  0.43124  0.83911  0.68356  1.0000
  H   H484      1.0  0.43116  0.53527  0.61576  1.0000
  H   H485      1.0  0.41410  0.62840  0.57998  1.0000
  H   H486      1.0  0.99351  0.84893  0.45495  1.0000
  C   C282      1.0  0.43403  0.98179  0.57142  1.0000
  H   H487      1.0  0.39777  0.93912  0.63256  1.0000
  H   H488      1.0  0.00118  0.61645  0.59407  1.0000
  C   C283      1.0  0.34269  0.58489  0.52278  1.0000
  C   C284      1.0  0.38440  0.52344  0.63785  1.0000
  S   S79       1.0  0.05502  0.50904  0.42811  1.0000
  S   S80       1.0  0.48885  0.98063  0.69432  1.0000
  H   H489      1.0  0.05216  0.61739  0.52355  1.0000
  S   S81       1.0  0.21045  0.97878  0.43763  1.0000
  H   H490      1.0  0.45834  0.62115  0.58292  1.0000
  H   H491      1.0  0.45116  0.86935  0.59856  1.0000
  C   C285      1.0  0.13715  0.96759  0.37643  1.0000
  H   H492      1.0  0.12197  0.94701  0.36792  1.0000
  H   H493      1.0  0.37997  0.54934  0.64445  1.0000
  C   C286      1.0  0.46068  0.88707  0.61544  1.0000
  H   H494      1.0  0.40180  0.91875  0.59794  1.0000
  H   H495      1.0  0.42104  0.58974  0.45969  1.0000
  H   H496      1.0  0.00346  0.85616  0.57834  1.0000
  N   N22       1.0  0.44065  0.88308  0.64287  1.0000
  H   H497      1.0  0.37969  0.62523  0.52812  1.0000
  S   S82       1.0  0.00721  0.52535  0.37222  1.0000
  C   C287      1.0  0.40380  0.88334  0.63457  1.0000
  C   C288      1.0  0.39152  0.91609  0.61995  1.0000
  C   C289      1.0  0.03433  0.62650  0.50784  1.0000
  H   H498      1.0  0.10678  0.96805  0.47178  1.0000
  C   C290      1.0  0.41320  0.51566  0.62128  1.0000
  H   H499      1.0  0.39807  0.86188  0.61971  1.0000
  C   C291      1.0  0.02993  0.60856  0.48190  1.0000
  C   C292      1.0  0.01664  0.84365  0.65699  1.0000
  H   H500      1.0  0.44049  0.62161  0.53256  1.0000
  H   H501      1.0  0.43511  0.61834  0.48650  1.0000
  S   S83       1.0  0.47676  0.49916  0.51607  1.0000
  C   C293      1.0  0.37539  0.59906  0.53635  1.0000
  C   C294      1.0  0.41512  0.59948  0.48148  1.0000
  H   H502      1.0  0.32645  0.60633  0.51611  1.0000
  H   H503      1.0  0.13407  0.50196  0.66384  1.0000
  H   H504      1.0  0.45756  0.91300  0.60646  1.0000
  H   H505      1.0  0.16311  0.99382  0.48425  1.0000
  H   H506      1.0  0.39668  0.55068  0.49336  1.0000
  C   C295      1.0  0.45018  0.91165  0.66293  1.0000
  H   H507      1.0  0.43970  0.55695  0.50101  1.0000
  H   H508      1.0  0.99555  0.88190  0.37076  1.0000
  N   N23       1.0  0.40668  0.57779  0.53344  1.0000
  H   H509      1.0  0.46005  0.58318  0.54278  1.0000
  H   H510      1.0  0.45372  0.93560  0.65065  1.0000
  C   C296      1.0  0.41464  0.56936  0.50257  1.0000
  H   H511      1.0  0.05098  0.88642  0.65629  1.0000
  C   C297      1.0  0.16012  0.96168  0.39906  1.0000
  S   S84       1.0  0.32778  0.50803  0.66992  1.0000
  H   H512      1.0  0.39043  0.55122  0.57181  1.0000
  C   C298      1.0  0.42511  0.92013  0.68743  1.0000
  H   H513      1.0  0.36919  0.60316  0.55936  1.0000
  C   C299      1.0  0.18098  0.98785  0.40979  1.0000
  H   H514      1.0  0.04446  0.58596  0.47769  1.0000
  H   H515      1.0  0.00908  0.88628  0.60635  1.0000
  H   H516      1.0  0.39027  0.61214  0.48014  1.0000
  C   C300      1.0  0.40373  0.54589  0.55128  1.0000
  H   H517      1.0  0.99439  0.92171  0.38789  1.0000
  S   S85       1.0  0.02069  0.67659  0.54740  1.0000
  Fe  Fe44      1.0  0.01184  0.54398  0.41809  1.0000
  H   H518      1.0  0.32843  0.56917  0.53844  1.0000
  C   C301      1.0  0.43630  0.59798  0.54497  1.0000
  C   C302      1.0  0.03080  0.87396  0.66791  1.0000
  C   C303      1.0  0.01564  0.65592  0.51373  1.0000
  H   H519      1.0  0.36358  0.91512  0.61780  1.0000
  C   C304      1.0  0.43397  0.60911  0.57665  1.0000
  H   H520      1.0  0.16217  0.93647  0.40795  1.0000
  H   H521      1.0  0.40340  0.83853  0.68142  1.0000
  H   H522      1.0  0.42919  0.53647  0.55757  1.0000
  C   C305      1.0  0.01921  0.88820  0.69378  1.0000
  H   H523      1.0  0.42987  0.58751  0.59133  1.0000
  H   H524      1.0  0.44498  0.82856  0.63975  1.0000
  H   H525      1.0  0.02602  0.83289  0.63720  1.0000
  H   H526      1.0  0.43055  0.96203  0.52820  1.0000
  H   H527      1.0  0.34686  0.57003  0.50301  1.0000
  C   C306      1.0  0.28212  0.97661  0.36685  1.0000
  H   H528      1.0  0.00561  0.88400  0.40781  1.0000
  H   H529      1.0  0.38685  0.87887  0.65300  1.0000
  C   C307      1.0  0.44950  0.84920  0.65569  1.0000
  S   S86       1.0  0.37013  0.98904  0.50292  1.0000
  H   H530      1.0  0.41321  0.94515  0.68353  1.0000
  H   H531      1.0  0.45664  0.96792  0.57653  1.0000
  S   S87       1.0  0.99966  0.77388  0.57316  1.0000
  H   H532      1.0  0.00803  0.54533  0.52145  1.0000
  H   H533      1.0  0.36012  0.52070  0.52984  1.0000
  C   C308      1.0  0.41900  0.97826  0.54409  1.0000
  H   H534      1.0  0.99705  0.59413  0.54718  1.0000
  C   C309      1.0  0.00747  0.62047  0.46116  1.0000
  H   H535      1.0  0.40100  0.50351  0.52043  1.0000
  H   H536      1.0  0.40504  0.90126  0.69148  1.0000
  S   S88       1.0  0.00222  0.59996  0.42752  1.0000
  C   C310      1.0  0.38568  0.51496  0.53782  1.0000
  H   H537      1.0  0.47683  0.84821  0.66128  1.0000
  H   H538      1.0  0.28488  0.96857  0.38953  1.0000
  H   H539      1.0  0.43895  0.81298  0.68941  1.0000
  C   C311      1.0  0.36203  0.49773  0.64692  1.0000
  H   H540      1.0  0.47516  0.90667  0.67298  1.0000
  C   C312      1.0  0.99309  0.66771  0.49299  1.0000
  H   H541      1.0  0.38283  0.49504  0.55448  1.0000
  C   C313      1.0  0.00143  0.60040  0.97862  1.0000
  H   H542      1.0  0.07785  0.97496  0.92490  1.0000
  H   H543      1.0  0.39721  0.51767  0.72045  1.0000
  C   C314      1.0  0.04166  0.62764  0.01119  1.0000
  H   H544      1.0  0.01633  0.98432  0.92894  1.0000
  H   H545      1.0  0.02707  0.94108  0.93083  1.0000
  H   H546      1.0  0.43931  0.92285  0.70786  1.0000
  H   H547      1.0  0.45802  0.99325  0.89166  1.0000
  H   H548      1.0  0.06242  0.68736  0.92228  1.0000
  H   H549      1.0  0.13775  0.58003  0.94968  1.0000
  H   H550      1.0  0.10780  0.68773  0.92786  1.0000
  C   C315      1.0  0.13439  0.49900  0.82821  1.0000
  Fe  Fe45      1.0  0.01395  0.52735  0.92552  1.0000
  S   S89       1.0  0.01755  0.95101  0.79077  1.0000
  C   C316      1.0  0.09014  0.59823  0.87686  1.0000
  H   H551      1.0  0.02398  0.65112  0.88498  1.0000
  C   C317      1.0  0.08743  0.68803  0.91156  1.0000
  C   C318      1.0  0.12728  0.97920  0.85142  1.0000
  H   H552      1.0  0.11707  0.96089  0.83639  1.0000
  C   C319      1.0  0.03395  0.60254  0.99040  1.0000
  S   S90       1.0  0.03802  0.92650  0.70635  1.0000
  S   S91       1.0  0.01923  0.53278  0.87746  1.0000
  N   N24       1.0  0.00047  0.95462  0.89202  1.0000
  H   H553      1.0  0.04516  0.61064  0.85059  1.0000
  H   H554      1.0  0.07290  0.94965  0.89343  1.0000
  H   H555      1.0  0.03363  0.92685  0.86346  1.0000
  C   C320      1.0  0.05305  0.61924  0.91604  1.0000
  H   H556      1.0  0.09376  0.57253  0.94469  1.0000
  H   H557      1.0  0.20559  0.50414  0.78639  1.0000
  H   H558      1.0  0.05308  0.58489  0.98355  1.0000
  C   C321      1.0  0.15470  0.97041  0.86926  1.0000
  Fe  Fe46      1.0  0.02127  0.96101  0.74311  1.0000
  H   H559      1.0  0.12370  0.56261  0.91650  1.0000
  C   C322      1.0  0.16695  0.50870  0.81909  1.0000
  C   C323      1.0  0.07241  0.60574  0.84819  1.0000
  H   H560      1.0  0.18144  0.52648  0.83187  1.0000
  S   S92       1.0  0.20299  0.98140  0.91112  1.0000
  H   H561      1.0  0.41436  0.98756  0.01357  1.0000
  H   H562      1.0  0.16542  0.94532  0.86774  1.0000
  C   C324      1.0  0.11707  0.58098  0.93363  1.0000
  N   N25       1.0  0.08632  0.62383  0.90075  1.0000
  S   S93       1.0  0.06420  0.50161  0.93001  1.0000
  C   C325      1.0  0.06160  0.97076  0.90578  1.0000
  H   H563      1.0  0.07475  0.58307  0.83411  1.0000
  H   H564      1.0  0.01977  0.90299  0.89305  1.0000
  C   C326      1.0  0.01689  0.65054  0.02082  1.0000
  H   H565      1.0  0.07356  0.66507  0.87172  1.0000
  H   H566      1.0  0.08942  0.71279  0.90038  1.0000
  H   H567      1.0  0.08094  0.57292  0.88393  1.0000
  H   H568      1.0  0.11677  0.66182  0.87942  1.0000
  H   H569      1.0  0.13932  0.62426  0.91282  1.0000
  H   H570      1.0  0.43918  0.85548  0.70175  1.0000
  C   C327      1.0  0.11422  0.61758  0.92219  1.0000
  C   C328      1.0  0.99339  0.87157  0.70878  1.0000
  H   H571      1.0  0.05316  0.63213  0.93732  1.0000
  C   C329      1.0  0.02523  0.96270  0.91562  1.0000
  C   C330      1.0  0.09127  0.65925  0.88936  1.0000
  C   C331      1.0  0.02061  0.63013  0.90028  1.0000
  H   H572      1.0  0.11125  0.63397  0.94147  1.0000
  Fe  Fe47      1.0  0.06720  0.50259  0.88164  1.0000
  H   H573      1.0  0.11734  0.59471  0.87138  1.0000
  H   H574      1.0  0.04910  0.59214  0.92159  1.0000
  H   H575      1.0  0.08487  0.62698  0.83667  1.0000
  H   H576      1.0  0.02366  0.98304  0.85730  1.0000
  H   H577      1.0  0.00872  0.60819  0.88915  1.0000
  S   S94       1.0  0.11782  0.51639  0.86057  1.0000
  C   C332      1.0  0.18079  0.49597  0.79333  1.0000
  H   H578      1.0  0.41257  0.50008  0.75388  1.0000
  H   H579      1.0  0.06685  0.62915  0.02005  1.0000
  C   C333      1.0  0.99972  0.98233  0.86981  1.0000
  C   C334      1.0  0.01115  0.92225  0.87734  1.0000
  H   H580      1.0  0.49222  0.87092  0.78407  1.0000
  H   H581      1.0  0.36818  0.50344  0.74703  1.0000
  H   H582      1.0  0.99593  0.88352  0.84656  1.0000
  H   H583      1.0  0.00213  0.63960  0.91632  1.0000
  H   H584      1.0  0.44736  0.49669  0.70390  1.0000
  C   C335      1.0  0.39302  0.49791  0.73700  1.0000
  C   C336      1.0  0.16846  0.99380  0.88902  1.0000
  H   H585      1.0  0.94206  0.10139  0.21978  1.0000
  H   H586      1.0  0.57034  0.06351  0.10660  1.0000
  H   H587      1.0  0.86432  0.07833  0.27230  1.0000
  H   H588      1.0  0.64943  0.02530  0.15232  1.0000
  H   H589      1.0  0.92175  0.08098  0.34722  1.0000
  C   C337      1.0  0.61049  0.08272  0.06099  1.0000
  H   H590      1.0  0.88592  0.11429  0.28441  1.0000
  H   H591      1.0  0.53412  0.35469  0.31125  1.0000
  C   C338      1.0  0.94311  0.08675  0.30337  1.0000
  C   C339      1.0  0.88256  0.08683  0.28906  1.0000
  H   H592      1.0  0.90826  0.02906  0.31837  1.0000
  H   H593      1.0  0.61056  0.14521  0.13196  1.0000
  C   C340      1.0  0.50119  0.39574  0.32503  1.0000
  H   H594      1.0  0.64901  0.11163  0.08213  1.0000
  H   H595      1.0  0.60942  0.13182  0.08178  1.0000
  Fe  Fe48      1.0  0.49916  0.27807  0.35659  1.0000
  C   C341      1.0  0.63979  0.05168  0.15160  1.0000
  H   H596      1.0  0.62607  0.47872  0.09896  1.0000
  H   H597      1.0  0.51553  0.45693  0.35010  1.0000
  C   C342      1.0  0.88666  0.01039  0.27949  1.0000
  H   H598      1.0  0.62229  0.04029  0.10918  1.0000
  H   H599      1.0  0.67095  0.13890  0.15772  1.0000
  H   H600      1.0  0.66020  0.06350  0.10990  1.0000
  H   H601      1.0  0.62419  0.05833  0.06187  1.0000
  C   C343      1.0  0.62154  0.10683  0.08537  1.0000
  N   N26       1.0  0.91583  0.06872  0.28637  1.0000
  H   H602      1.0  0.66630  0.15488  0.12167  1.0000
  H   H603      1.0  0.84936  0.48129  0.34980  1.0000
  H   H604      1.0  0.95576  0.05235  0.33873  1.0000
  H   H605      1.0  0.55597  0.13647  0.12767  1.0000
  C   C344      1.0  0.63478  0.06214  0.12005  1.0000
  S   S95       1.0  0.50402  0.03261  0.12124  1.0000
  C   C345      1.0  0.50613  0.15920  0.24848  1.0000
  H   H606      1.0  0.83683  0.08752  0.31493  1.0000
  H   H607      1.0  0.65876  0.06809  0.16241  1.0000
  H   H608      1.0  0.90655  0.05738  0.24136  1.0000
  H   H609      1.0  0.50702  0.41180  0.30602  1.0000
  H   H610      1.0  0.50477  0.10042  0.34670  1.0000
  H   H611      1.0  0.61595  0.05228  0.16398  1.0000
  C   C346      1.0  0.66417  0.48874  0.13133  1.0000
  Fe  Fe49      1.0  0.51840  0.03530  0.16798  1.0000
  H   H612      1.0  0.90963  0.12007  0.24098  1.0000
  H   H613      1.0  0.67966  0.11219  0.12807  1.0000
  C   C347      1.0  0.91350  0.03203  0.29521  1.0000
  H   H614      1.0  0.57322  0.07819  0.14214  1.0000
  C   C348      1.0  0.57803  0.08591  0.11962  1.0000
  C   C349      1.0  0.55287  0.11456  0.11298  1.0000
  N   N27       1.0  0.61492  0.09419  0.11530  1.0000
  H   H615      1.0  0.87279  0.10666  0.33236  1.0000
  C   C350      1.0  0.51512  0.10811  0.21925  1.0000
  C   C351      1.0  0.62494  0.12164  0.13619  1.0000
  H   H616      1.0  0.55407  0.12282  0.09034  1.0000
  H   H617      1.0  0.52681  0.10490  0.11662  1.0000
  C   C352      1.0  0.66257  0.13239  0.13564  1.0000
  H   H618      1.0  0.58288  0.07779  0.06103  1.0000
  H   H619      1.0  0.61759  0.11502  0.15858  1.0000
  C   C353      1.0  0.50909  0.14032  0.27368  1.0000
  H   H620      1.0  0.50944  0.43651  0.15374  1.0000
  C   C354      1.0  0.49734  0.42551  0.17309  1.0000
  C   C355      1.0  0.50952  0.14324  0.22150  1.0000
  S   S96       1.0  0.51259  0.46189  0.07304  1.0000
  H   H621      1.0  0.86754  0.06119  0.32990  1.0000
  H   H622      1.0  0.86107  0.02140  0.28111  1.0000
  H   H623      1.0  0.89351  0.00591  0.25676  1.0000
  S   S97       1.0  0.50582  0.26382  0.30999  1.0000
  H   H624      1.0  0.68001  0.46791  0.12467  1.0000
  C   C356      1.0  0.51714  0.08904  0.24445  1.0000
  H   H625      1.0  0.96855  0.08110  0.29432  1.0000
  H   H626      1.0  0.51705  0.09028  0.29075  1.0000
  S   S98       1.0  0.52180  0.09001  0.18462  1.0000
  S   S99       1.0  0.50827  0.15963  0.30830  1.0000
  H   H627      1.0  0.61673  0.09452  0.04005  1.0000
  H   H628      1.0  0.93836  0.01953  0.29216  1.0000
  C   C357      1.0  0.86451  0.08537  0.31835  1.0000
  H   H629      1.0  0.52171  0.06210  0.24314  1.0000
  C   C358      1.0  0.50680  0.35870  0.31543  1.0000
  C   C359      1.0  0.94584  0.07829  0.33555  1.0000
  C   C360      1.0  0.92618  0.06930  0.25518  1.0000
  H   H630      1.0  0.96435  0.09589  0.34568  1.0000
  C   C361      1.0  0.93290  0.10468  0.24213  1.0000
  H   H631      1.0  0.95297  0.11893  0.25365  1.0000
  H   H632      1.0  0.52135  0.40136  0.34105  1.0000
  H   H633      1.0  0.94950  0.05406  0.25184  1.0000
  C   C362      1.0  0.51451  0.10514  0.27146  1.0000
  S   S100      1.0  0.56276  0.00029  0.16178  1.0000
  H   H634      1.0  0.94037  0.11475  0.30175  1.0000
  S   S101      1.0  0.57622  0.99799  0.07420  1.0000
  H   H635      1.0  0.50804  0.15831  0.20222  1.0000
  H   H636      1.0  0.50407  0.44253  0.19125  1.0000
  H   H637      1.0  0.49926  0.34023  0.33196  1.0000
  H   H638      1.0  0.50218  0.18626  0.24977  1.0000
  H   H639      1.0  0.50827  0.40035  0.17786  1.0000
  H   H640      1.0  0.49325  0.35270  0.29522  1.0000
  Fe  Fe50      1.0  0.54590  0.99462  0.11601  1.0000
  C   C363      1.0  0.86565  0.49345  0.33423  1.0000
  Fe  Fe51      1.0  0.56280  0.01089  0.64668  1.0000
  H   H641      1.0  0.96571  0.13823  0.60870  1.0000
  S   S102      1.0  0.70488  0.01332  0.51184  1.0000
  Fe  Fe52      1.0  0.96977  0.48822  0.39020  1.0000
  C   C364      1.0  0.63084  0.02493  0.58823  1.0000
  C   C365      1.0  0.52775  0.00739  0.56694  1.0000
  H   H642      1.0  0.58254  0.02693  0.54583  1.0000
  C   C366      1.0  0.94832  0.15782  0.61707  1.0000
  H   H643      1.0  0.95210  0.15823  0.64068  1.0000
  C   C367      1.0  0.91198  0.19284  0.56830  1.0000
  C   C368      1.0  0.90639  0.99997  0.39830  1.0000
  H   H644      1.0  0.98107  0.33040  0.48562  1.0000
  H   H645      1.0  0.60311  0.47949  0.61380  1.0000
  H   H646      1.0  0.52674  0.11207  0.37923  1.0000
  H   H647      1.0  0.49967  0.09369  0.52078  1.0000
  H   H648      1.0  0.67974  0.06999  0.54149  1.0000
  S   S103      1.0  0.91702  0.47862  0.37188  1.0000
  S   S104      1.0  0.60232  0.03437  0.61681  1.0000
  H   H649      1.0  0.97692  0.20074  0.51586  1.0000
  S   S105      1.0  0.53477  0.45514  0.54950  1.0000
  H   H650      1.0  0.92176  0.15009  0.61315  1.0000
  H   H651      1.0  0.91393  0.21482  0.52369  1.0000
  C   C369      1.0  0.96061  0.23416  0.56609  1.0000
  C   C370      1.0  0.94443  0.26290  0.58376  1.0000
  H   H652      1.0  0.54817  0.06733  0.58528  1.0000
  H   H653      1.0  0.55933  0.08878  0.51113  1.0000
  H   H654      1.0  0.57458  0.36874  0.40421  1.0000
  H   H655      1.0  0.63356  0.47358  0.66020  1.0000
  H   H656      1.0  0.64093  0.07805  0.58206  1.0000
  H   H657      1.0  0.98845  0.23655  0.56858  1.0000
  C   C371      1.0  0.64517  0.48758  0.64286  1.0000
  C   C372      1.0  0.66832  0.04803  0.55153  1.0000
  H   H658      1.0  0.87611  0.19312  0.53291  1.0000
  N   N28       1.0  0.52914  0.03901  0.54882  1.0000
  H   H659      1.0  0.56045  0.02274  0.51307  1.0000
  H   H660      1.0  0.50357  0.00552  0.57884  1.0000
  H   H661      1.0  0.94953  0.28752  0.57299  1.0000
  H   H662      1.0  0.95629  0.24040  0.54329  1.0000
  C   C373      1.0  0.57730  0.07323  0.52344  1.0000
  H   H663      1.0  0.88350  0.23380  0.54765  1.0000
  H   H664      1.0  0.56038  0.41174  0.44147  1.0000
  S   S106      1.0  0.51876  0.04472  0.65829  1.0000
  C   C374      1.0  0.96915  0.17558  0.52417  1.0000
  C   C375      1.0  0.55016  0.36790  0.41458  1.0000
  S   S107      1.0  0.49754  0.42302  0.47427  1.0000
  H   H665      1.0  0.91569  0.01837  0.41366  1.0000
  S   S108      1.0  0.53707  0.31344  0.37884  1.0000
  N   N29       1.0  0.94922  0.19868  0.57353  1.0000
  H   H666      1.0  0.95594  0.26475  0.60540  1.0000
  Fe  Fe53      1.0  0.51941  0.46450  0.50363  1.0000
  C   C376      1.0  0.54222  0.39228  0.43576  1.0000
  H   H667      1.0  0.94172  0.21127  0.61849  1.0000
  C   C377      1.0  0.97032  0.17354  0.55708  1.0000
  H   H668      1.0  0.58678  0.08772  0.54227  1.0000
  H   H669      1.0  0.98356  0.19888  0.60986  1.0000
  C   C378      1.0  0.49968  0.03798  0.52837  1.0000
  C   C379      1.0  0.51060  0.39160  0.44920  1.0000
  H   H670      1.0  0.94404  0.16794  0.51578  1.0000
  H   H671      1.0  0.89717  0.20247  0.58692  1.0000
  H   H672      1.0  0.50951  0.06809  0.48968  1.0000
  C   C380      1.0  0.67637  0.01558  0.54152  1.0000
  H   H673      1.0  0.59961  0.06866  0.50950  1.0000
  C   C381      1.0  0.52666  0.34262  0.40659  1.0000
  C   C382      1.0  0.95648  0.19339  0.60502  1.0000
  C   C383      1.0  0.64619  0.05261  0.57466  1.0000
  H   H674      1.0  0.54788  0.00823  0.58358  1.0000
  H   H675      1.0  0.90631  0.16518  0.56695  1.0000
  C   C384      1.0  0.52752  0.06887  0.56910  1.0000
  C   C385      1.0  0.56234  0.03878  0.53270  1.0000
  H   H676      1.0  0.49775  0.14808  0.40661  1.0000
  H   H677      1.0  0.98750  0.15713  0.51528  1.0000
  H   H678      1.0  0.91669  0.25996  0.58569  1.0000
  C   C386      1.0  0.89636  0.20988  0.54158  1.0000
  H   H679      1.0  0.50232  0.01656  0.51301  1.0000
  H   H680      1.0  0.95062  0.00373  0.37107  1.0000
  H   H681      1.0  0.53208  0.09328  0.55807  1.0000
  H   H682      1.0  0.98673  0.38892  0.46643  1.0000
  C   C387      1.0  0.62782  0.49089  0.61656  1.0000
  H   H683      1.0  0.96283  0.14708  0.56230  1.0000
  H   H684      1.0  0.52588  0.06902  0.36720  1.0000
  C   C388      1.0  0.49532  0.34163  0.42039  1.0000
  C   C389      1.0  0.51065  0.09247  0.36891  1.0000
  H   H685      1.0  0.49586  0.09613  0.59933  1.0000
  Fe  Fe54      1.0  0.49317  0.49133  0.56156  1.0000
  C   C390      1.0  0.49388  0.07332  0.58541  1.0000
  C   C391      1.0  0.49423  0.06956  0.50960  1.0000
  S   S109      1.0  0.57064  0.99432  0.69260  1.0000
  H   H686      1.0  0.91179  0.40740  0.87814  1.0000
  H   H687      1.0  0.88177  0.34257  0.89684  1.0000
  H   H688      1.0  0.94179  0.41165  0.93854  1.0000
  H   H689      1.0  0.80778  0.01957  0.87107  1.0000
  H   H690      1.0  0.89114  0.36031  0.86202  1.0000
  S   S110      1.0  0.50998  0.04877  0.74643  1.0000
  H   H691      1.0  0.54931  0.33572  0.97922  1.0000
  N   N30       1.0  0.95510  0.37401  0.88411  1.0000
  C   C392      1.0  0.49498  0.47380  0.91856  1.0000
  C   C393      1.0  0.55336  0.42636  0.90542  1.0000
  H   H692      1.0  0.92216  0.01745  0.84694  1.0000
  C   C394      1.0  0.51700  0.37946  0.97817  1.0000
  C   C395      1.0  0.93407  0.40434  0.89216  1.0000
  C   C396      1.0  0.59221  0.44117  0.96005  1.0000
  N   N31       1.0  0.55912  0.46212  0.91590  1.0000
  H   H693      1.0  0.93011  0.35605  0.82603  1.0000
  H   H694      1.0  0.56238  0.43375  0.85904  1.0000
  C   C397      1.0  0.51726  0.15444  0.78936  1.0000
  S   S111      1.0  0.53541  0.39761  0.00953  1.0000
  C   C398      1.0  0.90718  0.99753  0.85666  1.0000
  C   C399      1.0  0.53404  0.11542  0.75080  1.0000
  H   H695      1.0  0.55326  0.16646  0.75615  1.0000
  H   H696      1.0  0.53927  0.45016  0.95801  1.0000
  C   C400      1.0  0.56220  0.46152  0.94810  1.0000
  S   S112      1.0  0.98448  0.47803  0.92276  1.0000
  C   C401      1.0  0.53019  0.48481  0.90776  1.0000
  H   H697      1.0  0.58945  0.41369  0.95544  1.0000
  C   C402      1.0  0.49588  0.12919  0.80025  1.0000
  H   H698      1.0  0.75455  0.02042  0.84018  1.0000
  C   C403      1.0  0.90885  0.48123  0.79643  1.0000
  C   C404      1.0  0.89838  0.34077  0.87771  1.0000
  C   C405      1.0  0.51650  0.33388  0.94222  1.0000
  H   H699      1.0  0.53365  0.41349  0.91833  1.0000
  H   H700      1.0  0.52702  0.31055  0.93400  1.0000
  H   H701      1.0  0.83934  0.02383  0.80003  1.0000
  C   C406      1.0  0.78373  0.00712  0.87734  1.0000
  H   H702      1.0  0.61693  0.45058  0.95223  1.0000
  C   C407      1.0  0.93604  0.34087  0.88672  1.0000
  S   S113      1.0  0.52059  0.19532  0.80557  1.0000
  S   S114      1.0  0.95665  0.46862  0.83800  1.0000
  H   H703      1.0  0.49307  0.47581  0.94221  1.0000
  H   H704      1.0  0.90930  0.38078  0.92986  1.0000
  C   C408      1.0  0.53645  0.14724  0.76467  1.0000
  H   H705      1.0  0.61188  0.45725  0.90386  1.0000
  C   C409      1.0  0.81284  0.01829  0.80648  1.0000
  H   H706      1.0  0.93634  0.33214  0.90944  1.0000
  C   C410      1.0  0.54340  0.42237  0.87363  1.0000
  H   H707      1.0  0.90186  0.42525  0.92552  1.0000
  H   H708      1.0  0.89216  0.31592  0.86770  1.0000
  H   H709      1.0  0.94893  0.32067  0.87418  1.0000
  H   H710      1.0  0.57641  0.41078  0.90849  1.0000
  C   C411      1.0  0.92115  0.40507  0.92337  1.0000
  H   H711      1.0  0.60810  0.99924  0.80752  1.0000
  H   H712      1.0  0.51814  0.43307  0.86914  1.0000
  C   C412      1.0  0.52924  0.34834  0.96778  1.0000
  H   H713      1.0  0.80512  0.03881  0.82133  1.0000
  H   H714      1.0  0.99119  0.39262  0.97749  1.0000
  H   H715      1.0  0.89272  0.02780  0.89331  1.0000
  H   H716      1.0  0.96812  0.02127  0.89085  1.0000
  H   H717      1.0  0.98467  0.40221  0.85318  1.0000
  C   C413      1.0  0.49409  0.09713  0.78678  1.0000
  H   H718      1.0  0.87075  0.48852  0.76369  1.0000
  C   C414      1.0  0.59089  0.47578  0.90219  1.0000
  H   H719      1.0  0.92429  0.46523  0.78297  1.0000
  C   C415      1.0  0.98493  0.37340  0.90435  1.0000
  H   H720      1.0  0.59249  0.44363  0.98376  1.0000
  H   H721      1.0  0.54900  0.11032  0.73188  1.0000
  H   H722      1.0  0.79727  0.01902  0.78675  1.0000
  H   H723      1.0  0.54169  0.39488  0.86843  1.0000
  H   H724      1.0  0.97498  0.34900  0.01356  1.0000
  C   C416      1.0  0.96876  0.37880  0.85419  1.0000
  H   H725      1.0  0.92386  0.40110  0.83295  1.0000
  C   C417      1.0  0.91934  0.48835  0.82467  1.0000
  C   C418      1.0  0.51301  0.09003  0.76193  1.0000
  H   H726      1.0  0.56349  0.48765  0.95704  1.0000
  H   H727      1.0  0.58709  0.47948  0.87879  1.0000
  Fe  Fe55      1.0  0.52392  0.02465  0.70317  1.0000
  H   H728      1.0  0.49775  0.27105  0.97871  1.0000
  H   H729      1.0  0.76964  0.02573  0.89057  1.0000
  H   H730      1.0  0.94879  0.42809  0.88874  1.0000
  C   C419      1.0  0.94272  0.38085  0.82974  1.0000
  Fe  Fe56      1.0  0.52552  0.45112  0.02672  1.0000
  H   H731      1.0  0.98560  0.35759  0.84802  1.0000
  H   H732      1.0  0.52871  0.48807  0.88411  1.0000
  H   H733      1.0  0.97660  0.36846  0.92673  1.0000
  H   H734      1.0  0.49379  0.19635  0.74135  1.0000
  H   H735      1.0  0.95624  0.38733  0.80959  1.0000
  C   C420      1.0  0.89034  0.00337  0.88288  1.0000
  S   S115      1.0  0.49254  0.23210  0.88517  1.0000
  H   H736      1.0  0.49759  0.25889  0.74156  1.0000
  C   C421      1.0  0.76183  0.99672  0.85141  1.0000
  H   H737      1.0  0.89608  0.57947  0.13370  1.0000
  H   H738      1.0  0.64403  0.56508  0.06067  1.0000
  H   H739      1.0  0.58075  0.86807  0.29819  1.0000
  H   H740      1.0  0.52684  0.94550  0.30050  1.0000
  C   C422      1.0  0.64689  0.68405  0.21563  1.0000
  S   S116      1.0  0.91600  0.76718  0.10681  1.0000
  Fe  Fe57      1.0  0.91712  0.71235  0.09364  1.0000
  S   S117      1.0  0.87928  0.66982  0.09792  1.0000
  Fe  Fe58      1.0  0.94005  0.77639  0.06385  1.0000
  Fe  Fe59      1.0  0.54583  0.50835  0.06909  1.0000
  H   H741      1.0  0.62171  0.57765  0.23278  1.0000
  C   C423      1.0  0.80671  0.92258  0.07765  1.0000
  Fe  Fe60      1.0  0.73890  0.53687  0.20458  1.0000
  S   S118      1.0  0.71416  0.58518  0.21793  1.0000
  Fe  Fe61      1.0  0.80062  0.54923  0.24485  1.0000
  S   S119      1.0  0.77919  0.59819  0.26086  1.0000
  Fe  Fe62      1.0  0.72965  0.57053  0.26241  1.0000
  S   S120      1.0  0.69218  0.57852  0.29815  1.0000
  Fe  Fe63      1.0  0.76572  0.60847  0.21514  1.0000
  S   S121      1.0  0.77281  0.66153  0.19827  1.0000
  S   S122      1.0  0.75152  0.52008  0.24969  1.0000
  S   S123      1.0  0.79006  0.56134  0.19841  1.0000
  H   H742      1.0  0.67166  0.56234  0.10854  1.0000
  C   C424      1.0  0.63313  0.94607  0.36196  1.0000
  H   H743      1.0  0.62245  0.87069  0.26200  1.0000
  H   H744      1.0  0.83267  0.82264  0.12566  1.0000
  Fe  Fe64      1.0  0.53320  0.77689  0.32287  1.0000
  H   H745      1.0  0.97925  0.63567  0.19380  1.0000
  H   H746      1.0  0.78981  0.59325  0.09528  1.0000
  H   H747      1.0  0.67252  0.53071  0.06349  1.0000
  Fe  Fe65      1.0  0.60100  0.74160  0.32541  1.0000
  S   S124      1.0  0.64703  0.73133  0.29895  1.0000
  S   S125      1.0  0.54946  0.72349  0.31261  1.0000
  S   S126      1.0  0.72679  0.96254  0.03430  1.0000
  C   C425      1.0  0.57850  0.93760  0.31543  1.0000
  H   H748      1.0  0.63659  0.97625  0.10626  1.0000
  S   S127      1.0  0.54528  0.91232  0.19677  1.0000
  Fe  Fe66      1.0  0.98724  0.71563  0.06780  1.0000
  C   C426      1.0  0.54328  0.83623  0.25575  1.0000
  C   C427      1.0  0.55284  0.85869  0.23366  1.0000
  C   C428      1.0  0.53156  0.88521  0.22502  1.0000
  H   H749      1.0  0.55994  0.81592  0.26200  1.0000
  H   H750      1.0  0.57690  0.85537  0.22305  1.0000
  C   C429      1.0  0.68148  0.62148  0.30099  1.0000
  C   C430      1.0  0.65258  0.63107  0.31624  1.0000
  C   C431      1.0  0.64242  0.66512  0.31673  1.0000
  C   C432      1.0  0.66116  0.68953  0.30176  1.0000
  C   C433      1.0  0.69043  0.68005  0.28708  1.0000
  C   C434      1.0  0.70051  0.64610  0.28665  1.0000
  H   H751      1.0  0.63740  0.61200  0.32675  1.0000
  H   H752      1.0  0.61949  0.67223  0.32775  1.0000
  H   H753      1.0  0.70494  0.69887  0.27546  1.0000
  H   H754      1.0  0.72266  0.63900  0.27466  1.0000
  C   C435      1.0  0.68420  0.97001  0.04493  1.0000
  C   C436      1.0  0.58750  0.66664  0.21715  1.0000
  C   C437      1.0  0.63257  0.92079  0.33664  1.0000
  H   H755      1.0  0.61581  0.96765  0.35869  1.0000
  H   H756      1.0  0.69594  0.65985  0.22533  1.0000
  C   C438      1.0  0.50050  0.88911  0.23894  1.0000
  C   C439      1.0  0.77614  0.60772  0.07888  1.0000
  C   C440      1.0  0.91488  0.96742  0.35446  1.0000
  H   H757      1.0  0.86531  0.83620  0.10206  1.0000
  H   H758      1.0  0.82353  0.94107  0.08890  1.0000
  H   H759      1.0  0.71723  0.56820  0.14085  1.0000
  H   H760      1.0  0.75633  0.87809  0.04217  1.0000
  H   H761      1.0  0.94839  0.51228  0.32255  1.0000
  H   H762      1.0  0.72463  0.61873  0.06897  1.0000
  H   H763      1.0  0.59656  0.87210  0.36192  1.0000
  C   C441      1.0  0.80991  0.86822  0.05062  1.0000
  H   H764      1.0  0.72807  0.64057  0.11683  1.0000
  H   H765      1.0  0.63856  0.70364  0.20009  1.0000
  H   H766      1.0  0.69036  0.62333  0.13370  1.0000
  C   C442      1.0  0.62198  0.65217  0.16019  1.0000
  C   C443      1.0  0.84907  0.66932  0.12531  1.0000
  C   C444      1.0  0.83239  0.63872  0.13088  1.0000
  C   C445      1.0  0.80871  0.63645  0.15303  1.0000
  C   C446      1.0  0.80112  0.66495  0.16950  1.0000
  C   C447      1.0  0.81735  0.69590  0.16368  1.0000
  C   C448      1.0  0.84171  0.69802  0.14176  1.0000
  H   H767      1.0  0.83851  0.61647  0.11838  1.0000
  H   H768      1.0  0.79659  0.61261  0.15752  1.0000
  H   H769      1.0  0.81166  0.71802  0.17652  1.0000
  H   H770      1.0  0.85461  0.72174  0.13752  1.0000
  C   C449      1.0  0.73331  0.53689  0.09187  1.0000
  C   C450      1.0  0.82027  0.86934  0.10339  1.0000
  C   C451      1.0  0.72974  0.58538  0.12518  1.0000
  C   C452      1.0  0.51202  0.83976  0.26937  1.0000
  C   C453      1.0  0.61311  0.52193  0.12483  1.0000
  H   H771      1.0  0.87378  0.87009  0.06460  1.0000
  C   C454      1.0  0.71825  0.62170  0.13232  1.0000
  C   C455      1.0  0.73970  0.59536  0.07254  1.0000
  H   H772      1.0  0.88451  0.59777  0.30468  1.0000
  H   H773      1.0  0.78793  0.53903  0.08275  1.0000
  C   C456      1.0  0.77236  0.85785  0.05144  1.0000
  H   H774      1.0  0.88534  0.98500  0.28970  1.0000
  H   H775      1.0  0.66158  0.55285  0.18002  1.0000
  H   H776      1.0  0.54381  0.85852  0.33139  1.0000
  H   H777      1.0  0.98889  0.80660  0.22347  1.0000
  H   H778      1.0  0.87363  0.90355  0.09017  1.0000
  H   H779      1.0  0.60745  0.56330  0.15455  1.0000
  S   S128      1.0  0.51130  0.95050  0.12503  1.0000
  Fe  Fe67      1.0  0.52550  0.95801  0.17153  1.0000
  H   H780      1.0  0.56889  0.64655  0.21127  1.0000
  N   N32       1.0  0.90799  0.62056  0.19995  1.0000
  C   C457      1.0  0.87135  0.62775  0.20642  1.0000
  C   C458      1.0  0.91057  0.61363  0.16817  1.0000
  C   C459      1.0  0.92821  0.65190  0.20791  1.0000
  C   C460      1.0  0.91843  0.59053  0.21765  1.0000
  C   C461      1.0  0.86307  0.63865  0.23745  1.0000
  C   C462      1.0  0.89229  0.58142  0.15725  1.0000
  C   C463      1.0  0.96221  0.65766  0.19244  1.0000
  C   C464      1.0  0.97202  0.61608  0.35389  1.0000
  H   H781      1.0  0.86206  0.64825  0.19223  1.0000
  H   H782      1.0  0.85510  0.60523  0.20216  1.0000
  H   H783      1.0  0.93708  0.61106  0.16097  1.0000
  H   H784      1.0  0.90083  0.63564  0.15583  1.0000
  H   H785      1.0  0.91341  0.67530  0.20344  1.0000
  H   H786      1.0  0.93351  0.65240  0.23135  1.0000
  H   H787      1.0  0.91680  0.59655  0.24091  1.0000
  H   H788      1.0  0.90039  0.56897  0.21513  1.0000
  H   H789      1.0  0.87752  0.66132  0.24445  1.0000
  H   H790      1.0  0.83593  0.64559  0.23847  1.0000
  H   H791      1.0  0.86659  0.61758  0.25281  1.0000
  S   S129      1.0  0.71556  0.50383  0.16929  1.0000
  H   H792      1.0  0.86787  0.63457  0.32315  1.0000
  H   H793      1.0  0.50777  0.87621  0.14738  1.0000
  C   C465      1.0  0.67578  0.96959  0.07429  1.0000
  H   H794      1.0  0.97546  0.67960  0.20247  1.0000
  H   H795      1.0  0.72904  0.52767  0.06961  1.0000
  H   H796      1.0  0.82709  0.81661  0.08809  1.0000
  C   C466      1.0  0.95442  0.57704  0.21298  1.0000
  N   N33       1.0  0.59822  0.90807  0.32711  1.0000
  N   N34       1.0  0.82360  0.88838  0.07553  1.0000
  C   C467      1.0  0.86092  0.89422  0.07030  1.0000
  H   H797      1.0  0.59587  0.66192  0.15831  1.0000
  C   C468      1.0  0.68443  0.67677  0.20925  1.0000
  H   H798      1.0  0.57471  0.66148  0.26307  1.0000
  C   C469      1.0  0.49347  0.86232  0.13057  1.0000
  C   C470      1.0  0.62328  0.54245  0.14804  1.0000
  S   S130      1.0  0.93578  0.72244  0.04897  1.0000
  H   H799      1.0  0.65798  0.62299  0.23961  1.0000
  H   H800      1.0  0.93002  0.62396  0.32620  1.0000
  H   H801      1.0  0.75313  0.90759  0.08505  1.0000
  H   H802      1.0  0.95817  0.66452  0.16962  1.0000
  H   H803      1.0  0.58332  0.68705  0.20113  1.0000
  C   C471      1.0  0.62304  0.89189  0.27773  1.0000
  H   H804      1.0  0.60811  0.59298  0.26742  1.0000
  H   H805      1.0  0.80226  0.93329  0.05588  1.0000
  H   H806      1.0  0.63955  0.55667  0.36233  1.0000
  H   H807      1.0  0.61942  0.85977  0.31480  1.0000
  H   H808      1.0  0.79146  0.60617  0.05896  1.0000
  H   H809      1.0  0.83090  0.88484  0.12130  1.0000
  C   C472      1.0  0.60436  0.88063  0.30516  1.0000
  C   C473      1.0  0.54510  0.87811  0.34834  1.0000
  C   C474      1.0  0.93705  0.60505  0.34258  1.0000
  H   H810      1.0  0.86466  0.58215  0.16077  1.0000
  H   H811      1.0  0.72818  0.62886  0.15378  1.0000
  H   H812      1.0  0.75672  0.58402  0.13081  1.0000
  H   H813      1.0  0.86311  0.94594  0.05185  1.0000
  H   H814      1.0  0.84173  0.59849  0.31604  1.0000
  H   H815      1.0  0.82453  0.50576  0.30552  1.0000
  H   H816      1.0  0.76314  0.85104  0.07300  1.0000
  H   H817      1.0  0.65006  0.89750  0.28200  1.0000
  H   H818      1.0  0.92368  0.53607  0.27800  1.0000
  H   H819      1.0  0.69890  0.70096  0.21037  1.0000
  H   H820      1.0  0.56832  0.95319  0.33334  1.0000
  H   H821      1.0  0.76292  0.95068  0.09207  1.0000
  H   H822      1.0  0.89810  0.91949  0.04335  1.0000
  H   H823      1.0  0.97293  0.59104  0.22650  1.0000
  H   H824      1.0  0.87436  0.77403  0.03184  1.0000
  H   H825      1.0  0.67606  0.60160  0.09063  1.0000
  C   C475      1.0  0.67484  0.50990  0.15400  1.0000
  C   C476      1.0  0.83748  0.83432  0.10439  1.0000
  H   H826      1.0  0.68852  0.66628  0.18751  1.0000
  C   C477      1.0  0.65395  0.53657  0.16252  1.0000
  H   H827      1.0  0.77633  0.63496  0.08504  1.0000
  C   C478      1.0  0.63359  0.49480  0.11670  1.0000
  C   C479      1.0  0.77027  0.52811  0.09871  1.0000
  S   S131      1.0  0.92917  0.82305  0.03790  1.0000
  N   N35       1.0  0.72288  0.57347  0.09496  1.0000
  H   H828      1.0  0.77611  0.91960  0.11720  1.0000
  H   H829      1.0  0.87424  0.93286  0.34409  1.0000
  H   H830      1.0  0.65249  0.62070  0.18786  1.0000
  C   C480      1.0  0.67127  0.55880  0.06274  1.0000
  H   H831      1.0  0.64032  0.67326  0.15743  1.0000
  H   H832      1.0  0.77773  0.53490  0.12089  1.0000
  C   C481      1.0  0.90731  0.52447  0.29377  1.0000
  C   C482      1.0  0.68508  0.57495  0.09056  1.0000
  H   H833      1.0  0.87702  0.56223  0.34623  1.0000
  H   H834      1.0  0.55125  0.69283  0.24435  1.0000
  S   S132      1.0  0.57566  0.53272  0.10607  1.0000
  H   H835      1.0  0.68430  0.56847  0.04337  1.0000
  H   H836      1.0  0.64593  0.93383  0.31878  1.0000
  N   N36       1.0  0.62328  0.65382  0.21543  1.0000
  C   C483      1.0  0.92141  0.51098  0.31902  1.0000
  C   C484      1.0  0.87229  0.52281  0.28870  1.0000
  C   C485      1.0  0.85148  0.50739  0.30916  1.0000
  H   H837      1.0  0.50965  0.84081  0.12388  1.0000
  C   C486      1.0  0.57671  0.68142  0.24641  1.0000
  C   C487      1.0  0.87024  0.91959  0.04632  1.0000
  H   H838      1.0  0.63078  0.64635  0.26098  1.0000
  H   H839      1.0  0.59403  0.70176  0.25395  1.0000
  Fe  Fe68      1.0  0.96940  0.75946  0.12187  1.0000
  H   H840      1.0  0.60886  0.61153  0.18839  1.0000
  H   H841      1.0  0.53945  0.90288  0.29561  1.0000
  H   H842      1.0  0.59560  0.95486  0.30320  1.0000
  C   C488      1.0  0.77284  0.92448  0.09396  1.0000
  H   H843      1.0  0.79351  0.86489  0.10931  1.0000
  S   S133      1.0  0.85601  0.54047  0.25657  1.0000
  H   H844      1.0  0.71742  0.52055  0.10587  1.0000
  H   H845      1.0  0.96261  0.57758  0.19035  1.0000
  C   C489      1.0  0.63150  0.63178  0.24069  1.0000
  C   C490      1.0  0.86770  0.60662  0.32219  1.0000
  C   C491      1.0  0.54872  0.92925  0.29498  1.0000
  H   H846      1.0  0.64636  0.69697  0.23688  1.0000
  C   C492      1.0  0.62726  0.63298  0.18857  1.0000
  C   C493      1.0  0.60993  0.59930  0.24426  1.0000
  S   S134      1.0  0.58546  0.79542  0.33244  1.0000
  H   H847      1.0  0.90282  0.55810  0.16687  1.0000
  H   H848      1.0  0.62575  0.63427  0.14206  1.0000
  H   H849      1.0  0.94052  0.58103  0.33030  1.0000
  H   H850      1.0  0.58365  0.60208  0.23670  1.0000
  H   H851      1.0  0.64913  0.89928  0.34274  1.0000
  H   H852      1.0  0.95497  0.54979  0.21897  1.0000
  S   S135      1.0  0.93961  0.95409  0.32465  1.0000
  S   S136      1.0  0.96851  0.70330  0.11209  1.0000
  H   H853      1.0  0.55534  0.93573  0.27249  1.0000
  S   S137      1.0  0.98456  0.77726  0.16703  1.0000
  H   H854      1.0  0.61103  0.91394  0.26733  1.0000
  C   C494      1.0  0.61758  0.98517  0.06376  1.0000
  C   C495      1.0  0.64261  0.97673  0.08366  1.0000
  Fe  Fe69      1.0  0.98825  0.97325  0.30304  1.0000
  H   H855      1.0  0.82506  0.84511  0.04669  1.0000
  H   H856      1.0  0.77311  0.50016  0.09718  1.0000
  H   H857      1.0  0.60026  0.56328  0.34446  1.0000
  H   H858      1.0  0.98928  0.62024  0.33545  1.0000
  H   H859      1.0  0.69505  0.96372  0.08989  1.0000
  C   C496      1.0  0.87697  0.58986  0.35096  1.0000
  S   S138      1.0  0.50367  0.54207  0.05318  1.0000
  C   C497      1.0  0.90064  0.49529  0.33939  1.0000
  H   H860      1.0  0.76883  0.83449  0.03838  1.0000
  H   H861      1.0  0.52653  0.89839  0.34410  1.0000
  C   C498      1.0  0.58087  0.89275  0.35286  1.0000
  H   H862      1.0  0.74008  0.58201  0.05149  1.0000
  S   S139      1.0  0.98631  0.98295  0.25527  1.0000
  Fe  Fe70      1.0  0.54319  0.71154  0.35983  1.0000
  C   C499      1.0  0.88331  0.95177  0.35912  1.0000
  H   H863      1.0  0.91048  0.66801  0.34717  1.0000
  C   C500      1.0  0.62604  0.98558  0.03445  1.0000
  S   S140      1.0  0.49849  0.81148  0.29685  1.0000
  H   H864      1.0  0.65909  0.95667  0.36417  1.0000
  H   H865      1.0  0.68923  0.85039  0.36347  1.0000
  H   H866      1.0  0.65297  0.55983  0.46279  1.0000
  H   H867      1.0  0.92672  0.54555  0.58410  1.0000
  Fe  Fe71      1.0  0.80339  0.96746  0.45093  1.0000
  S   S141      1.0  0.79220  0.91283  0.44162  1.0000
  H   H868      1.0  0.91200  0.92522  0.66865  1.0000
  S   S142      1.0  0.72152  0.92125  0.47896  1.0000
  Fe  Fe72      1.0  0.77596  0.90942  0.48745  1.0000
  S   S143      1.0  0.78731  0.86317  0.51362  1.0000
  Fe  Fe73      1.0  0.73901  0.92977  0.43382  1.0000
  S   S144      1.0  0.71380  0.90819  0.39440  1.0000
  H   H869      1.0  0.69135  0.59346  0.67993  1.0000
  H   H870      1.0  0.97886  0.69051  0.49700  1.0000
  N   N37       1.0  0.61854  0.59748  0.66840  1.0000
  H   H871      1.0  0.91830  0.58702  0.50933  1.0000
  H   H872      1.0  0.62314  0.53445  0.41808  1.0000
  H   H873      1.0  0.84567  0.74325  0.66653  1.0000
  S   S145      1.0  0.58862  0.81149  0.41536  1.0000
  S   S146      1.0  0.76238  0.57319  0.67220  1.0000
  C   C501      1.0  0.67986  0.88061  0.40114  1.0000
  C   C502      1.0  0.65910  0.88518  0.42504  1.0000
  C   C503      1.0  0.63123  0.86365  0.42941  1.0000
  C   C504      1.0  0.62417  0.83743  0.40997  1.0000
  H   H874      1.0  0.89324  0.89591  0.45179  1.0000
  H   H875      1.0  0.62644  0.97039  0.58832  1.0000
  H   H876      1.0  0.66397  0.90586  0.43975  1.0000
  H   H877      1.0  0.61486  0.86759  0.44767  1.0000
  C   C505      1.0  0.67303  0.85415  0.38187  1.0000
  Fe  Fe74      1.0  0.51478  0.54174  0.51385  1.0000
  S   S147      1.0  0.52760  0.53701  0.56088  1.0000
  H   H878      1.0  0.58113  0.61372  0.43767  1.0000
  C   C506      1.0  0.67296  0.61536  0.38701  1.0000
  C   C507      1.0  0.83043  0.85394  0.51567  1.0000
  C   C508      1.0  0.85465  0.87721  0.50606  1.0000
  C   C509      1.0  0.88910  0.86957  0.50833  1.0000
  H   H879      1.0  0.84682  0.90133  0.49739  1.0000
  H   H880      1.0  0.90775  0.88807  0.50191  1.0000
  H   H881      1.0  0.62164  0.61939  0.45328  1.0000
  C   C510      1.0  0.89922  0.73843  0.67040  1.0000
  C   C511      1.0  0.92431  0.63223  0.53526  1.0000
  H   H882      1.0  0.88498  0.86974  0.38939  1.0000
  H   H883      1.0  0.96103  0.63042  0.58228  1.0000
  S   S148      1.0  0.53000  0.96646  0.63465  1.0000
  C   C512      1.0  0.51057  0.59203  0.43842  1.0000
  C   C513      1.0  0.52264  0.66188  0.43205  1.0000
  C   C514      1.0  0.51863  0.64747  0.45952  1.0000
  Fe  Fe75      1.0  0.98635  0.71902  0.56320  1.0000
  H   H884      1.0  0.51110  0.59070  0.39212  1.0000
  H   H885      1.0  0.95921  0.60343  0.51076  1.0000
  C   C515      1.0  0.90215  0.89547  0.42917  1.0000
  H   H886      1.0  0.74345  0.83637  0.40735  1.0000
  S   S149      1.0  0.93863  0.73082  0.53952  1.0000
  C   C516      1.0  0.95819  0.90845  0.44772  1.0000
  S   S150      1.0  0.91993  0.78180  0.59288  1.0000
  Fe  Fe76      1.0  0.91394  0.72664  0.58261  1.0000
  S   S151      1.0  0.86317  0.70102  0.58758  1.0000
  Fe  Fe77      1.0  0.94969  0.78466  0.55218  1.0000
  S   S152      1.0  0.94255  0.82963  0.52312  1.0000
  S   S153      1.0  0.96089  0.71199  0.60601  1.0000
  Fe  Fe78      1.0  0.57533  0.77868  0.37743  1.0000
  H   H887      1.0  0.88502  0.52966  0.54593  1.0000
  S   S154      1.0  0.85954  0.56107  0.65312  1.0000
  S   S155      1.0  0.62254  0.51300  0.55986  1.0000
  H   H888      1.0  0.90584  0.53807  0.41875  1.0000
  H   H889      1.0  0.57506  0.58714  0.38963  1.0000
  Fe  Fe79      1.0  0.53483  0.95173  0.68130  1.0000
  H   H890      1.0  0.89852  0.92163  0.42124  1.0000
  S   S156      1.0  0.85287  0.99237  0.43567  1.0000
  H   H891      1.0  0.91418  0.94533  0.60276  1.0000
  C   C517      1.0  0.90526  0.63150  0.38332  1.0000
  H   H892      1.0  0.64749  0.63345  0.69408  1.0000
  C   C518      1.0  0.58538  0.61403  0.67576  1.0000
  C   C519      1.0  0.89937  0.83850  0.51972  1.0000
  C   C520      1.0  0.87509  0.81513  0.52904  1.0000
  C   C521      1.0  0.84068  0.82297  0.52724  1.0000
  H   H893      1.0  0.88275  0.79100  0.53773  1.0000
  H   H894      1.0  0.82202  0.80498  0.53483  1.0000
  C   C522      1.0  0.86257  0.66135  0.60467  1.0000
  C   C523      1.0  0.83165  0.64472  0.60912  1.0000
  C   C524      1.0  0.83044  0.61387  0.62403  1.0000
  C   C525      1.0  0.86021  0.59941  0.63428  1.0000
  C   C526      1.0  0.89110  0.61587  0.62962  1.0000
  C   C527      1.0  0.89227  0.64677  0.61490  1.0000
  H   H895      1.0  0.80856  0.65582  0.60121  1.0000
  H   H896      1.0  0.91412  0.60487  0.63778  1.0000
  H   H897      1.0  0.91614  0.65925  0.61159  1.0000
  H   H898      1.0  0.56801  0.59691  0.62053  1.0000
  C   C528      1.0  0.99187  0.87862  0.58877  1.0000
  H   H899      1.0  0.80654  0.60107  0.62723  1.0000
  H   H900      1.0  0.99201  0.56001  0.57143  1.0000
  S   S157      1.0  0.50670  0.59598  0.49798  1.0000
  H   H901      1.0  0.93789  0.91111  0.38650  1.0000
  C   C529      1.0  0.97555  0.60756  0.58769  1.0000
  H   H902      1.0  0.92741  0.83197  0.42300  1.0000
  H   H903      1.0  0.51166  0.89115  0.59802  1.0000
  H   H904      1.0  0.88611  0.90278  0.63163  1.0000
  C   C530      1.0  0.87513  0.98377  0.40329  1.0000
  C   C531      1.0  0.61868  0.58566  0.63743  1.0000
  H   H905      1.0  0.97476  0.80857  0.44940  1.0000
  C   C532      1.0  0.93404  0.92799  0.59450  1.0000
  H   H906      1.0  0.90311  0.86124  0.63494  1.0000
  C   C533      1.0  0.97700  0.83442  0.44013  1.0000
  H   H907      1.0  0.50567  0.56516  0.44064  1.0000
  C   C534      1.0  0.60280  0.58847  0.38595  1.0000
  H   H908      1.0  0.88415  0.62757  0.39869  1.0000
  H   H909      1.0  0.69958  0.63433  0.66550  1.0000
  Fe  Fe80      1.0  0.74597  0.52579  0.69484  1.0000
  H   H910      1.0  0.88541  0.57808  0.42073  1.0000
  C   C535      1.0  0.88444  0.55510  0.55605  1.0000
  C   C536      1.0  0.64541  0.83239  0.38641  1.0000
  C   C537      1.0  0.98378  0.53845  0.51101  1.0000
  H   H911      1.0  0.87475  0.57412  0.54073  1.0000
  S   S158      1.0  0.69769  0.49809  0.68084  1.0000
  H   H912      1.0  0.96428  0.59504  0.60672  1.0000
  C   C538      1.0  0.87839  0.87209  0.59491  1.0000
  H   H913      1.0  0.85465  0.86110  0.60368  1.0000
  S   S159      1.0  0.79109  0.96280  0.49822  1.0000
  Fe  Fe81      1.0  0.81480  0.55575  0.68256  1.0000
  H   H914      1.0  0.92457  0.89621  0.55529  1.0000
  H   H915      1.0  0.87306  0.84822  0.42242  1.0000
  C   C539      1.0  0.92692  0.92284  0.56213  1.0000
  C   C540      1.0  0.64599  0.62396  0.67171  1.0000
  H   H916      1.0  0.97936  0.55514  0.49232  1.0000
  C   C541      1.0  0.65920  0.59165  0.41078  1.0000
  H   H917      1.0  0.66690  0.96216  0.54738  1.0000
  H   H918      1.0  0.92958  0.95619  0.44943  1.0000
  C   C542      1.0  0.61273  0.55674  0.42968  1.0000
  C   C543      1.0  0.90108  0.88331  0.62013  1.0000
  C   C544      1.0  0.99103  0.82690  0.67209  1.0000
  N   N38       1.0  0.71354  0.79709  0.47006  1.0000
  C   C545      1.0  0.71847  0.80365  0.43843  1.0000
  C   C546      1.0  0.68843  0.76838  0.47298  1.0000
  C   C547      1.0  0.74715  0.78597  0.48192  1.0000
  C   C548      1.0  0.70182  0.82944  0.48424  1.0000
  C   C549      1.0  0.74549  0.83044  0.43055  1.0000
  C   C550      1.0  0.65444  0.77341  0.45739  1.0000
  C   C551      1.0  0.74828  0.77673  0.51393  1.0000
  C   C552      1.0  0.68027  0.82610  0.51170  1.0000
  H   H919      1.0  0.72492  0.77979  0.42686  1.0000
  H   H920      1.0  0.69468  0.81277  0.42857  1.0000
  H   H921      1.0  0.68240  0.76315  0.49575  1.0000
  H   H922      1.0  0.69940  0.74435  0.46463  1.0000
  H   H923      1.0  0.75672  0.76370  0.46968  1.0000
  H   H924      1.0  0.76660  0.80616  0.47937  1.0000
  H   H925      1.0  0.72381  0.84588  0.48967  1.0000
  H   H926      1.0  0.68645  0.84491  0.46926  1.0000
  H   H927      1.0  0.64058  0.81175  0.37167  1.0000
  H   H928      1.0  0.63762  0.66256  0.41797  1.0000
  H   H929      1.0  0.74181  0.85454  0.44235  1.0000
  H   H930      1.0  0.63552  0.75486  0.46550  1.0000
  H   H931      1.0  0.64410  0.79912  0.46079  1.0000
  H   H932      1.0  0.65695  0.76879  0.43399  1.0000
  H   H933      1.0  0.77335  0.76560  0.51874  1.0000
  H   H934      1.0  0.72914  0.75759  0.52020  1.0000
  H   H935      1.0  0.74647  0.79975  0.52753  1.0000
  H   H936      1.0  0.65454  0.81640  0.50696  1.0000
  H   H937      1.0  0.67716  0.85172  0.52127  1.0000
  H   H938      1.0  0.69191  0.81004  0.52827  1.0000
  H   H939      1.0  0.94561  0.65012  0.53897  1.0000
  S   S160      1.0  0.97253  0.78848  0.65950  1.0000
  C   C553      1.0  0.91904  0.56549  0.56855  1.0000
  H   H940      1.0  0.51009  0.96821  0.53629  1.0000
  H   H941      1.0  0.85221  0.88586  0.41156  1.0000
  H   H942      1.0  0.57093  0.55539  0.63654  1.0000
  H   H943      1.0  0.91518  0.67046  0.67291  1.0000
  H   H944      1.0  0.99098  0.89886  0.57242  1.0000
  H   H945      1.0  0.61083  0.56974  0.47574  1.0000
  S   S161      1.0  0.54674  0.89640  0.69109  1.0000
  C   C554      1.0  0.86538  0.66547  0.69345  1.0000
  C   C555      1.0  0.68208  0.61224  0.66421  1.0000
  H   H946      1.0  0.62237  0.52716  0.46813  1.0000
  H   H947      1.0  0.67123  0.59962  0.43130  1.0000
  H   H948      1.0  0.92738  0.63601  0.39768  1.0000
  C   C556      1.0  0.93718  0.59754  0.52470  1.0000
  H   H949      1.0  0.64037  0.64657  0.65829  1.0000
  H   H950      1.0  0.65520  0.63456  0.37899  1.0000
  H   H951      1.0  0.87245  0.54631  0.39454  1.0000
  C   C557      1.0  0.93626  0.93380  0.65919  1.0000
  C   C558      1.0  0.53167  0.97338  0.55083  1.0000
  H   H952      1.0  0.95319  0.93969  0.67760  1.0000
  H   H953      1.0  0.90762  0.64329  0.51864  1.0000
  H   H954      1.0  0.53195  0.95253  0.56677  1.0000
  C   C559      1.0  0.61100  0.65407  0.41986  1.0000
  H   H955      1.0  0.95018  0.90368  0.47023  1.0000
  C   C560      1.0  0.89424  0.55834  0.40563  1.0000
  H   H956      1.0  0.88967  0.85201  0.58152  1.0000
  H   H957      1.0  0.95820  0.51812  0.54797  1.0000
  Fe  Fe82      1.0  0.73710  0.97521  0.48683  1.0000
  S   S162      1.0  0.52150  0.76326  0.36899  1.0000
  C   C561      1.0  0.62572  0.55375  0.46079  1.0000
  H   H958      1.0  0.86189  0.70624  0.65021  1.0000
  H   H959      1.0  0.52729  0.68881  0.42983  1.0000
  H   H960      1.0  0.93138  0.53024  0.51927  1.0000
  C   C562      1.0  0.58463  0.57475  0.62397  1.0000
  H   H961      1.0  0.93286  0.95780  0.64730  1.0000
  H   H962      1.0  0.90874  0.63240  0.69241  1.0000
  N   N39       1.0  0.94684  0.57188  0.54711  1.0000
  S   S163      1.0  0.75076  0.98502  0.44031  1.0000
  C   C563      1.0  0.92100  0.57196  0.38437  1.0000
  H   H963      1.0  0.90311  0.93572  0.55601  1.0000
  H   H964      1.0  0.95963  0.84742  0.61525  1.0000
  H   H965      1.0  0.57790  0.91173  0.37029  1.0000
  H   H966      1.0  0.59443  0.52772  0.67083  1.0000
  C   C564      1.0  0.95042  0.88898  0.39665  1.0000
  S   S164      1.0  0.52485  0.65829  0.37237  1.0000
  Fe  Fe83      1.0  0.56811  0.50156  0.54576  1.0000
  C   C565      1.0  0.90383  0.66011  0.69281  1.0000
  H   H967      1.0  0.79991  0.65473  0.67241  1.0000
  H   H968      1.0  0.94227  0.86651  0.38385  1.0000
  H   H969      1.0  0.92985  0.54995  0.37156  1.0000
  H   H970      1.0  0.51047  0.89476  0.63618  1.0000
  H   H971      1.0  0.66966  0.56608  0.40596  1.0000
  C   C566      1.0  0.51362  0.60661  0.41093  1.0000
  H   H972      1.0  0.87068  0.89377  0.58144  1.0000
  H   H973      1.0  0.62754  0.93330  0.38260  1.0000
  C   C567      1.0  0.67741  0.50212  0.64690  1.0000
  N   N40       1.0  0.85320  0.70151  0.69578  1.0000
  C   C568      1.0  0.52005  0.64153  0.40755  1.0000
  H   H974      1.0  0.58951  0.56351  0.60250  1.0000
  C   C569      1.0  0.51284  0.61247  0.46290  1.0000
  C   C570      1.0  0.49912  0.88137  0.61766  1.0000
  H   H975      1.0  0.68715  0.53598  0.58017  1.0000
  H   H976      1.0  0.94741  0.93454  0.54916  1.0000
  H   H977      1.0  0.97929  0.91493  0.63714  1.0000
  C   C571      1.0  0.95299  0.90594  0.64082  1.0000
  C   C572      1.0  0.95363  0.53864  0.53206  1.0000
  C   C573      1.0  0.61195  0.55885  0.36576  1.0000
  H   H978      1.0  0.95806  0.94278  0.59615  1.0000
  H   H979      1.0  0.68410  0.60155  0.64227  1.0000
  H   H980      1.0  0.71706  0.53104  0.62681  1.0000
  H   H981      1.0  0.62836  0.60590  0.62290  1.0000
  H   H982      1.0  0.90839  0.63098  0.55465  1.0000
  H   H983      1.0  0.59746  0.65674  0.39925  1.0000
  H   H984      1.0  0.64973  0.55521  0.68130  1.0000
  C   C574      1.0  0.59921  0.54089  0.69136  1.0000
  C   C575      1.0  0.60821  0.61811  0.43237  1.0000
  H   H985      1.0  0.92918  0.84667  0.45904  1.0000
  H   H986      1.0  0.58043  0.63533  0.66072  1.0000
  H   H987      1.0  0.98556  0.90309  0.44773  1.0000
  C   C576      1.0  0.66108  0.98739  0.55492  1.0000
  H   H988      1.0  0.83944  0.94738  0.38669  1.0000
  C   C577      1.0  0.63810  0.99207  0.57812  1.0000
  Fe  Fe84      1.0  0.96896  0.76795  0.61367  1.0000
  H   H989      1.0  0.94306  0.57973  0.39759  1.0000
  C   C578      1.0  0.86346  0.95997  0.38326  1.0000
  H   H990      1.0  0.95503  0.88327  0.65478  1.0000
  H   H991      1.0  0.58479  0.55268  0.43042  1.0000
  H   H992      1.0  0.55583  0.97185  0.53886  1.0000
  N   N41       1.0  0.62132  0.58934  0.41423  1.0000
  H   H993      1.0  0.91812  0.72602  0.68413  1.0000
  H   H994      1.0  0.63647  0.56429  0.63446  1.0000
  H   H995      1.0  0.69527  0.62951  0.39529  1.0000
  C   C579      1.0  0.87713  0.87316  0.41200  1.0000
  H   H996      1.0  0.68248  0.60027  0.36857  1.0000
  H   H997      1.0  0.90967  0.73786  0.64833  1.0000
  C   C580      1.0  0.69223  0.51987  0.62417  1.0000
  H   H998      1.0  0.86584  0.55356  0.57390  1.0000
  H   H999      1.0  0.94345  0.85628  0.58143  1.0000
  N   N42       1.0  0.93585  0.89668  0.61289  1.0000
  C   C581      1.0  0.64285  0.50825  0.59370  1.0000
  N   N43       1.0  0.93892  0.88560  0.42743  1.0000
  C   C582      1.0  0.86362  0.72200  0.66991  1.0000
  H   H1000     1.0  0.91425  0.58802  0.58191  1.0000
  C   C583      1.0  0.95640  0.86854  0.59967  1.0000
  C   C584      1.0  0.94137  0.84942  0.43760  1.0000
  H   H1001     1.0  0.56388  0.59613  0.67296  1.0000
  H   H1002     1.0  0.52012  0.66359  0.47827  1.0000
  C   C585      1.0  0.67518  0.52262  0.59770  1.0000
  C   C586      1.0  0.97888  0.58251  0.56242  1.0000
  S   S165      1.0  0.97264  0.50835  0.43540  1.0000
  S   S166      1.0  0.55638  0.50808  0.49844  1.0000
  H   H1003     1.0  0.77150  0.82105  0.43401  1.0000
  H   H1004     1.0  0.97218  0.65994  0.45076  1.0000
  H   H1005     1.0  0.89777  0.76576  0.67600  1.0000
  S   S167      1.0  0.59629  0.72652  0.37146  1.0000
  H   H1006     1.0  0.85589  0.65338  0.67352  1.0000
  H   H1007     1.0  0.60631  0.61201  0.37347  1.0000
  C   C587      1.0  0.79705  0.68269  0.67166  1.0000
  H   H1008     1.0  0.50513  0.85397  0.61903  1.0000
  H   H1009     1.0  0.60161  0.53440  0.37365  1.0000
  H   H1010     1.0  0.76950  0.68757  0.67317  1.0000
  C   C588      1.0  0.62649  0.56853  0.68829  1.0000
  H   H1011     1.0  0.80564  0.69256  0.65066  1.0000
  H   H1012     1.0  0.59867  0.67202  0.43492  1.0000
  C   C589      1.0  0.95461  0.94680  0.44226  1.0000
  C   C590      1.0  0.98930  0.65026  0.46677  1.0000
  H   H1013     1.0  0.95846  0.95333  0.41943  1.0000
  H   H1014     1.0  0.98688  0.51236  0.50240  1.0000
  H   H1015     1.0  0.98371  0.59618  0.36719  1.0000
  H   H1016     1.0  0.53692  0.86540  0.36844  1.0000
  N   N44       1.0  0.90989  0.60039  0.36495  1.0000
  H   H1017     1.0  0.90617  0.68650  0.38117  1.0000
  H   H1018     1.0  0.97106  0.64018  0.36613  1.0000
  H   H1019     1.0  0.86953  0.66752  0.36446  1.0000
  H   H1020     1.0  0.97391  0.96083  0.45494  1.0000
  H   H1021     1.0  0.85533  0.59379  0.36583  1.0000
  C   C591      1.0  0.89717  0.66491  0.36780  1.0000
  C   C592      1.0  0.92621  0.99183  0.37408  1.0000
  H   H1022     1.0  0.98898  0.83133  0.41882  1.0000
  C   C593      1.0  0.98866  0.89440  0.39131  1.0000
  C   C594      1.0  0.81506  0.70020  0.69712  1.0000
  Fe  Fe85      1.0  0.51949  0.52558  0.00878  1.0000
  S   S168      1.0  0.52729  0.55093  0.96495  1.0000
  Fe  Fe86      1.0  0.80280  0.95588  0.94364  1.0000
  S   S169      1.0  0.78592  0.90942  0.91993  1.0000
  Fe  Fe87      1.0  0.74530  0.94878  0.98920  1.0000
  S   S170      1.0  0.72453  0.90232  0.96758  1.0000
  Fe  Fe88      1.0  0.77837  0.88623  0.96318  1.0000
  S   S171      1.0  0.78985  0.83180  0.97336  1.0000
  Fe  Fe89      1.0  0.73376  0.92991  0.92630  1.0000
  S   S172      1.0  0.69563  0.92816  0.89032  1.0000
  S   S173      1.0  0.79936  0.93104  0.98698  1.0000
  H   H1023     1.0  0.54294  0.67534  0.97450  1.0000
  C   C595      1.0  0.53677  0.62099  0.97114  1.0000
  Fe  Fe90      1.0  0.79916  0.53623  0.74438  1.0000
  S   S174      1.0  0.81776  0.58421  0.72403  1.0000
  Fe  Fe91      1.0  0.76350  0.59633  0.71605  1.0000
  S   S175      1.0  0.74462  0.64876  0.72614  1.0000
  H   H1024     1.0  0.78883  0.91019  0.80504  1.0000
  S   S176      1.0  0.74443  0.55021  0.73851  1.0000
  C   C596      1.0  0.97684  0.62334  0.98821  1.0000
  H   H1025     1.0  0.76764  0.55557  0.84297  1.0000
  C   C597      1.0  0.98439  0.64805  0.00920  1.0000
  C   C598      1.0  0.89209  0.82279  0.01735  1.0000
  H   H1026     1.0  0.88168  0.91632  0.84520  1.0000
  H   H1027     1.0  0.57733  0.83589  0.71235  1.0000
  C   C599      1.0  0.78144  0.93832  0.84621  1.0000
  Fe  Fe92      1.0  0.55920  0.76932  0.82266  1.0000
  S   S177      1.0  0.60702  0.75462  0.80020  1.0000
  Fe  Fe93      1.0  0.57100  0.71845  0.87276  1.0000
  S   S178      1.0  0.61997  0.70109  0.85376  1.0000
  Fe  Fe94      1.0  0.63022  0.75574  0.84397  1.0000
  S   S179      1.0  0.68294  0.77564  0.85104  1.0000
  Fe  Fe95      1.0  0.59246  0.70126  0.81180  1.0000
  S   S180      1.0  0.59980  0.65600  0.78289  1.0000
  S   S181      1.0  0.58367  0.77394  0.86625  1.0000
  S   S182      1.0  0.54221  0.71530  0.83107  1.0000
  H   H1028     1.0  0.84849  0.87543  0.97318  1.0000
  C   C600      1.0  0.86799  0.52145  0.83100  1.0000
  C   C601      1.0  0.55460  0.82473  0.75334  1.0000
  H   H1029     1.0  0.98436  0.88208  0.72878  1.0000
  H   H1030     1.0  0.82299  0.90688  0.83005  1.0000
  H   H1031     1.0  0.56993  0.80259  0.75705  1.0000
  H   H1032     1.0  0.69646  0.56374  0.79053  1.0000
  C   C602      1.0  0.70421  0.65050  0.74160  1.0000
  C   C603      1.0  0.69264  0.68124  0.75283  1.0000
  C   C604      1.0  0.66092  0.68296  0.76615  1.0000
  C   C605      1.0  0.64036  0.65408  0.76779  1.0000
  C   C606      1.0  0.65197  0.62333  0.75664  1.0000
  C   C607      1.0  0.68382  0.62153  0.74356  1.0000
  H   H1033     1.0  0.70831  0.70375  0.75147  1.0000
  H   H1034     1.0  0.65223  0.70677  0.77474  1.0000
  H   H1035     1.0  0.63634  0.60085  0.75833  1.0000
  H   H1036     1.0  0.69232  0.59779  0.73474  1.0000
  H   H1037     1.0  0.82791  0.64270  0.78823  1.0000
  H   H1038     1.0  0.97777  0.90100  0.92424  1.0000
  H   H1039     1.0  0.85815  0.69989  0.74193  1.0000
  H   H1040     1.0  0.55575  0.94809  0.74983  1.0000
  H   H1041     1.0  0.79201  0.57744  0.86968  1.0000
  S   S183      1.0  0.84816  0.98689  0.92788  1.0000
  C   C608      1.0  0.69238  0.88691  0.87630  1.0000
  C   C609      1.0  0.72087  0.86632  0.87464  1.0000
  C   C610      1.0  0.71794  0.83280  0.86507  1.0000
  C   C611      1.0  0.68633  0.81930  0.85787  1.0000
  C   C612      1.0  0.65784  0.84012  0.85859  1.0000
  C   C613      1.0  0.66094  0.87401  0.86767  1.0000
  H   H1042     1.0  0.74523  0.87592  0.88097  1.0000
  H   H1043     1.0  0.74007  0.81685  0.86444  1.0000
  H   H1044     1.0  0.63332  0.82976  0.85311  1.0000
  H   H1045     1.0  0.63878  0.88968  0.86958  1.0000
  C   C614      1.0  0.63887  0.89101  0.77755  1.0000
  C   C615      1.0  0.85754  0.51434  0.80272  1.0000
  C   C616      1.0  0.58288  0.89224  0.82013  1.0000
  C   C617      1.0  0.86721  0.94660  0.88174  1.0000
  H   H1046     1.0  0.96287  0.89487  0.87071  1.0000
  S   S184      1.0  0.98994  0.57048  0.95145  1.0000
  C   C618      1.0  0.83033  0.82701  0.98803  1.0000
  S   S185      1.0  0.75054  0.97827  0.94789  1.0000
  H   H1047     1.0  0.68519  0.59965  0.81164  1.0000
  H   H1048     1.0  0.57594  0.91339  0.86376  1.0000
  H   H1049     1.0  0.69932  0.82960  0.98590  1.0000
  H   H1050     1.0  0.58692  0.60893  0.72312  1.0000
  H   H1051     1.0  0.60127  0.95456  0.83967  1.0000
  H   H1052     1.0  0.58771  0.89559  0.76282  1.0000
  C   C619      1.0  0.72111  0.94797  0.81063  1.0000
  H   H1053     1.0  0.93506  0.91335  0.92715  1.0000
  H   H1054     1.0  0.55001  0.95742  0.81534  1.0000
  H   H1055     1.0  0.97458  0.92269  0.84155  1.0000
  C   C620      1.0  0.88397  0.94078  0.85557  1.0000
  S   S186      1.0  0.92231  0.95794  0.80884  1.0000
  C   C621      1.0  0.74180  0.76057  0.94000  1.0000
  C   C622      1.0  0.53593  0.59294  0.95271  1.0000
  H   H1056     1.0  0.91682  0.67027  0.71203  1.0000
  C   C623      1.0  0.54827  0.63093  0.91229  1.0000
  C   C624      1.0  0.54177  0.59819  0.92325  1.0000
  H   H1057     1.0  0.55238  0.63451  0.88957  1.0000
  H   H1058     1.0  0.89332  0.71804  0.72477  1.0000
  N   N45       1.0  0.67948  0.77868  0.94473  1.0000
  C   C625      1.0  0.67010  0.74396  0.93338  1.0000
  C   C626      1.0  0.71433  0.78710  0.93366  1.0000
  C   C627      1.0  0.65444  0.80340  0.93243  1.0000
  C   C628      1.0  0.67764  0.77827  0.97710  1.0000
  C   C629      1.0  0.63361  0.73204  0.93937  1.0000
  H   H1059     1.0  0.55792  0.87242  0.85799  1.0000
  C   C630      1.0  0.66063  0.84121  0.93875  1.0000
  C   C631      1.0  0.70100  0.80319  0.99349  1.0000
  H   H1060     1.0  0.67391  0.74269  0.90969  1.0000
  H   H1061     1.0  0.68668  0.72415  0.94266  1.0000
  H   H1062     1.0  0.72374  0.81179  0.94198  1.0000
  H   H1063     1.0  0.71368  0.79015  0.91002  1.0000
  H   H1064     1.0  0.65303  0.80041  0.90873  1.0000
  H   H1065     1.0  0.62847  0.79809  0.94042  1.0000
  H   H1066     1.0  0.65134  0.78321  0.98445  1.0000
  H   H1067     1.0  0.68366  0.75269  0.98568  1.0000
  C   C632      1.0  0.86543  0.71660  0.72367  1.0000
  Fe  Fe96      1.0  0.96939  0.98115  0.78797  1.0000
  S   S187      1.0  0.81727  0.52890  0.79079  1.0000
  C   C633      1.0  0.55538  0.96369  0.76969  1.0000
  H   H1068     1.0  0.74072  0.75120  0.96234  1.0000
  H   H1069     1.0  0.95160  0.62201  0.97937  1.0000
  H   H1070     1.0  0.65591  0.84733  0.96157  1.0000
  H   H1071     1.0  0.64211  0.85627  0.92634  1.0000
  H   H1072     1.0  0.68593  0.85009  0.93189  1.0000
  H   H1073     1.0  0.72777  0.79525  0.99250  1.0000
  H   H1074     1.0  0.85456  0.76987  0.71210  1.0000
  H   H1075     1.0  0.66501  0.97836  0.00245  1.0000
  H   H1076     1.0  0.58558  0.53074  0.91120  1.0000
  C   C634      1.0  0.51563  0.88278  0.74341  1.0000
  H   H1077     1.0  0.70642  0.95832  0.82883  1.0000
  H   H1078     1.0  0.72598  0.92069  0.81448  1.0000
  C   C635      1.0  0.53058  0.83436  0.77371  1.0000
  H   H1079     1.0  0.61528  0.74554  0.92557  1.0000
  H   H1080     1.0  0.54086  0.57688  0.90869  1.0000
  H   H1081     1.0  0.75099  0.55940  0.87793  1.0000
  H   H1082     1.0  0.96500  0.66530  0.01623  1.0000
  C   C636      1.0  0.61394  0.94584  0.81972  1.0000
  C   C637      1.0  0.89885  0.50892  0.84182  1.0000
  H   H1083     1.0  0.80647  0.68717  0.71703  1.0000
  C   C638      1.0  0.60407  0.51005  0.91398  1.0000
  H   H1084     1.0  0.79946  0.94121  0.86426  1.0000
  C   C639      1.0  0.96143  0.92321  0.92787  1.0000
  C   C640      1.0  0.60607  0.91167  0.77481  1.0000
  S   S188      1.0  0.97195  0.98868  0.73995  1.0000
  C   C641      1.0  0.54291  0.65381  0.96011  1.0000
  H   H1085     1.0  0.70480  0.56301  0.82804  1.0000
  H   H1086     1.0  0.61172  0.93295  0.76010  1.0000
  C   C642      1.0  0.86887  0.79596  0.01882  1.0000
  C   C643      1.0  0.55737  0.94130  0.79675  1.0000
  H   H1087     1.0  0.60859  0.52132  0.70644  1.0000
  H   H1088     1.0  0.63398  0.86549  0.78669  1.0000
  H   H1089     1.0  0.73975  0.73878  0.92497  1.0000
  H   H1090     1.0  0.62637  0.73494  0.96219  1.0000
  H   H1091     1.0  0.60700  0.99222  0.01886  1.0000
  H   H1092     1.0  0.97971  0.97719  0.85362  1.0000
  H   H1093     1.0  0.85902  0.91263  0.02540  1.0000
  H   H1094     1.0  0.96008  0.82801  0.71012  1.0000
  H   H1095     1.0  0.76724  0.95627  0.78680  1.0000
  H   H1096     1.0  0.75766  0.93019  0.85690  1.0000
  H   H1097     1.0  0.78368  0.88442  0.83569  1.0000
  C   C644      1.0  0.76598  0.57311  0.86146  1.0000
  C   C645      1.0  0.51090  0.86328  0.76844  1.0000
  C   C646      1.0  0.81162  0.98319  0.82085  1.0000
  H   H1098     1.0  0.55579  0.63714  0.70987  1.0000
  H   H1099     1.0  0.53645  0.92252  0.79419  1.0000
  H   H1100     1.0  0.76712  0.77222  0.93659  1.0000
  N   N46       1.0  0.75333  0.61979  0.82422  1.0000
  C   C647      1.0  0.73402  0.65237  0.82070  1.0000
  C   C648      1.0  0.73988  0.59460  0.80262  1.0000
  C   C649      1.0  0.79057  0.62494  0.81896  1.0000
  C   C650      1.0  0.74627  0.68279  0.83886  1.0000
  C   C651      1.0  0.70453  0.57972  0.80897  1.0000
  H   H1101     1.0  0.73406  0.66063  0.79794  1.0000
  H   H1102     1.0  0.70687  0.64862  0.82608  1.0000
  H   H1103     1.0  0.53692  0.90827  0.84361  1.0000
  H   H1104     1.0  0.73837  0.60638  0.78107  1.0000
  H   H1105     1.0  0.80229  0.64057  0.83622  1.0000
  H   H1106     1.0  0.80408  0.60023  0.81982  1.0000
  H   H1107     1.0  0.72156  0.60566  0.86048  1.0000
  H   H1108     1.0  0.74289  0.67837  0.86212  1.0000
  H   H1109     1.0  0.77283  0.68989  0.83421  1.0000
  H   H1110     1.0  0.73059  0.70519  0.83345  1.0000
  H   H1111     1.0  0.86738  0.76345  0.74845  1.0000
  H   H1112     1.0  0.90303  0.87162  0.99893  1.0000
  H   H1113     1.0  0.70499  0.94957  0.79122  1.0000
  H   H1114     1.0  0.59856  0.65073  0.71019  1.0000
  C   C652      1.0  0.62677  0.97851  0.80522  1.0000
  H   H1115     1.0  0.63334  0.97518  0.78239  1.0000
  H   H1116     1.0  0.53217  0.61749  0.99379  1.0000
  C   C653      1.0  0.88492  0.85103  0.00036  1.0000
  H   H1117     1.0  0.65070  0.98666  0.81564  1.0000
  C   C654      1.0  0.96580  0.95124  0.90508  1.0000
  H   H1118     1.0  0.82237  0.96486  0.80515  1.0000
  H   H1119     1.0  0.63607  0.93164  0.82802  1.0000
  H   H1120     1.0  0.65843  0.90440  0.79028  1.0000
  C   C655      1.0  0.53968  0.87308  0.72306  1.0000
  C   C656      1.0  0.65897  0.97771  0.02505  1.0000
  H   H1121     1.0  0.53421  0.51079  0.91622  1.0000
  C   C657      1.0  0.90382  0.96623  0.84275  1.0000
  C   C658      1.0  0.86986  0.97813  0.89537  1.0000
  C   C659      1.0  0.75413  0.96807  0.80538  1.0000
  N   N47       1.0  0.77730  0.97156  0.83091  1.0000
  C   C660      1.0  0.74873  0.60717  0.85439  1.0000
  C   C661      1.0  0.55876  0.84372  0.72800  1.0000
  H   H1122     1.0  0.85201  0.53657  0.84471  1.0000
  C   C662      1.0  0.54861  0.65905  0.93063  1.0000
  C   C663      1.0  0.79511  0.90856  0.82806  1.0000
  H   H1123     1.0  0.75744  0.57301  0.79956  1.0000
  H   H1124     1.0  0.79122  0.62504  0.77181  1.0000
  H   H1125     1.0  0.75942  0.62571  0.86998  1.0000
  S   S189      1.0  0.52568  0.81252  0.80678  1.0000
  C   C664      1.0  0.85407  0.85322  0.98580  1.0000
  C   C665      1.0  0.56225  0.89757  0.84786  1.0000
  S   S190      1.0  0.55534  0.70115  0.91782  1.0000
  H   H1126     1.0  0.63113  0.70472  0.93382  1.0000
  H   H1127     1.0  0.56892  0.87324  0.80710  1.0000
  H   H1128     1.0  0.60648  0.87942  0.82672  1.0000
  H   H1129     1.0  0.85235  0.92662  0.89144  1.0000
  H   H1130     1.0  0.50056  0.90514  0.73983  1.0000
  H   H1131     1.0  0.78995  0.66698  0.78755  1.0000
  C   C666      1.0  0.79997  0.64098  0.78992  1.0000
  H   H1132     1.0  0.53089  0.97731  0.76968  1.0000
  C   C667      1.0  0.83805  0.79798  0.00396  1.0000
  H   H1133     1.0  0.82563  0.75156  0.73794  1.0000
  H   H1134     1.0  0.62706  0.51755  0.90185  1.0000
  H   H1135     1.0  0.90631  0.51443  0.86364  1.0000
  H   H1136     1.0  0.94600  0.94788  0.88844  1.0000
  C   C668      1.0  0.85229  0.75245  0.73058  1.0000
  H   H1137     1.0  0.61147  0.50858  0.93685  1.0000
  N   N48       1.0  0.59041  0.92349  0.80256  1.0000
  H   H1138     1.0  0.81975  0.77761  0.00568  1.0000
  H   H1139     1.0  0.64943  0.88676  0.75578  1.0000
  H   H1140     1.0  0.95837  0.97516  0.91597  1.0000
  S   S191      1.0  0.56316  0.49440  0.02456  1.0000
  H   H1141     1.0  0.96657  0.93336  0.94969  1.0000
  S   S192      1.0  0.79902  0.50630  0.70287  1.0000
  H   H1142     1.0  0.63233  0.57809  0.71015  1.0000
  H   H1143     1.0  0.57539  0.55084  0.70046  1.0000
  C   C669      1.0  0.98430  0.90520  0.85806  1.0000
  H   H1144     1.0  0.85509  0.64996  0.71141  1.0000
  C   C670      1.0  0.58208  0.62830  0.70650  1.0000
  H   H1145     1.0  0.69385  0.80330  0.01651  1.0000
  H   H1146     1.0  0.81295  0.88255  0.03043  1.0000
  C   C671      1.0  0.97970  0.84088  0.69815  1.0000
  H   H1147     1.0  0.57547  0.98319  0.76860  1.0000
  H   H1148     1.0  0.74652  0.99348  0.79740  1.0000
  H   H1149     1.0  0.78896  0.98529  0.89143  1.0000
  H   H1150     1.0  0.83002  0.98356  0.83882  1.0000
  H   H1151     1.0  0.73787  0.98649  0.86053  1.0000
  C   C672      1.0  0.87845  0.49448  0.78538  1.0000
  H   H1152     1.0  0.80433  0.72616  0.69815  1.0000
