data_image0
_chemical_formula_structural       CH4C2HC2H9SC2HNH3CHSHCH2CSH2FeSFeS2FeHFeHS2HCFeSFeCFeSHC6SH4CSH2C2HCH3NC8H19SH2SHSHC2H5CH3FeSFeS2FeHFeS3HSFeSHFeSFeHSCH2C6H5SH3FeCH3CHC2H2NHC4HCHC3H6CHCH2CNCHC3SH10CH3CH4SH2C2HCFeS2FeS2FeSFeS3C2H3C3H2CHC2HC6H5C3H3CHC5H4NC8H21SHCHNCH2C2H4C4HCH5CSNCH2NC2H2C2H2CH3SH2C2H2C2HCH4CHC2H2C2H4C2H4CH5FeSHFeS2FeSFeS3H2CHC7H2CHC6HCH2NHC3HCH3NC4H3CH3C2H3C2H8CHCHCH4CH4C2H2CH6CH7CH4NHCH2CH3CH3S2CH2CFeS2FeS2FeSFeS3CHC6H4C6H4C6H4C2H4CH2CH2CHCH3CNH5CNH8CH2CHNH3SHCSCH2C4HC2H8CHCH2CHCHSH4NCH3C2HC2H7C2H9CHCH2SCHFeC3H4C2HNH6CH2CNHC2H3C5HCH4CH4C4H5CHCHCNFeSCFeSCFeSFeS3C6H4CH4C3H4CSHCH3C2H2CH3CH2CH4C3H3CH3C2SNSCH2C3H2CH3C2H10CH2CH2CHFeS2FeSFeHFeS3HSFeSHFeSFeSCSC6H7NH2C2H2FeHC2NHC2H2C2NCH5CH3CH4SH4CHCH3CHCH3CHCHCH7C2H2CHSCH5CHCFeH2FeS2FeHSHFeS2FeS2FeHFeCS2HFeSHC6H5SCHSH3C2H2C3HNCH5C2HCH3C2SC2H2SH6C2H3CH7CHC3HNH5CH3
_chemical_formula_sum              "C336 H576 S96 N24 Fe48"
_cell_length_a       31.1625
_cell_length_b       31.3047
_cell_length_c       47.5794
_cell_angle_alpha    90.4239
_cell_angle_beta     89.5915
_cell_angle_gamma    89.9979

_space_group_name_H-M_alt    "P 1"
_space_group_IT_number       1

loop_
  _space_group_symop_operation_xyz
  'x, y, z'

loop_
  _atom_site_type_symbol
  _atom_site_label
  _atom_site_symmetry_multiplicity
  _atom_site_fract_x
  _atom_site_fract_y
  _atom_site_fract_z
  _atom_site_occupancy
  C   C1        1.0  0.24840  0.09264  0.29222  1.0000
  H   H1        1.0  0.16931  0.19192  0.27789  1.0000
  H   H2        1.0  0.31180  0.10224  0.27275  1.0000
  H   H3        1.0  0.48044  0.27281  0.12538  1.0000
  H   H4        1.0  0.47929  0.36389  0.28011  1.0000
  C   C2        1.0  0.17779  0.16084  0.28750  1.0000
  C   C3        1.0  0.30915  0.17102  0.31990  1.0000
  H   H5        1.0  0.27168  0.13941  0.26041  1.0000
  C   C4        1.0  0.51256  0.35530  0.28310  1.0000
  C   C5        1.0  0.27738  0.10643  0.26753  1.0000
  H   H6        1.0  0.47560  0.26765  0.16242  1.0000
  H   H7        1.0  0.21822  0.07883  0.28355  1.0000
  H   H8        1.0  0.21427  0.18897  0.32103  1.0000
  H   H9        1.0  0.05142  0.19026  0.25892  1.0000
  H   H10       1.0  0.06976  0.24080  0.27133  1.0000
  H   H11       1.0  0.47941  0.22052  0.13987  1.0000
  H   H12       1.0  0.29414  0.20301  0.32265  1.0000
  H   H13       1.0  0.05282  0.47225  0.99644  1.0000
  H   H14       1.0  0.07912  0.32127  0.30464  1.0000
  S   S1        1.0  0.14079  0.01447  0.31413  1.0000
  C   C6        1.0  0.22023  0.16588  0.30358  1.0000
  C   C7        1.0  0.01368  0.29666  0.30447  1.0000
  H   H15       1.0  0.31828  0.16609  0.29764  1.0000
  N   N1        1.0  0.23947  0.12534  0.31496  1.0000
  H   H16       1.0  0.18005  0.13686  0.27030  1.0000
  H   H17       1.0  0.24254  0.18291  0.28935  1.0000
  H   H18       1.0  0.50901  0.23550  0.19710  1.0000
  C   C8        1.0  0.04888  0.21333  0.27672  1.0000
  H   H19       1.0  0.26457  0.06419  0.30118  1.0000
  S   S2        1.0  0.07444  0.11234  0.32169  1.0000
  H   H20       1.0  0.26996  0.08616  0.24891  1.0000
  C   C9        1.0  0.49121  0.25347  0.14352  1.0000
  H   H21       1.0  0.06118  0.19656  0.29538  1.0000
  H   H22       1.0  0.15105  0.15280  0.30194  1.0000
  C   C10       1.0  0.05971  0.29767  0.31655  1.0000
  S   S3        1.0  0.29646  0.48203  0.31960  1.0000
  H   H23       1.0  0.07746  0.26722  0.31537  1.0000
  H   H24       1.0  0.01531  0.30888  0.28256  1.0000
  Fe  Fe1       1.0  0.34210  0.34867  0.36526  1.0000
  S   S4        1.0  0.31057  0.28343  0.37404  1.0000
  Fe  Fe2       1.0  0.38279  0.42422  0.39923  1.0000
  S   S5        1.0  0.40893  0.45578  0.36056  1.0000
  S   S6        1.0  0.38849  0.44450  0.44527  1.0000
  Fe  Fe3       1.0  0.34543  0.43893  0.34074  1.0000
  H   H25       1.0  0.23484  0.31817  0.34536  1.0000
  Fe  Fe4       1.0  0.42897  0.38919  0.34680  1.0000
  H   H26       1.0  0.46501  0.50931  0.52504  1.0000
  S   S7        1.0  0.31767  0.41211  0.38079  1.0000
  S   S8        1.0  0.40547  0.35892  0.38674  1.0000
  H   H27       1.0  0.16107  0.28929  0.33952  1.0000
  C   C11       1.0  0.42630  0.48041  0.46028  1.0000
  Fe  Fe5       1.0  0.09280  0.05081  0.34210  1.0000
  S   S9        1.0  0.11085  0.08497  0.38226  1.0000
  Fe  Fe6       1.0  0.04118  0.07492  0.39503  1.0000
  C   C12       1.0  0.20715  0.10616  0.33504  1.0000
  Fe  Fe7       1.0  0.08855  0.14573  0.36229  1.0000
  S   S10       1.0  0.11971  0.21192  0.35702  1.0000
  H   H28       1.0  0.27126  0.14604  0.35318  1.0000
  C   C13       1.0  0.25683  0.26508  0.36983  1.0000
  C   C14       1.0  0.22616  0.28799  0.35479  1.0000
  C   C15       1.0  0.18427  0.27150  0.35153  1.0000
  C   C16       1.0  0.17239  0.23198  0.36324  1.0000
  C   C17       1.0  0.20280  0.20959  0.37886  1.0000
  C   C18       1.0  0.24477  0.22590  0.38192  1.0000
  S   S11       1.0  0.50010  0.37397  0.34005  1.0000
  H   H29       1.0  0.19571  0.13048  0.35052  1.0000
  H   H30       1.0  0.19396  0.17974  0.38864  1.0000
  H   H31       1.0  0.26808  0.20806  0.39382  1.0000
  H   H32       1.0  0.44845  0.50669  0.42114  1.0000
  C   C19       1.0  0.22270  0.06709  0.35191  1.0000
  S   S12       1.0  0.02483  0.03685  0.35577  1.0000
  H   H33       1.0  0.02820  0.02295  0.49723  1.0000
  H   H34       1.0  0.46550  0.35594  0.43915  1.0000
  C   C20       1.0  0.45176  0.50727  0.44374  1.0000
  C   C21       1.0  0.43100  0.48174  0.48967  1.0000
  H   H35       1.0  0.38678  0.34703  0.45036  1.0000
  C   C22       1.0  0.50056  0.36221  0.43944  1.0000
  H   H36       1.0  0.50971  0.36487  0.46185  1.0000
  H   H37       1.0  0.41137  0.46124  0.50269  1.0000
  H   H38       1.0  0.25045  0.07460  0.36551  1.0000
  N   N2        1.0  0.27693  0.33400  0.45896  1.0000
  C   C23       1.0  0.24158  0.36173  0.44729  1.0000
  C   C24       1.0  0.27962  0.34349  0.49004  1.0000
  C   C25       1.0  0.26467  0.28785  0.45395  1.0000
  C   C26       1.0  0.31790  0.34504  0.44364  1.0000
  C   C27       1.0  0.22676  0.35097  0.41711  1.0000
  C   C28       1.0  0.29291  0.38954  0.49793  1.0000
  C   C29       1.0  0.28627  0.25372  0.47229  1.0000
  C   C30       1.0  0.35982  0.32452  0.45407  1.0000
  H   H39       1.0  0.21233  0.36023  0.46089  1.0000
  H   H40       1.0  0.25136  0.39594  0.44701  1.0000
  H   H41       1.0  0.30259  0.32227  0.50079  1.0000
  H   H42       1.0  0.24817  0.33685  0.50044  1.0000
  H   H43       1.0  0.22952  0.28330  0.45739  1.0000
  H   H44       1.0  0.27093  0.27858  0.43164  1.0000
  H   H45       1.0  0.31562  0.33601  0.42117  1.0000
  H   H46       1.0  0.32288  0.38019  0.44279  1.0000
  H   H47       1.0  0.20990  0.31978  0.41594  1.0000
  H   H48       1.0  0.20352  0.37559  0.41019  1.0000
  H   H49       1.0  0.25353  0.35105  0.40174  1.0000
  H   H50       1.0  0.29467  0.39239  0.52118  1.0000
  H   H51       1.0  0.32522  0.39772  0.48958  1.0000
  H   H52       1.0  0.26920  0.41354  0.49092  1.0000
  H   H53       1.0  0.32164  0.25482  0.47134  1.0000
  H   H54       1.0  0.27671  0.22161  0.46441  1.0000
  H   H55       1.0  0.27508  0.25577  0.49447  1.0000
  H   H56       1.0  0.36671  0.29449  0.44228  1.0000
  H   H57       1.0  0.36056  0.31839  0.47685  1.0000
  S   S13       1.0  0.02007  0.13861  0.37751  1.0000
  H   H58       1.0  0.19642  0.05635  0.36604  1.0000
  H   H59       1.0  0.05942  0.30945  0.33863  1.0000
  S   S14       1.0  0.36712  0.37427  0.32404  1.0000
  H   H60       1.0  0.23020  0.03934  0.33812  1.0000
  S   S15       1.0  0.03130  0.05657  0.44134  1.0000
  H   H61       1.0  0.03331  0.22154  0.33403  1.0000
  C   C31       1.0  0.46134  0.50903  0.50244  1.0000
  C   C32       1.0  0.50955  0.40364  0.42308  1.0000
  H   H62       1.0  0.49581  0.39857  0.40178  1.0000
  H   H63       1.0  0.47104  0.50080  0.63403  1.0000
  H   H64       1.0  0.50641  0.45825  0.37697  1.0000
  H   H65       1.0  0.48960  0.42931  0.43267  1.0000
  H   H66       1.0  0.29979  0.10633  0.33383  1.0000
  C   C33       1.0  0.27966  0.13547  0.33138  1.0000
  H   H67       1.0  0.33924  0.17172  0.33230  1.0000
  H   H68       1.0  0.28713  0.50729  0.38910  1.0000
  H   H69       1.0  0.17789  0.09557  0.32374  1.0000
  Fe  Fe8       1.0  0.33787  0.05364  0.84575  1.0000
  S   S16       1.0  0.32988  0.07943  0.88956  1.0000
  Fe  Fe9       1.0  0.41703  0.10934  0.83619  1.0000
  S   S17       1.0  0.41444  0.13829  0.87976  1.0000
  S   S18       1.0  0.45926  0.12964  0.79914  1.0000
  Fe  Fe10      1.0  0.40118  0.07090  0.89432  1.0000
  H   H70       1.0  0.14371  0.25871  0.81840  1.0000
  Fe  Fe11      1.0  0.34321  0.14437  0.87201  1.0000
  S   S19       1.0  0.30442  0.20110  0.88937  1.0000
  S   S20       1.0  0.40846  0.04116  0.85103  1.0000
  S   S21       1.0  0.34634  0.11933  0.82780  1.0000
  H   H71       1.0  0.50782  0.16513  0.75373  1.0000
  S   S22       1.0  0.06755  0.35889  0.87893  1.0000
  Fe  Fe12      1.0  0.07199  0.45923  0.83202  1.0000
  S   S23       1.0  0.11990  0.44787  0.86619  1.0000
  H   H72       1.0  0.05336  0.40666  0.74434  1.0000
  Fe  Fe13      1.0  0.12188  0.37933  0.85079  1.0000
  S   S24       1.0  0.17880  0.33903  0.83498  1.0000
  Fe  Fe14      1.0  0.06159  0.42837  0.89181  1.0000
  H   H73       1.0  0.08341  0.15842  0.80505  1.0000
  S   S25       1.0  0.07788  0.39283  0.81461  1.0000
  C   C34       1.0  0.42384  0.25272  0.88173  1.0000
  H   H74       1.0  0.41386  0.28601  0.88646  1.0000
  H   H75       1.0  0.14412  0.17082  0.87204  1.0000
  C   C35       1.0  0.26871  0.23821  0.87371  1.0000
  C   C36       1.0  0.26486  0.24210  0.84457  1.0000
  C   C37       1.0  0.23754  0.27341  0.83319  1.0000
  C   C38       1.0  0.21291  0.30051  0.85073  1.0000
  C   C39       1.0  0.21605  0.29601  0.87986  1.0000
  C   C40       1.0  0.24411  0.26534  0.89123  1.0000
  H   H76       1.0  0.28315  0.22123  0.83084  1.0000
  H   H77       1.0  0.23531  0.27654  0.81062  1.0000
  H   H78       1.0  0.19750  0.31667  0.89364  1.0000
  H   H79       1.0  0.24691  0.26270  0.91381  1.0000
  H   H80       1.0  0.01903  0.44614  0.77848  1.0000
  S   S26       1.0  0.05598  0.44608  0.93854  1.0000
  H   H81       1.0  0.43919  0.27767  0.78434  1.0000
  H   H82       1.0  0.07227  0.29347  0.82113  1.0000
  H   H83       1.0  0.05043  0.33030  0.74765  1.0000
  Fe  Fe15      1.0  0.02345  0.37559  0.84335  1.0000
  C   C41       1.0  0.44910  0.24939  0.85376  1.0000
  H   H84       1.0  0.03682  0.14073  0.82214  1.0000
  H   H85       1.0  0.47810  0.26930  0.85677  1.0000
  H   H86       1.0  0.38693  0.31289  0.81055  1.0000
  C   C42       1.0  0.43156  0.34276  0.83799  1.0000
  H   H87       1.0  0.04068  0.20463  0.84614  1.0000
  C   C43       1.0  0.02000  0.34796  0.75146  1.0000
  C   C44       1.0  0.10326  0.23943  0.89912  1.0000
  H   H88       1.0  0.04659  0.24575  0.80732  1.0000
  H   H89       1.0  0.17414  0.21707  0.86339  1.0000
  N   N3        1.0  0.10964  0.21672  0.84661  1.0000
  H   H90       1.0  0.08368  0.27553  0.78640  1.0000
  C   C45       1.0  0.11511  0.23742  0.81826  1.0000
  C   C46       1.0  0.15043  0.19390  0.85478  1.0000
  C   C47       1.0  0.07163  0.18695  0.84754  1.0000
  C   C48       1.0  0.07685  0.26432  0.80807  1.0000
  H   H91       1.0  0.18972  0.19201  0.81608  1.0000
  C   C49       1.0  0.07073  0.14995  0.82599  1.0000
  H   H92       1.0  0.12503  0.27845  0.86497  1.0000
  C   C50       1.0  0.10149  0.25205  0.86780  1.0000
  C   C51       1.0  0.17514  0.16962  0.83142  1.0000
  C   C52       1.0  0.02326  0.48433  0.95644  1.0000
  H   H93       1.0  0.45765  0.22652  0.79440  1.0000
  H   H94       1.0  0.13577  0.22887  0.90542  1.0000
  H   H95       1.0  0.20227  0.15207  0.84109  1.0000
  H   H96       1.0  0.34110  0.20386  0.79542  1.0000
  H   H97       1.0  0.34545  0.26050  0.79477  1.0000
  H   H98       1.0  0.38511  0.22685  0.77711  1.0000
  C   C53       1.0  0.02286  0.39195  0.73697  1.0000
  H   H99       1.0  0.39538  0.23161  0.88230  1.0000
  C   C54       1.0  0.50080  0.02170  0.94720  1.0000
  H   H100      1.0  0.37572  0.30317  0.84592  1.0000
  H   H101      1.0  0.06938  0.17138  0.86843  1.0000
  C   C55       1.0  0.03037  0.48708  0.72659  1.0000
  N   N4        1.0  0.42464  0.26139  0.82770  1.0000
  C   C56       1.0  0.39015  0.22802  0.82364  1.0000
  H   H102      1.0  0.08814  0.12165  0.83405  1.0000
  C   C57       1.0  0.45377  0.26000  0.80211  1.0000
  C   C58       1.0  0.40289  0.30422  0.83054  1.0000
  C   C59       1.0  0.36444  0.23065  0.79603  1.0000
  S   S27       1.0  0.01340  0.44341  0.85827  1.0000
  H   H103      1.0  0.44453  0.35789  0.81867  1.0000
  H   H104      1.0  0.15531  0.14581  0.82026  1.0000
  H   H105      1.0  0.40432  0.19539  0.82431  1.0000
  H   H106      1.0  0.36595  0.22923  0.84092  1.0000
  H   H107      1.0  0.12219  0.21388  0.80140  1.0000
  H   H108      1.0  0.07923  0.21473  0.90458  1.0000
  H   H109      1.0  0.41208  0.36681  0.84971  1.0000
  H   H110      1.0  0.02966  0.50254  0.74762  1.0000
  H   H111      1.0  0.02754  0.38542  0.71408  1.0000
  H   H112      1.0  0.06928  0.26661  0.86467  1.0000
  C   C60       1.0  0.45848  0.02136  0.95725  1.0000
  H   H113      1.0  0.46524  0.46925  0.66488  1.0000
  H   H114      1.0  0.09564  0.26810  0.91215  1.0000
  H   H115      1.0  0.06093  0.46943  0.72368  1.0000
  C   C61       1.0  0.02908  0.49093  0.98548  1.0000
  H   H116      1.0  0.48510  0.47816  0.71160  1.0000
  H   H117      1.0  0.01603  0.35085  0.77451  1.0000
  H   H118      1.0  0.46173  0.21614  0.85167  1.0000
  H   H119      1.0  0.50764  0.03407  0.92648  1.0000
  S   S28       1.0  0.41426  0.03965  0.93700  1.0000
  H   H120      1.0  0.44493  0.24238  0.89914  1.0000
  H   H121      1.0  0.45827  0.33496  0.85220  1.0000
  C   C62       1.0  0.51045  0.15451  0.79843  1.0000
  C   C63       1.0  0.47689  0.50044  0.65705  1.0000
  H   H122      1.0  0.50131  0.30996  0.81382  1.0000
  C   C64       1.0  0.49995  0.27705  0.80539  1.0000
  Fe  Fe16      1.0  0.20612  0.78523  0.25726  1.0000
  S   S29       1.0  0.20849  0.80866  0.21297  1.0000
  S   S30       1.0  0.16095  0.81431  0.29016  1.0000
  Fe  Fe17      1.0  0.26937  0.71237  0.24454  1.0000
  S   S31       1.0  0.27540  0.73094  0.19885  1.0000
  S   S32       1.0  0.31766  0.66402  0.26156  1.0000
  Fe  Fe18      1.0  0.27983  0.79827  0.21479  1.0000
  S   S33       1.0  0.32290  0.85171  0.19845  1.0000
  Fe  Fe19      1.0  0.20334  0.73964  0.20014  1.0000
  S   S34       1.0  0.16215  0.72886  0.16091  1.0000
  S   S35       1.0  0.27781  0.77996  0.26041  1.0000
  S   S36       1.0  0.19683  0.71595  0.24462  1.0000
  C   C65       1.0  0.14477  0.95866  0.30742  1.0000
  C   C66       1.0  0.05169  0.66220  0.17723  1.0000
  H   H123      1.0  0.04772  0.75757  0.26073  1.0000
  H   H124      1.0  0.05342  0.75937  0.18282  1.0000
  H   H125      1.0  0.03278  0.68641  0.10892  1.0000
  C   C67       1.0  0.11187  0.70228  0.15777  1.0000
  C   C68       1.0  0.08996  0.70391  0.13202  1.0000
  C   C69       1.0  0.48396  0.98969  0.00122  1.0000
  H   H126      1.0  0.08158  0.87112  0.25816  1.0000
  H   H127      1.0  0.09107  0.90015  0.21552  1.0000
  C   C70       1.0  0.09269  0.68085  0.18030  1.0000
  H   H128      1.0  0.10448  0.72025  0.11441  1.0000
  C   C71       1.0  0.02972  0.66391  0.15148  1.0000
  C   C72       1.0  0.07589  0.74720  0.24812  1.0000
  H   H129      1.0  0.10942  0.67873  0.20008  1.0000
  C   C73       1.0  0.36855  0.84672  0.17614  1.0000
  C   C74       1.0  0.39174  0.88369  0.16904  1.0000
  C   C75       1.0  0.42672  0.88175  0.15012  1.0000
  C   C76       1.0  0.43854  0.84278  0.13781  1.0000
  C   C77       1.0  0.41565  0.80567  0.14511  1.0000
  C   C78       1.0  0.38099  0.80753  0.16433  1.0000
  H   H130      1.0  0.38236  0.91415  0.17806  1.0000
  H   H131      1.0  0.44396  0.91056  0.14467  1.0000
  H   H132      1.0  0.42460  0.77535  0.13573  1.0000
  H   H133      1.0  0.36364  0.77881  0.16980  1.0000
  H   H134      1.0  0.06167  0.82517  0.27625  1.0000
  C   C79       1.0  0.17487  0.94404  0.28736  1.0000
  C   C80       1.0  0.18003  0.90004  0.28173  1.0000
  C   C81       1.0  0.15535  0.87008  0.29633  1.0000
  H   H135      1.0  0.10132  0.73727  0.26299  1.0000
  H   H136      1.0  0.19457  0.96687  0.27622  1.0000
  H   H137      1.0  0.20355  0.88929  0.26640  1.0000
  C   C82       1.0  0.08315  0.83850  0.19379  1.0000
  H   H138      1.0  0.13089  0.88866  0.18955  1.0000
  C   C83       1.0  0.30320  0.53168  0.30238  1.0000
  C   C84       1.0  0.27020  0.59552  0.28217  1.0000
  C   C85       1.0  0.31075  0.61268  0.27650  1.0000
  C   C86       1.0  0.34743  0.58897  0.28366  1.0000
  C   C87       1.0  0.34374  0.54866  0.29652  1.0000
  H   H139      1.0  0.05986  0.85563  0.18039  1.0000
  H   H140      1.0  0.24174  0.61339  0.27679  1.0000
  H   H141      1.0  0.37892  0.60193  0.27921  1.0000
  H   H142      1.0  0.37220  0.53076  0.30183  1.0000
  N   N5        1.0  0.26345  0.79557  0.10906  1.0000
  C   C88       1.0  0.29553  0.75928  0.10960  1.0000
  C   C89       1.0  0.28342  0.83062  0.09170  1.0000
  C   C90       1.0  0.22348  0.77933  0.09477  1.0000
  C   C91       1.0  0.25396  0.80922  0.13896  1.0000
  C   C92       1.0  0.27905  0.71631  0.12122  1.0000
  C   C93       1.0  0.32542  0.84961  0.10341  1.0000
  C   C94       1.0  0.18626  0.81119  0.09147  1.0000
  C   C95       1.0  0.23439  0.85431  0.14363  1.0000
  H   H143      1.0  0.30846  0.75245  0.08812  1.0000
  H   H144      1.0  0.32395  0.76804  0.12248  1.0000
  H   H145      1.0  0.26142  0.85777  0.08844  1.0000
  H   H146      1.0  0.29052  0.81877  0.07000  1.0000
  H   H147      1.0  0.23160  0.76652  0.07346  1.0000
  H   H148      1.0  0.20910  0.75228  0.10663  1.0000
  H   H149      1.0  0.23216  0.78592  0.14925  1.0000
  H   H150      1.0  0.28375  0.80829  0.15170  1.0000
  H   H151      1.0  0.26012  0.69875  0.10516  1.0000
  H   H152      1.0  0.30679  0.69574  0.12668  1.0000
  H   H153      1.0  0.25916  0.72030  0.14039  1.0000
  H   H154      1.0  0.33498  0.87768  0.09065  1.0000
  H   H155      1.0  0.32173  0.86096  0.12539  1.0000
  H   H156      1.0  0.35236  0.82653  0.10197  1.0000
  H   H157      1.0  0.19537  0.84010  0.07959  1.0000
  H   H158      1.0  0.17192  0.81977  0.11216  1.0000
  H   H159      1.0  0.16030  0.79530  0.07937  1.0000
  H   H160      1.0  0.20591  0.85186  0.15768  1.0000
  H   H161      1.0  0.22355  0.87096  0.12465  1.0000
  H   H162      1.0  0.25758  0.87525  0.15483  1.0000
  H   H163      1.0  0.11549  0.76701  0.21336  1.0000
  S   S37       1.0  0.48023  0.83915  0.11229  1.0000
  H   H164      1.0  0.10381  0.81940  0.17910  1.0000
  C   C96       1.0  0.09362  0.78277  0.22893  1.0000
  H   H165      1.0  0.23500  0.54223  0.29936  1.0000
  N   N6        1.0  0.06045  0.80934  0.21420  1.0000
  C   C97       1.0  0.04924  0.68473  0.12883  1.0000
  H   H166      1.0  0.03706  0.64603  0.19488  1.0000
  H   H167      1.0  0.47708  0.97758  0.02200  1.0000
  C   C98       1.0  0.26651  0.55519  0.29499  1.0000
  C   C99       1.0  0.03303  0.77905  0.19718  1.0000
  H   H168      1.0  0.13394  0.86265  0.22256  1.0000
  H   H169      1.0  0.02932  0.87162  0.27323  1.0000
  H   H170      1.0  0.11493  0.80294  0.24186  1.0000
  H   H171      1.0  0.06698  0.71853  0.23563  1.0000
  C   C100      1.0  0.05287  0.85123  0.26173  1.0000
  C   C101      1.0  0.11123  0.87412  0.20653  1.0000
  C   C102      1.0  0.11955  0.92874  0.32168  1.0000
  C   C103      1.0  0.12496  0.88468  0.31621  1.0000
  H   H172      1.0  0.41781  0.00469  0.99234  1.0000
  C   C104      1.0  0.03208  0.83426  0.23437  1.0000
  H   H173      1.0  0.01595  0.75606  0.21104  1.0000
  H   H174      1.0  0.01772  0.86227  0.22362  1.0000
  H   H175      1.0  0.50066  0.69579  0.62401  1.0000
  H   H176      1.0  0.31193  0.65673  0.43740  1.0000
  H   H177      1.0  0.12812  0.79459  0.64956  1.0000
  C   C105      1.0  0.31882  0.67017  0.35200  1.0000
  S   S38       1.0  0.47827  0.61325  0.64449  1.0000
  N   N7        1.0  0.34557  0.60205  0.37706  1.0000
  C   C106      1.0  0.03393  0.84608  0.63457  1.0000
  H   H178      1.0  0.43467  0.75835  0.58048  1.0000
  H   H179      1.0  0.46781  0.71124  0.58293  1.0000
  N   N8        1.0  0.50635  0.76455  0.62305  1.0000
  C   C107      1.0  0.48185  0.53476  0.45652  1.0000
  C   C108      1.0  0.46729  0.74514  0.57662  1.0000
  H   H180      1.0  0.08693  0.82317  0.60926  1.0000
  H   H181      1.0  0.39813  0.64004  0.36021  1.0000
  C   C109      1.0  0.36857  0.67717  0.62404  1.0000
  C   C110      1.0  0.40851  0.65613  0.62185  1.0000
  H   H182      1.0  0.35275  0.68799  0.60522  1.0000
  H   H183      1.0  0.42307  0.65061  0.60145  1.0000
  C   C111      1.0  0.07400  0.82619  0.63035  1.0000
  H   H184      1.0  0.34703  0.53667  0.36157  1.0000
  H   H185      1.0  0.42117  0.54775  0.37691  1.0000
  H   H186      1.0  0.27003  0.54672  0.36499  1.0000
  S   S39       1.0  0.29753  0.70895  0.65189  1.0000
  H   H187      1.0  0.43466  0.59590  0.39633  1.0000
  H   H188      1.0  0.45530  0.58701  0.36177  1.0000
  C   C112      1.0  0.46220  0.76766  0.63624  1.0000
  C   C113      1.0  0.30875  0.62828  0.42345  1.0000
  H   H189      1.0  0.27268  0.55883  0.40222  1.0000
  H   H190      1.0  0.29030  0.68204  0.34051  1.0000
  C   C114      1.0  0.38818  0.60602  0.36193  1.0000
  C   C115      1.0  0.42652  0.58262  0.37536  1.0000
  H   H191      1.0  0.27926  0.63423  0.41139  1.0000
  C   C116      1.0  0.50174  0.77200  0.59181  1.0000
  H   H192      1.0  0.37287  0.60650  0.41863  1.0000
  H   H193      1.0  0.32211  0.69006  0.37122  1.0000
  H   H194      1.0  0.38558  0.59396  0.33991  1.0000
  H   H195      1.0  0.47316  0.74620  0.55356  1.0000
  C   C117      1.0  0.48710  0.53561  0.48591  1.0000
  H   H196      1.0  0.21436  0.87158  0.64585  1.0000
  C   C118      1.0  0.28862  0.54202  0.38456  1.0000
  C   C119      1.0  0.31208  0.62253  0.35875  1.0000
  H   H197      1.0  0.30427  0.59971  0.43687  1.0000
  H   H198      1.0  0.36443  0.65623  0.40326  1.0000
  C   C120      1.0  0.34968  0.62397  0.40525  1.0000
  C   C121      1.0  0.33602  0.55498  0.38050  1.0000
  H   H199      1.0  0.27934  0.61975  0.36772  1.0000
  H   H200      1.0  0.35412  0.54152  0.39851  1.0000
  H   H201      1.0  0.31016  0.60523  0.33835  1.0000
  H   H202      1.0  0.16111  0.89239  0.64791  1.0000
  C   C122      1.0  0.09749  0.81003  0.65317  1.0000
  C   C123      1.0  0.42874  0.64118  0.64600  1.0000
  H   H203      1.0  0.44735  0.79912  0.63135  1.0000
  H   H204      1.0  0.44035  0.74298  0.62740  1.0000
  H   H205      1.0  0.34661  0.67509  0.33766  1.0000
  H   H206      1.0  0.02658  0.76636  0.56968  1.0000
  C   C124      1.0  0.34851  0.68358  0.65034  1.0000
  H   H207      1.0  0.10569  0.86178  0.32762  1.0000
  H   H208      1.0  0.50160  0.55527  0.44358  1.0000
  H   H209      1.0  0.09636  0.93949  0.33722  1.0000
  H   H210      1.0  0.49415  0.80613  0.58751  1.0000
  H   H211      1.0  0.01491  0.71493  0.58354  1.0000
  Fe  Fe20      1.0  0.26128  0.72600  0.69239  1.0000
  S   S40       1.0  0.28959  0.72367  0.73546  1.0000
  H   H212      1.0  0.17136  0.97226  0.73949  1.0000
  Fe  Fe21      1.0  0.17752  0.76751  0.71418  1.0000
  S   S41       1.0  0.20130  0.76838  0.75902  1.0000
  S   S42       1.0  0.10975  0.79540  0.71025  1.0000
  Fe  Fe22      1.0  0.26430  0.79059  0.74112  1.0000
  S   S43       1.0  0.31139  0.84239  0.75512  1.0000
  Fe  Fe23      1.0  0.22401  0.70137  0.74972  1.0000
  S   S44       1.0  0.22103  0.64796  0.78224  1.0000
  S   S45       1.0  0.23938  0.79430  0.69702  1.0000
  S   S46       1.0  0.19694  0.69903  0.70598  1.0000
  H   H213      1.0  0.47849  0.78441  0.68032  1.0000
  H   H214      1.0  0.35718  0.97773  0.79796  1.0000
  C   C125      1.0  0.08115  0.81373  0.68052  1.0000
  H   H215      1.0  0.12516  0.66974  0.83921  1.0000
  C   C126      1.0  0.45549  0.92615  0.90027  1.0000
  C   C127      1.0  0.17911  0.60996  0.78577  1.0000
  C   C128      1.0  0.13935  0.61520  0.77276  1.0000
  C   C129      1.0  0.10605  0.58554  0.77755  1.0000
  C   C130      1.0  0.11228  0.55020  0.79512  1.0000
  C   C131      1.0  0.15230  0.54445  0.80767  1.0000
  C   C132      1.0  0.18538  0.57439  0.80318  1.0000
  H   H216      1.0  0.13405  0.64251  0.75941  1.0000
  H   H217      1.0  0.07515  0.59044  0.76787  1.0000
  C   C133      1.0  0.13033  0.92542  0.69794  1.0000
  H   H218      1.0  0.21608  0.57002  0.81323  1.0000
  C   C134      1.0  0.30335  0.88757  0.77711  1.0000
  C   C135      1.0  0.33646  0.91790  0.77942  1.0000
  C   C136      1.0  0.33154  0.95453  0.79651  1.0000
  C   C137      1.0  0.29315  0.96139  0.81121  1.0000
  C   C138      1.0  0.26008  0.93097  0.80905  1.0000
  C   C139      1.0  0.26532  0.89396  0.79232  1.0000
  H   H219      1.0  0.36607  0.91309  0.76780  1.0000
  C   C140      1.0  0.01756  0.84973  0.66192  1.0000
  H   H220      1.0  0.23040  0.93589  0.82055  1.0000
  H   H221      1.0  0.24014  0.87032  0.79124  1.0000
  N   N9        1.0  0.09365  0.58909  0.88631  1.0000
  H   H222      1.0  0.05693  0.53347  0.90016  1.0000
  C   C141      1.0  0.23803  0.96662  0.72939  1.0000
  C   C142      1.0  0.36030  0.86842  0.84393  1.0000
  C   C143      1.0  0.14317  0.53742  0.91368  1.0000
  H   H223      1.0  0.24597  0.94218  0.74518  1.0000
  C   C144      1.0  0.36916  0.66920  0.67451  1.0000
  H   H224      1.0  0.09506  0.59559  0.84095  1.0000
  H   H225      1.0  0.42427  0.63648  0.69113  1.0000
  H   H226      1.0  0.35408  0.67379  0.69486  1.0000
  N   N10       1.0  0.37452  0.91480  0.88817  1.0000
  C   C145      1.0  0.33654  0.94365  0.88302  1.0000
  C   C146      1.0  0.39029  0.89953  0.85972  1.0000
  C   C147      1.0  0.40850  0.94126  0.90273  1.0000
  C   C148      1.0  0.35976  0.87869  0.90662  1.0000
  H   H227      1.0  0.15766  0.51726  0.82107  1.0000
  H   H228      1.0  0.35583  0.83802  0.85539  1.0000
  H   H229      1.0  0.17758  0.85050  0.67109  1.0000
  C   C149      1.0  0.39217  0.84245  0.91188  1.0000
  H   H230      1.0  0.14434  0.55551  0.93378  1.0000
  H   H231      1.0  0.06572  0.94646  0.70837  1.0000
  H   H232      1.0  0.42153  0.88283  0.86095  1.0000
  C   C150      1.0  0.20442  0.91442  0.68175  1.0000
  C   C151      1.0  0.09866  0.95079  0.71677  1.0000
  H   H233      1.0  0.40115  0.94470  0.92560  1.0000
  H   H234      1.0  0.35075  0.89097  0.92786  1.0000
  H   H235      1.0  0.32940  0.86423  0.89874  1.0000
  C   C152      1.0  0.05941  0.55556  0.88220  1.0000
  C   C153      1.0  0.18280  0.88553  0.72712  1.0000
  H   H236      1.0  0.17261  0.86446  0.76997  1.0000
  H   H237      1.0  0.41192  0.84956  0.93070  1.0000
  H   H238      1.0  0.12840  0.94132  0.67710  1.0000
  H   H239      1.0  0.41348  0.83554  0.89376  1.0000
  H   H240      1.0  0.40876  0.97443  0.89445  1.0000
  H   H241      1.0  0.16301  0.59125  0.89035  1.0000
  H   H242      1.0  0.47539  0.94567  0.91481  1.0000
  H   H243      1.0  0.30980  0.92617  0.87275  1.0000
  C   C154      1.0  0.13673  0.56740  0.88854  1.0000
  H   H244      1.0  0.37438  0.81220  0.91553  1.0000
  C   C155      1.0  0.15697  0.88611  0.75479  1.0000
  H   H245      1.0  0.06445  0.63532  0.85836  1.0000
  C   C156      1.0  0.40896  0.64797  0.67231  1.0000
  H   H246      1.0  0.30176  0.94239  0.92376  1.0000
  H   H247      1.0  0.34571  0.96957  0.86825  1.0000
  H   H248      1.0  0.14365  0.54859  0.86904  1.0000
  H   H249      1.0  0.46001  0.89245  0.90617  1.0000
  C   C157      1.0  0.45890  0.76134  0.66822  1.0000
  H   H250      1.0  0.39656  0.92734  0.84572  1.0000
  H   H251      1.0  0.37503  0.86013  0.82325  1.0000
  H   H252      1.0  0.11507  0.63517  0.91733  1.0000
  H   H253      1.0  0.06794  0.53442  0.86406  1.0000
  C   C158      1.0  0.13171  0.64821  0.85717  1.0000
  C   C159      1.0  0.09436  0.61611  0.86007  1.0000
  H   H254      1.0  0.13555  0.66844  0.87618  1.0000
  H   H255      1.0  0.42497  0.76651  0.67484  1.0000
  C   C160      1.0  0.08519  0.61797  0.91131  1.0000
  H   H256      1.0  0.12374  0.87439  0.75139  1.0000
  H   H257      1.0  0.32862  0.88257  0.83937  1.0000
  H   H258      1.0  0.16237  0.63180  0.85191  1.0000
  H   H259      1.0  0.45723  0.52652  0.66629  1.0000
  H   H260      1.0  0.48702  0.55389  0.70388  1.0000
  H   H261      1.0  0.17372  0.85527  0.71665  1.0000
  C   C161      1.0  0.45036  0.00509  0.98430  1.0000
  H   H262      1.0  0.21722  0.88002  0.73208  1.0000
  H   H263      1.0  0.02816  0.83667  0.70582  1.0000
  H   H264      1.0  0.46657  0.72797  0.67406  1.0000
  H   H265      1.0  0.06180  0.64335  0.90560  1.0000
  H   H266      1.0  0.15669  0.91766  0.76534  1.0000
  H   H267      1.0  0.18483  0.99087  0.70561  1.0000
  H   H268      1.0  0.29050  0.98718  0.90217  1.0000
  C   C162      1.0  0.04106  0.83359  0.68473  1.0000
  H   H269      1.0  0.11658  0.89291  0.69482  1.0000
  H   H270      1.0  0.09783  0.93995  0.73877  1.0000
  H   H271      1.0  0.07179  0.56229  0.94008  1.0000
  H   H272      1.0  0.20879  0.94432  0.66946  1.0000
  N   N11       1.0  0.17650  0.92248  0.70741  1.0000
  H   H273      1.0  0.24413  0.99816  0.73945  1.0000
  C   C163      1.0  0.31662  0.96563  0.90918  1.0000
  H   H274      1.0  0.23729  0.90424  0.68798  1.0000
  H   H275      1.0  0.10561  0.98556  0.71620  1.0000
  C   C164      1.0  0.06662  0.59701  0.93818  1.0000
  H   H276      1.0  0.46845  0.93170  0.87880  1.0000
  H   H277      1.0  0.33996  0.98594  0.92058  1.0000
  H   H278      1.0  0.17476  0.52128  0.91129  1.0000
  C   C165      1.0  0.19056  0.96416  0.72049  1.0000
  H   H279      1.0  0.26036  0.96387  0.71121  1.0000
  H   H280      1.0  0.08164  0.61189  0.95696  1.0000
  H   H281      1.0  0.03178  0.60394  0.94033  1.0000
  S   S47       1.0  0.06817  0.51635  0.80289  1.0000
  S   S48       1.0  0.28504  0.00739  0.83245  1.0000
  C   C166      1.0  0.01384  0.57273  0.87679  1.0000
  H   H282      1.0  0.03045  0.51324  0.71093  1.0000
  H   H283      1.0  0.11892  0.51167  0.91489  1.0000
  C   C167      1.0  0.18806  0.88023  0.66072  1.0000
  Fe  Fe24      1.0  0.68161  0.29229  0.23158  1.0000
  S   S49       1.0  0.71084  0.29133  0.18791  1.0000
  S   S50       1.0  0.61297  0.31801  0.23319  1.0000
  Fe  Fe25      1.0  0.75908  0.24585  0.25630  1.0000
  S   S51       1.0  0.79228  0.24083  0.21459  1.0000
  S   S52       1.0  0.78761  0.22057  0.29689  1.0000
  Fe  Fe26      1.0  0.77286  0.30950  0.20866  1.0000
  S   S53       1.0  0.82744  0.35362  0.19467  1.0000
  Fe  Fe27      1.0  0.72747  0.22306  0.19746  1.0000
  S   S54       1.0  0.72238  0.17039  0.16431  1.0000
  S   S55       1.0  0.74266  0.31565  0.25175  1.0000
  S   S56       1.0  0.69529  0.22279  0.23972  1.0000
  C   C168      1.0  0.60959  0.23573  0.16704  1.0000
  H   H284      1.0  0.86244  0.46605  0.22829  1.0000
  C   C169      1.0  0.82583  0.39336  0.16832  1.0000
  C   C170      1.0  0.78729  0.40704  0.15653  1.0000
  C   C171      1.0  0.78739  0.44016  0.13661  1.0000
  C   C172      1.0  0.82589  0.46003  0.12837  1.0000
  C   C173      1.0  0.86458  0.44552  0.13953  1.0000
  C   C174      1.0  0.86446  0.41258  0.15958  1.0000
  H   H285      1.0  0.75736  0.39245  0.16300  1.0000
  H   H286      1.0  0.75732  0.45083  0.12785  1.0000
  H   H287      1.0  0.89451  0.45947  0.13265  1.0000
  H   H288      1.0  0.89447  0.40174  0.16832  1.0000
  C   C175      1.0  0.62110  0.06397  0.15616  1.0000
  C   C176      1.0  0.62129  0.09077  0.18002  1.0000
  C   C177      1.0  0.65181  0.12374  0.18277  1.0000
  C   C178      1.0  0.68261  0.13008  0.16169  1.0000
  C   C179      1.0  0.68294  0.10276  0.13811  1.0000
  C   C180      1.0  0.65230  0.06992  0.13530  1.0000
  H   H289      1.0  0.59732  0.08624  0.19629  1.0000
  H   H290      1.0  0.65132  0.14433  0.20111  1.0000
  H   H291      1.0  0.70686  0.10719  0.12179  1.0000
  H   H292      1.0  0.65251  0.04957  0.11683  1.0000
  C   C181      1.0  0.83684  0.19243  0.29833  1.0000
  C   C182      1.0  0.86067  0.18341  0.27403  1.0000
  C   C183      1.0  0.89826  0.15871  0.27556  1.0000
  C   C184      1.0  0.91336  0.14406  0.30154  1.0000
  C   C185      1.0  0.92496  0.28265  0.27729  1.0000
  C   C186      1.0  0.00169  0.22721  0.27991  1.0000
  H   H293      1.0  0.84999  0.19528  0.25403  1.0000
  H   H294      1.0  0.55248  0.24758  0.12364  1.0000
  H   H295      1.0  0.94384  0.42102  0.00446  1.0000
  H   H296      1.0  0.91601  0.15126  0.25652  1.0000
  C   C187      1.0  0.59926  0.33342  0.29030  1.0000
  C   C188      1.0  0.58180  0.33216  0.26331  1.0000
  H   H297      1.0  0.59954  0.22315  0.22167  1.0000
  H   H298      1.0  0.99429  0.24412  0.26007  1.0000
  H   H299      1.0  0.62264  0.22344  0.12144  1.0000
  H   H300      1.0  0.76165  0.03201  0.26832  1.0000
  C   C189      1.0  0.56414  0.22015  0.22120  1.0000
  H   H301      1.0  0.55184  0.23617  0.24058  1.0000
  H   H302      1.0  0.63264  0.32520  0.29326  1.0000
  C   C190      1.0  0.54400  0.24195  0.19538  1.0000
  H   H303      1.0  0.68138  0.12890  0.28737  1.0000
  H   H304      1.0  0.92412  0.25891  0.25985  1.0000
  C   C191      1.0  0.55130  0.18147  0.16309  1.0000
  H   H305      1.0  0.84401  0.08037  0.27381  1.0000
  C   C192      1.0  0.56388  0.16126  0.13465  1.0000
  H   H306      1.0  0.62441  0.27888  0.13199  1.0000
  H   H307      1.0  0.90325  0.48151  0.19101  1.0000
  H   H308      1.0  0.88093  0.48731  0.05693  1.0000
  C   C193      1.0  0.71333  0.09536  0.25312  1.0000
  N   N12       1.0  0.88362  0.44848  0.01881  1.0000
  H   H309      1.0  0.86504  0.41925  0.07637  1.0000
  H   H310      1.0  0.75685  0.14629  0.21905  1.0000
  H   H311      1.0  0.82542  0.45114  0.99392  1.0000
  H   H312      1.0  0.83055  0.37765  0.06440  1.0000
  H   H313      1.0  0.55492  0.18602  0.22264  1.0000
  C   C194      1.0  0.74648  0.06123  0.21213  1.0000
  N   N13       1.0  0.75579  0.08471  0.23932  1.0000
  H   H314      1.0  0.89109  0.29257  0.28097  1.0000
  H   H315      1.0  0.69288  0.11368  0.23835  1.0000
  H   H316      1.0  0.80557  0.03736  0.24461  1.0000
  H   H317      1.0  0.73181  0.08310  0.19659  1.0000
  H   H318      1.0  0.73183  0.15165  0.27886  1.0000
  H   H319      1.0  0.69516  0.06586  0.25831  1.0000
  H   H320      1.0  0.96477  0.49680  0.16273  1.0000
  H   H321      1.0  0.89480  0.38352  0.03335  1.0000
  C   C195      1.0  0.53019  0.35711  0.31004  1.0000
  H   H322      1.0  0.54777  0.27716  0.19831  1.0000
  H   H323      1.0  0.78632  0.14536  0.25016  1.0000
  C   C196      1.0  0.80995  0.07803  0.28070  1.0000
  H   H324      1.0  0.94318  0.31137  0.27080  1.0000
  N   N14       1.0  0.56156  0.22821  0.16704  1.0000
  H   H325      1.0  0.97389  0.46621  0.04673  1.0000
  H   H326      1.0  0.83718  0.15121  0.21315  1.0000
  H   H327      1.0  0.61789  0.26349  0.18079  1.0000
  S   S57       1.0  0.96104  0.11342  0.30190  1.0000
  H   H328      1.0  0.82350  0.48213  0.02512  1.0000
  C   C197      1.0  0.78243  0.05607  0.25776  1.0000
  S   S58       1.0  0.58035  0.02477  0.15291  1.0000
  C   C198      1.0  0.54062  0.25563  0.14507  1.0000
  H   H329      1.0  0.84607  0.39030  0.01567  1.0000
  H   H330      1.0  0.54844  0.17726  0.11667  1.0000
  C   C199      1.0  0.71475  0.12086  0.28086  1.0000
  C   C200      1.0  0.90461  0.47583  0.04097  1.0000
  C   C201      1.0  0.57363  0.34603  0.31347  1.0000
  C   C202      1.0  0.86802  0.40660  0.03069  1.0000
  H   H331      1.0  0.55293  0.12744  0.13431  1.0000
  C   C203      1.0  0.94313  0.45552  0.05629  1.0000
  C   C204      1.0  0.82033  0.12003  0.21440  1.0000
  H   H332      1.0  0.72845  0.10165  0.29810  1.0000
  H   H333      1.0  0.94248  0.46531  0.07878  1.0000
  H   H334      1.0  0.59915  0.16029  0.13179  1.0000
  H   H335      1.0  0.81353  0.11034  0.19238  1.0000
  H   H336      1.0  0.99533  0.32106  0.31678  1.0000
  H   H337      1.0  0.84260  0.09695  0.22411  1.0000
  H   H338      1.0  0.79873  0.10975  0.28784  1.0000
  H   H339      1.0  0.81600  0.43193  0.05808  1.0000
  C   C205      1.0  0.84356  0.40960  0.05895  1.0000
  H   H340      1.0  0.94296  0.42024  0.05620  1.0000
  C   C206      1.0  0.53832  0.34305  0.25988  1.0000
  H   H341      1.0  0.62675  0.20813  0.17625  1.0000
  H   H342      1.0  0.66686  0.24334  0.14096  1.0000
  C   C207      1.0  0.63150  0.24566  0.13856  1.0000
  H   H343      1.0  0.81041  0.05757  0.29968  1.0000
  C   C208      1.0  0.77847  0.12558  0.23158  1.0000
  H   H344      1.0  0.77666  0.04966  0.20200  1.0000
  S   S59       1.0  0.82376  0.50261  0.10407  1.0000
  H   H345      1.0  0.98189  0.19762  0.27969  1.0000
  H   H346      1.0  0.56762  0.16204  0.17922  1.0000
  H   H347      1.0  0.51645  0.17554  0.16642  1.0000
  H   H348      1.0  0.52452  0.34238  0.23909  1.0000
  N   N15       1.0  0.99035  0.25437  0.30522  1.0000
  C   C209      1.0  0.71685  0.02186  0.21422  1.0000
  H   H349      1.0  0.91704  0.50591  0.03164  1.0000
  H   H350      1.0  0.54943  0.28981  0.14855  1.0000
  H   H351      1.0  0.68284  0.03146  0.21744  1.0000
  C   C210      1.0  0.84527  0.47218  0.00759  1.0000
  C   C211      1.0  0.84117  0.49328  0.23382  1.0000
  H   H352      1.0  0.92430  0.23289  0.30813  1.0000
  C   C212      1.0  0.94258  0.26282  0.30449  1.0000
  C   C213      1.0  0.91628  0.43950  0.99604  1.0000
  H   H353      1.0  0.83489  0.50421  0.17815  1.0000
  H   H354      1.0  0.81074  0.49034  0.22202  1.0000
  H   H355      1.0  0.83271  0.48998  0.25643  1.0000
  H   H356      1.0  0.93263  0.28478  0.32186  1.0000
  H   H357      1.0  0.58143  0.35343  0.41362  1.0000
  H   H358      1.0  0.90152  0.14286  0.34614  1.0000
  H   H359      1.0  0.94895  0.10023  0.55096  1.0000
  C   C214      1.0  0.65081  0.46950  0.62996  1.0000
  C   C215      1.0  0.98959  0.02967  0.46011  1.0000
  H   H360      1.0  0.90889  0.14824  0.51488  1.0000
  H   H361      1.0  0.78509  0.03647  0.57432  1.0000
  H   H362      1.0  0.52027  0.43878  0.47518  1.0000
  H   H363      1.0  0.92092  0.05527  0.60527  1.0000
  H   H364      1.0  0.79125  0.09183  0.56604  1.0000
  H   H365      1.0  0.97407  0.06424  0.59310  1.0000
  H   H366      1.0  0.99393  0.28491  0.36056  1.0000
  H   H367      1.0  0.55762  0.48124  0.46667  1.0000
  H   H368      1.0  0.86935  0.11201  0.61192  1.0000
  C   C216      1.0  0.99896  0.22934  0.33158  1.0000
  H   H369      1.0  0.63982  0.36970  0.38192  1.0000
  C   C217      1.0  0.55452  0.44689  0.47186  1.0000
  H   H370      1.0  0.93410  0.04541  0.55186  1.0000
  H   H371      1.0  0.64678  0.40179  0.41273  1.0000
  S   S60       1.0  0.86948  0.01768  0.65113  1.0000
  C   C218      1.0  0.85175  0.05481  0.56781  1.0000
  H   H372      1.0  0.94278  0.03124  0.42715  1.0000
  Fe  Fe28      1.0  0.00774  0.10129  0.33772  1.0000
  C   C219      1.0  0.92662  0.07735  0.56119  1.0000
  C   C220      1.0  0.87407  0.08815  0.52414  1.0000
  C   C221      1.0  0.60588  0.40870  0.64205  1.0000
  H   H373      1.0  0.84255  0.14671  0.55471  1.0000
  H   H374      1.0  0.98285  0.19756  0.33048  1.0000
  H   H375      1.0  0.73492  0.09633  0.63331  1.0000
  H   H376      1.0  0.82156  0.13920  0.60043  1.0000
  C   C222      1.0  0.90541  0.11533  0.50647  1.0000
  C   C223      1.0  0.54126  0.46506  0.37819  1.0000
  H   H377      1.0  0.58838  0.45805  0.61258  1.0000
  N   N16       1.0  0.88046  0.08891  0.55563  1.0000
  H   H378      1.0  0.99938  0.23426  0.37727  1.0000
  H   H379      1.0  0.89749  0.15514  0.56283  1.0000
  H   H380      1.0  0.54580  0.49847  0.37107  1.0000
  H   H381      1.0  0.79682  0.05085  0.53904  1.0000
  H   H382      1.0  0.86187  0.02277  0.55988  1.0000
  H   H383      1.0  0.85460  0.05237  0.59090  1.0000
  C   C224      1.0  0.57947  0.38479  0.40287  1.0000
  H   H384      1.0  0.93734  0.09967  0.50460  1.0000
  H   H385      1.0  0.86936  0.16792  0.60653  1.0000
  C   C225      1.0  0.57675  0.41832  0.44953  1.0000
  N   N17       1.0  0.55596  0.41699  0.42101  1.0000
  H   H386      1.0  0.56159  0.37816  0.38318  1.0000
  C   C226      1.0  0.98433  0.25091  0.35930  1.0000
  C   C227      1.0  0.99709  0.01706  0.48802  1.0000
  H   H387      1.0  0.57072  0.44264  0.49238  1.0000
  H   H388      1.0  0.87622  0.05497  0.51577  1.0000
  H   H389      1.0  0.61020  0.43047  0.44792  1.0000
  C   C228      1.0  0.85700  0.13718  0.59803  1.0000
  C   C229      1.0  0.94072  0.07669  0.59212  1.0000
  C   C230      1.0  0.79334  0.06121  0.64075  1.0000
  C   C231      1.0  0.61262  0.44660  0.62682  1.0000
  C   C232      1.0  0.80356  0.05938  0.56127  1.0000
  H   H390      1.0  0.94135  0.10933  0.60132  1.0000
  C   C233      1.0  0.87000  0.13315  0.56660  1.0000
  H   H391      1.0  0.62697  0.42501  0.38057  1.0000
  H   H392      1.0  0.57984  0.38565  0.45838  1.0000
  H   H393      1.0  0.89303  0.11767  0.48469  1.0000
  H   H394      1.0  0.84130  0.09928  0.51864  1.0000
  C   C234      1.0  0.62583  0.39659  0.39431  1.0000
  H   H395      1.0  0.94905  0.24810  0.36219  1.0000
  H   H396      1.0  0.78620  0.03639  0.62559  1.0000
  H   H397      1.0  0.53872  0.48396  0.42131  1.0000
  H   H398      1.0  0.83369  0.18471  0.34330  1.0000
  C   C235      1.0  0.55803  0.46106  0.40851  1.0000
  C   C236      1.0  0.94920  0.02168  0.44850  1.0000
  C   C237      1.0  0.76428  0.09515  0.64528  1.0000
  C   C238      1.0  0.83130  0.05921  0.65617  1.0000
  H   H399      1.0  0.55874  0.44424  0.36305  1.0000
  H   H400      1.0  0.57612  0.39133  0.63963  1.0000
  H   H401      1.0  0.71252  0.47071  0.65014  1.0000
  H   H402      1.0  0.59133  0.47388  0.40904  1.0000
  H   H403      1.0  0.54212  0.47964  0.65162  1.0000
  C   C239      1.0  0.68268  0.45342  0.64779  1.0000
  H   H404      1.0  0.58764  0.34728  0.33417  1.0000
  C   C240      1.0  0.89029  0.15408  0.32603  1.0000
  H   H405      1.0  0.51642  0.33416  0.42953  1.0000
  C   C241      1.0  0.85192  0.17783  0.32436  1.0000
  N   N18       1.0  0.67059  0.08837  0.73205  1.0000
  Fe  Fe29      1.0  0.72821  0.22419  0.70204  1.0000
  S   S61       1.0  0.74711  0.22915  0.74774  1.0000
  C   C242      1.0  0.67896  0.12985  0.74736  1.0000
  Fe  Fe30      1.0  0.67546  0.30778  0.70458  1.0000
  S   S62       1.0  0.68979  0.31780  0.75038  1.0000
  C   C243      1.0  0.94473  0.39736  0.73526  1.0000
  Fe  Fe31      1.0  0.75781  0.29924  0.73908  1.0000
  S   S63       1.0  0.80841  0.34596  0.75586  1.0000
  Fe  Fe32      1.0  0.67785  0.24749  0.75577  1.0000
  S   S64       1.0  0.64209  0.22142  0.79421  1.0000
  S   S65       1.0  0.74381  0.29316  0.69248  1.0000
  S   S66       1.0  0.65856  0.23863  0.71099  1.0000
  C   C244      1.0  0.92943  0.32913  0.80977  1.0000
  C   C245      1.0  0.91186  0.29385  0.79542  1.0000
  C   C246      1.0  0.87387  0.29791  0.77968  1.0000
  C   C247      1.0  0.85315  0.33745  0.77806  1.0000
  C   C248      1.0  0.87028  0.37249  0.79292  1.0000
  C   C249      1.0  0.90794  0.36829  0.80891  1.0000
  H   H406      1.0  0.92794  0.26326  0.79621  1.0000
  H   H407      1.0  0.86112  0.27073  0.76831  1.0000
  H   H408      1.0  0.85429  0.40312  0.79195  1.0000
  H   H409      1.0  0.92035  0.39530  0.82058  1.0000
  C   C250      1.0  0.64972  0.05520  0.75051  1.0000
  H   H410      1.0  0.52215  0.42297  0.67820  1.0000
  H   H411      1.0  0.70056  0.04306  0.68083  1.0000
  H   H412      1.0  0.92657  0.41023  0.95505  1.0000
  H   H413      1.0  0.87630  0.40097  0.72745  1.0000
  C   C251      1.0  0.57519  0.18087  0.82096  1.0000
  C   C252      1.0  0.59124  0.19593  0.79514  1.0000
  C   C253      1.0  0.56659  0.19029  0.77096  1.0000
  H   H414      1.0  0.58139  0.11400  0.72537  1.0000
  H   H415      1.0  0.92435  0.45795  0.78951  1.0000
  H   H416      1.0  0.59404  0.18514  0.83979  1.0000
  H   H417      1.0  0.57823  0.20228  0.75106  1.0000
  C   C254      1.0  0.89970  0.41436  0.97034  1.0000
  S   S67       1.0  0.62608  0.34680  0.68038  1.0000
  H   H418      1.0  0.73301  0.06031  0.74084  1.0000
  C   C255      1.0  0.60436  0.12519  0.70930  1.0000
  H   H419      1.0  0.64056  0.02673  0.73778  1.0000
  H   H420      1.0  0.81718  0.14947  0.69655  1.0000
  H   H421      1.0  0.70062  0.40364  0.67685  1.0000
  C   C256      1.0  0.58731  0.50869  0.69362  1.0000
  C   C257      1.0  0.53487  0.16051  0.82267  1.0000
  H   H422      1.0  0.51588  0.27731  0.78441  1.0000
  H   H423      1.0  0.67299  0.04211  0.76590  1.0000
  C   C258      1.0  0.77261  0.12726  0.66539  1.0000
  H   H424      1.0  0.59927  0.47932  0.68288  1.0000
  H   H425      1.0  0.70805  0.15810  0.78453  1.0000
  H   H426      1.0  0.60908  0.05249  0.78802  1.0000
  C   C259      1.0  0.52066  0.47549  0.70997  1.0000
  H   H427      1.0  0.58695  0.12548  0.68901  1.0000
  H   H428      1.0  0.64907  0.14681  0.75329  1.0000
  C   C260      1.0  0.90382  0.42341  0.72930  1.0000
  H   H429      1.0  0.57953  0.05801  0.75601  1.0000
  H   H430      1.0  0.97969  0.40858  0.78627  1.0000
  H   H431      1.0  0.56667  0.42278  0.70237  1.0000
  H   H432      1.0  0.69583  0.15256  0.73314  1.0000
  C   C261      1.0  0.52540  0.50669  0.66212  1.0000
  C   C262      1.0  0.70561  0.12611  0.77445  1.0000
  C   C263      1.0  0.81043  0.12513  0.68093  1.0000
  H   H433      1.0  0.66452  0.11189  0.68958  1.0000
  H   H434      1.0  0.88854  0.38196  0.97616  1.0000
  H   H435      1.0  0.69015  0.10483  0.79003  1.0000
  C   C264      1.0  0.64429  0.09645  0.70607  1.0000
  H   H436      1.0  0.89541  0.44612  0.74629  1.0000
  H   H437      1.0  0.60638  0.10274  0.77211  1.0000
  H   H438      1.0  0.73329  0.09687  0.71270  1.0000
  C   C265      1.0  0.71380  0.07123  0.72263  1.0000
  C   C266      1.0  0.71319  0.03342  0.70159  1.0000
  S   S68       1.0  0.73364  0.16790  0.67105  1.0000
  N   N19       1.0  0.98531  0.42182  0.74183  1.0000
  S   S69       1.0  0.97842  0.32283  0.82818  1.0000
  C   C267      1.0  0.95490  0.47160  0.78151  1.0000
  H   H439      1.0  0.94954  0.37681  0.71624  1.0000
  H   H440      1.0  0.73899  0.11569  0.77007  1.0000
  C   C268      1.0  0.63744  0.39300  0.66029  1.0000
  C   C269      1.0  0.60898  0.06833  0.76720  1.0000
  C   C270      1.0  0.52660  0.16938  0.77259  1.0000
  H   H441      1.0  0.86885  0.08999  0.68836  1.0000
  H   H442      1.0  0.52290  0.14922  0.84268  1.0000
  C   C271      1.0  0.67606  0.41538  0.66292  1.0000
  H   H443      1.0  0.90605  0.44028  0.70892  1.0000
  H   H444      1.0  0.93671  0.37500  0.75257  1.0000
  H   H445      1.0  0.63298  0.06578  0.69674  1.0000
  C   C272      1.0  0.83961  0.09131  0.67627  1.0000
  C   C273      1.0  0.98624  0.43597  0.77220  1.0000
  H   H446      1.0  0.93089  0.46957  0.98829  1.0000
  H   H447      1.0  0.53237  0.47790  0.73195  1.0000
  H   H448      1.0  0.61334  0.15877  0.71365  1.0000
  H   H449      1.0  0.87385  0.43160  0.95926  1.0000
  H   H450      1.0  0.94791  0.49529  0.76512  1.0000
  H   H451      1.0  0.51952  0.25559  0.81863  1.0000
  H   H452      1.0  0.96264  0.48042  0.72227  1.0000
  H   H453      1.0  0.98693  0.50340  0.92044  1.0000
  H   H454      1.0  0.99377  0.32790  0.74285  1.0000
  H   H455      1.0  0.99199  0.44656  0.69969  1.0000
  C   C274      1.0  0.99062  0.45861  0.72179  1.0000
  H   H456      1.0  0.96977  0.49040  0.79880  1.0000
  H   H457      1.0  0.51471  0.40642  0.71365  1.0000
  C   C275      1.0  0.53192  0.42967  0.70012  1.0000
  H   H458      1.0  0.74674  0.02258  0.69777  1.0000
  H   H459      1.0  0.59858  0.50574  0.71566  1.0000
  C   C276      1.0  0.99246  0.50874  0.94258  1.0000
  H   H460      1.0  0.87467  0.50681  0.97167  1.0000
  Fe  Fe33      1.0  0.93590  0.62653  0.11056  1.0000
  S   S70       1.0  0.92453  0.66428  0.07085  1.0000
  S   S71       1.0  0.97746  0.64106  0.14920  1.0000
  Fe  Fe34      1.0  0.86884  0.55876  0.09590  1.0000
  S   S72       1.0  0.85394  0.59152  0.05547  1.0000
  Fe  Fe35      1.0  0.92484  0.59937  0.04931  1.0000
  H   H461      1.0  0.96256  0.55284  0.16911  1.0000
  Fe  Fe36      1.0  0.85375  0.65366  0.07945  1.0000
  S   S73       1.0  0.79368  0.69271  0.06824  1.0000
  S   S74       1.0  0.94025  0.56221  0.08845  1.0000
  S   S75       1.0  0.86485  0.62024  0.12040  1.0000
  H   H462      1.0  0.58350  0.74450  0.07862  1.0000
  S   S76       1.0  0.57560  0.87656  0.06675  1.0000
  Fe  Fe37      1.0  0.57842  0.97286  0.11893  1.0000
  S   S77       1.0  0.62610  0.96446  0.08391  1.0000
  H   H463      1.0  0.55733  0.67815  0.16291  1.0000
  Fe  Fe38      1.0  0.56903  0.94679  0.05707  1.0000
  S   S78       1.0  0.56988  0.97037  0.01150  1.0000
  Fe  Fe39      1.0  0.62880  0.89499  0.09606  1.0000
  S   S79       1.0  0.69453  0.86419  0.10413  1.0000
  C   C277      1.0  0.94245  0.52386  0.16677  1.0000
  S   S80       1.0  0.58429  0.90466  0.13300  1.0000
  C   C278      1.0  0.76585  0.73934  0.08002  1.0000
  C   C279      1.0  0.72510  0.74810  0.06878  1.0000
  C   C280      1.0  0.70229  0.78542  0.07640  1.0000
  C   C281      1.0  0.72017  0.81490  0.09522  1.0000
  C   C282      1.0  0.76070  0.80596  0.10670  1.0000
  C   C283      1.0  0.78335  0.76838  0.09928  1.0000
  H   H464      1.0  0.71135  0.72597  0.05376  1.0000
  H   H465      1.0  0.67157  0.79189  0.06697  1.0000
  H   H466      1.0  0.77498  0.82852  0.12120  1.0000
  H   H467      1.0  0.81469  0.76226  0.10802  1.0000
  H   H468      1.0  0.01175  0.81471  0.15990  1.0000
  H   H469      1.0  0.63474  0.82191  0.18988  1.0000
  H   H470      1.0  0.75676  0.93856  0.04275  1.0000
  N   N20       1.0  0.59475  0.76321  0.15120  1.0000
  H   H471      1.0  0.77045  0.82002  0.03670  1.0000
  H   H472      1.0  0.77593  0.87143  0.05227  1.0000
  C   C284      1.0  0.60150  0.73089  0.17411  1.0000
  C   C285      1.0  0.58884  0.73863  0.12404  1.0000
  H   H473      1.0  0.69955  0.85691  0.04255  1.0000
  H   H474      1.0  0.79031  0.86248  0.01550  1.0000
  Fe  Fe40      1.0  0.53041  0.89068  0.10312  1.0000
  H   H475      1.0  0.67391  0.77953  0.18512  1.0000
  C   C286      1.0  0.80342  0.56485  0.18282  1.0000
  C   C287      1.0  0.64127  0.87565  0.99341  1.0000
  N   N21       1.0  0.87964  0.54531  0.19997  1.0000
  H   H476      1.0  0.65834  0.94224  0.99443  1.0000
  C   C288      1.0  0.56313  0.70113  0.18031  1.0000
  C   C289      1.0  0.99794  0.79954  0.17892  1.0000
  H   H477      1.0  0.55162  0.78242  0.09748  1.0000
  H   H478      1.0  0.65951  0.77380  0.13531  1.0000
  C   C290      1.0  0.86323  0.53697  0.22930  1.0000
  C   C291      1.0  0.72182  0.93889  0.03813  1.0000
  N   N22       1.0  0.71125  0.90881  0.01416  1.0000
  C   C292      1.0  0.84470  0.53830  0.17867  1.0000
  H   H479      1.0  0.64539  0.91949  0.02748  1.0000
  H   H480      1.0  0.80940  0.59961  0.18107  1.0000
  H   H481      1.0  0.56556  0.84531  0.18416  1.0000
  H   H482      1.0  0.84036  0.56234  0.23621  1.0000
  H   H483      1.0  0.61662  0.71683  0.12010  1.0000
  C   C293      1.0  0.76713  0.85474  0.03247  1.0000
  H   H484      1.0  0.72905  0.00111  0.01673  1.0000
  H   H485      1.0  0.55420  0.81607  0.14017  1.0000
  H   H486      1.0  0.85639  0.54529  0.15712  1.0000
  C   C294      1.0  0.63426  0.79084  0.14780  1.0000
  H   H487      1.0  0.71727  0.00440  0.05340  1.0000
  H   H488      1.0  0.68163  0.83014  0.16894  1.0000
  H   H489      1.0  0.72693  0.99963  0.23095  1.0000
  H   H490      1.0  0.93860  0.51275  0.21139  1.0000
  S   S81       1.0  0.52062  0.95975  0.09154  1.0000
  H   H491      1.0  0.96144  0.58253  0.21371  1.0000
  H   H492      1.0  0.60900  0.78953  0.09444  1.0000
  H   H493      1.0  0.78712  0.55790  0.20305  1.0000
  H   H494      1.0  0.86860  0.61344  0.20418  1.0000
  C   C295      1.0  0.58307  0.76584  0.09738  1.0000
  H   H495      1.0  0.70565  0.92836  0.05787  1.0000
  C   C296      1.0  0.93287  0.60288  0.21740  1.0000
  H   H496      1.0  0.94285  0.63617  0.21267  1.0000
  H   H497      1.0  0.62672  0.82002  0.13562  1.0000
  H   H498      1.0  0.00427  0.81453  0.24136  1.0000
  C   C297      1.0  0.72035  0.86411  0.02409  1.0000
  H   H499      1.0  0.92371  0.60211  0.23995  1.0000
  C   C298      1.0  0.55532  0.79028  0.15600  1.0000
  H   H500      1.0  0.71793  0.00403  0.19393  1.0000
  H   H501      1.0  0.97619  0.77391  0.17118  1.0000
  H   H502      1.0  0.71159  0.83950  0.00832  1.0000
  C   C299      1.0  0.89479  0.59095  0.19829  1.0000
  H   H503      1.0  0.90361  0.59932  0.17631  1.0000
  C   C300      1.0  0.65680  0.80619  0.17478  1.0000
  H   H504      1.0  0.60970  0.74625  0.19442  1.0000
  C   C301      1.0  0.55043  0.81321  0.18465  1.0000
  H   H505      1.0  0.88998  0.53843  0.24465  1.0000
  H   H506      1.0  0.78060  0.55619  0.16583  1.0000
  H   H507      1.0  0.97797  0.82282  0.19083  1.0000
  H   H508      1.0  0.62978  0.71037  0.16893  1.0000
  H   H509      1.0  0.67520  0.99105  0.02982  1.0000
  H   H510      1.0  0.57052  0.68172  0.19914  1.0000
  H   H511      1.0  0.55993  0.71787  0.12503  1.0000
  C   C302      1.0  0.91578  0.51457  0.19354  1.0000
  C   C303      1.0  0.70992  0.98635  0.03381  1.0000
  H   H512      1.0  0.53333  0.71918  0.18518  1.0000
  H   H513      1.0  0.01091  0.52761  0.02251  1.0000
  C   C304      1.0  0.66405  0.91368  0.00775  1.0000
  H   H514      1.0  0.63732  0.84857  0.00815  1.0000
  S   S82       1.0  0.94657  0.58933  0.00348  1.0000
  C   C305      1.0  0.00522  0.52217  0.00037  1.0000
  H   H515      1.0  0.52524  0.77205  0.15190  1.0000
  H   H516      1.0  0.56284  0.79502  0.20263  1.0000
  H   H517      1.0  0.92238  0.52723  0.14784  1.0000
  H   H518      1.0  0.87058  0.53776  0.00386  1.0000
  H   H519      1.0  0.77276  0.92546  0.99506  1.0000
  C   C306      1.0  0.85499  0.51303  0.99075  1.0000
  H   H520      1.0  0.51566  0.81763  0.18926  1.0000
  C   C307      1.0  0.52627  0.99004  0.99121  1.0000
  Fe  Fe41      1.0  0.54718  0.58361  0.54603  1.0000
  H   H521      1.0  0.84217  0.70588  0.58618  1.0000
  H   H522      1.0  0.95839  0.79605  0.58337  1.0000
  Fe  Fe42      1.0  0.59767  0.65547  0.57705  1.0000
  S   S83       1.0  0.59230  0.62130  0.61816  1.0000
  S   S84       1.0  0.62377  0.72374  0.57119  1.0000
  Fe  Fe43      1.0  0.60773  0.56100  0.59414  1.0000
  H   H523      1.0  0.58008  0.81151  0.59936  1.0000
  S   S85       1.0  0.61772  0.59614  0.55336  1.0000
  H   H524      1.0  0.84651  0.71185  0.54897  1.0000
  Fe  Fe44      1.0  0.84099  0.87481  0.59793  1.0000
  S   S86       1.0  0.88477  0.89541  0.63337  1.0000
  S   S87       1.0  0.79889  0.81627  0.60866  1.0000
  Fe  Fe45      1.0  0.88397  0.93879  0.55714  1.0000
  S   S88       1.0  0.92975  0.96277  0.58969  1.0000
  S   S89       1.0  0.88187  0.96520  0.51236  1.0000
  Fe  Fe46      1.0  0.93839  0.89398  0.60170  1.0000
  H   H525      1.0  0.58303  0.71056  0.65281  1.0000
  Fe  Fe47      1.0  0.87257  0.96289  0.61903  1.0000
  C   C308      1.0  0.96500  0.99640  0.50403  1.0000
  S   S90       1.0  0.89595  0.86952  0.56688  1.0000
  S   S91       1.0  0.82536  0.94282  0.58577  1.0000
  H   H526      1.0  0.91465  0.64351  0.63564  1.0000
  Fe  Fe48      1.0  0.52372  0.60738  0.60681  1.0000
  S   S92       1.0  0.00577  0.86541  0.60493  1.0000
  H   H527      1.0  0.84151  0.75813  0.57065  1.0000
  C   C309      1.0  0.67360  0.74802  0.58091  1.0000
  C   C310      1.0  0.68350  0.78915  0.57086  1.0000
  C   C311      1.0  0.72189  0.81024  0.57857  1.0000
  C   C312      1.0  0.75075  0.79074  0.59689  1.0000
  C   C313      1.0  0.74079  0.74965  0.60700  1.0000
  C   C314      1.0  0.70271  0.72832  0.59897  1.0000
  H   H528      1.0  0.66134  0.80483  0.55690  1.0000
  H   H529      1.0  0.72884  0.84179  0.57062  1.0000
  H   H530      1.0  0.76265  0.73418  0.62124  1.0000
  H   H531      1.0  0.69567  0.69684  0.60702  1.0000
  H   H532      1.0  0.91356  0.75435  0.55466  1.0000
  S   S93       1.0  0.52749  0.64554  0.56704  1.0000
  C   C315      1.0  0.54763  0.71207  0.65568  1.0000
  H   H533      1.0  0.97166  0.98643  0.52528  1.0000
  S   S94       1.0  0.53881  0.54434  0.58542  1.0000
  H   H534      1.0  0.53256  0.76545  0.58052  1.0000
  H   H535      1.0  0.88192  0.65849  0.60685  1.0000
  H   H536      1.0  0.91902  0.69904  0.56142  1.0000
  C   C316      1.0  0.85626  0.72589  0.56946  1.0000
  C   C317      1.0  0.58018  0.80193  0.62176  1.0000
  H   H537      1.0  0.95918  0.70693  0.63202  1.0000
  H   H538      1.0  0.88834  0.79666  0.60417  1.0000
  C   C318      1.0  0.90119  0.67142  0.62441  1.0000
  C   C319      1.0  0.90573  0.72923  0.57043  1.0000
  C   C320      1.0  0.96653  0.76471  0.59294  1.0000
  H   H539      1.0  0.98375  0.77214  0.61278  1.0000
  N   N23       1.0  0.92611  0.73952  0.59853  1.0000
  C   C321      1.0  0.93843  0.69929  0.61370  1.0000
  H   H540      1.0  0.59756  0.77125  0.62373  1.0000
  H   H541      1.0  0.86567  0.75151  0.62057  1.0000
  H   H542      1.0  0.95823  0.67820  0.59987  1.0000
  H   H543      1.0  0.55035  0.71424  0.61080  1.0000
  H   H544      1.0  0.94039  0.80611  0.64227  1.0000
  C   C322      1.0  0.89674  0.76744  0.61608  1.0000
  C   C323      1.0  0.91686  0.00156  0.46468  1.0000
  H   H545      1.0  0.51906  0.83158  0.63066  1.0000
  C   C324      1.0  0.91412  0.78254  0.64476  1.0000
  H   H546      1.0  0.88033  0.68864  0.63968  1.0000
  H   H547      1.0  0.88570  0.99585  0.45551  1.0000
  H   H548      1.0  0.59910  0.82645  0.63325  1.0000
  C   C325      1.0  0.53438  0.79994  0.63434  1.0000
  C   C326      1.0  0.92454  0.98864  0.49250  1.0000
  S   S95       1.0  0.52754  0.56901  0.50046  1.0000
  C   C327      1.0  0.52549  0.72077  0.62721  1.0000
  C   C328      1.0  0.00017  0.74317  0.57352  1.0000
  H   H549      1.0  0.53496  0.53542  0.64996  1.0000
  H   H550      1.0  0.98702  0.73425  0.55271  1.0000
  S   S96       1.0  0.65985  0.51837  0.61227  1.0000
  H   H551      1.0  0.88793  0.79937  0.65632  1.0000
  H   H552      1.0  0.76706  0.89517  0.95095  1.0000
  H   H553      1.0  0.73426  0.85766  0.96779  1.0000
  H   H554      1.0  0.70961  0.90141  0.94916  1.0000
  H   H555      1.0  0.72909  0.95341  0.98168  1.0000
  H   H556      1.0  0.94591  0.55968  0.94630  1.0000
  C   C329      1.0  0.52269  0.55319  0.70357  1.0000
  C   C330      1.0  0.97534  0.54743  0.98633  1.0000
  H   H557      1.0  0.56697  0.00647  0.95607  1.0000
  H   H558      1.0  0.60376  0.54924  0.65747  1.0000
  H   H559      1.0  0.57222  0.56684  0.73570  1.0000
  C   C331      1.0  0.61171  0.54611  0.67997  1.0000
  H   H560      1.0  0.60595  0.57693  0.69094  1.0000
  H   H561      1.0  0.54005  0.73465  0.67289  1.0000
  H   H562      1.0  0.53796  0.79856  0.65740  1.0000
  H   H563      1.0  0.64674  0.53962  0.68091  1.0000
  H   H564      1.0  0.99072  0.54575  0.87751  1.0000
  H   H565      1.0  0.98691  0.86514  0.66551  1.0000
  H   H566      1.0  0.52435  0.59773  0.73871  1.0000
  C   C332      1.0  0.96904  0.54041  0.95737  1.0000
  H   H567      1.0  0.92459  0.75576  0.65814  1.0000
  C   C333      1.0  0.73655  0.89204  0.96299  1.0000
  C   C334      1.0  0.73848  0.92119  0.98921  1.0000
  C   C335      1.0  0.53687  0.56533  0.73360  1.0000
  H   H568      1.0  0.52326  0.54339  0.74951  1.0000
  N   N24       1.0  0.53902  0.51099  0.69236  1.0000
  H   H569      1.0  0.53217  0.57981  0.68942  1.0000
  H   H570      1.0  0.53802  0.67995  0.66323  1.0000
  H   H571      1.0  0.69495  0.00571  0.70972  1.0000
  H   H572      1.0  0.00363  0.59652  0.89284  1.0000
  H   H573      1.0  0.01126  0.58655  0.85545  1.0000
  C   C336      1.0  0.53440  0.00598  0.96405  1.0000
  H   H574      1.0  0.82424  0.52705  0.98358  1.0000
  H   H575      1.0  0.65759  0.86461  0.97402  1.0000
  H   H576      1.0  0.60838  0.88578  0.98746  1.0000
