data_image0
_chemical_formula_structural       SH2FeS2HSHSH2FeHFeC2HFe2S2FeS2FeSFeS3FeS2H2FeHS2FeS2FeS2FeSFeS3FeS2FeH2CS2C6H7CH3CH3CH6C6H4C6H4C6H4C6H2NH4CH4C2HNC5H6CHCNC2H3FeCNCHCSC2HCH4CHNC4HC3H8CH11C5HCH8CHCHCFeHCH2CH2CNC3HC2H12CH11C2H2C2H5CHFeCH4CNHSH6C2SH2CHCH2NC2HSH2C2HCHCHSH8C2H4C4H3CH8CH2CH2FeH2CH4CH3FeSH10CFeSHCH2CH7C6H7CH3C6H6CH2CHSNC7H7SH2CH2CHCSHN2CSH2SC2SH5C2H3C4HS2HSC2NC2NFeS2HNCH4SCH2FeS2HFeS2FeS2FeSFeS3HC6H4C5H3SHC6H6C3H2CH2C5H8C2H4CHC2H4CNC5H6CH6CHFeHCS2H3CH4SCFeCH3CHCHNC8H15CH4C3H4SHC2H5CH8CHCHSHSCH3Fe2H2SH2C2H2CHFeS2FeS2FeSFeS3FeS2CHCHS2C2H2CHC4HC6H4CH2CH3C6H4CHCH3C2H5CFeCFeHCH2CH9CHCH2SHCH2C3H3CH5FeCH3CH2CH2SN2C8H16CH2SH5CHC2H2C2NH2C3HCH2CHCH2SHSH3CNC2H2NCH3CHCHNHSH3SH5C2HCFeCFeH3CHFeS4FeSFeSHSFeS2FeS2FeSFeS3FeS2FeSFeSFeS3H2CFe2CHC6H4C6H7C6H4C6H4C6H4C6H4NC8H9SCH14C2HSHCH2NC8H19NC3H2C2H7CH9C3HNC8H20C3HSC2SH2CH7NH2C2HC2H4CFeH4C5SH3CH3CH4CHCH3SH2CH2CHSCH2NHC2H5NH2SCH2C2H7SCH6CHSHFeSH4SFeS2HCSHSCHS2FeS2FeS2FeSFeS3HC6H4C6H4C6H5CHSC3HFeCNC5H5FeHCH2SHC6H2FeC3FeCH2CHCH2CFeH2NCH5C3H8NC5HC2H17FeH5CH3NCH3CH3CHCHSHCH7CH2CHCH3C2H2CH3CH4SHSH2FeCFeS2FeS2FeSFeS3FeS2FeCFeHS2C6H6FeH4CHC2NH2C6H8C2HCHSH2FeHSCH3NC2HC4H5C2HCH3CH2C2HC2H2CHCHCHCH2SHCH2CHNHCSH4NC3HC2H3SH4CH3CH5C2H3CH5C2H7C5H2CH3CH4C2H2CH4SHC2H2C3H2NH2CH2C3H4CH5SHFeCSHFeS2FeS2FeSFeS3FeCSFeHSFeSCSH3CFeS2FeS2Fe2S3H2C2H4C2H3C6H4C2H2C2H4C6H4C6H4C6H4C6H2C2HCH2CFeHNC5H13CHCHC3H2CH3SHSCH3CHSHCH2SHC2HCSFeH5C2HNHCHCH3CH2CH2SHCH2CHCH3C3H3C2HSH2SH3N2H7C2FeH6NCHNSH3C2H3C3H2CH2SH15CHC2H6CH6CHCH6CH2CHC3H3NH2FeH3SC2HCSHFeS2FeS2FeSFeS3FeS2FeHFeS3FeS2FeS2FeSFeS3FeS2FeHFeHS2H2SHCHCH2C6H4CHNH3C2HC9H4C3H2C6H4C6H4C5H3Fe2C3SH2CH8C2H2CH2CHCH4NC5HC2H12C2H3CH2NH2C3H4SH2SH2CHCH3CH3CNC8H20NC2H2C2H4NC4H5CHC2H2CH2CH2C3H5C3HNHCH2CHCH8C2H6CH4CHC2S2H2SH2CH12S2H7CH4CH3C8H2CHC6HFeH4CH3CH2NHCH2NHCH3C2HCHCH3CHCNHCH5NCH2CH3C3HC3HFeH4CH7CH5CH2C2HCSC2H2
_chemical_formula_sum              "S224 H1344 Fe112 C784 N56"
_cell_length_a       50.8605
_cell_length_b       50.9047
_cell_length_c       65.7352
_cell_angle_alpha    87.6183
_cell_angle_beta     87.9974
_cell_angle_gamma    119.936

_space_group_name_H-M_alt    "P 1"
_space_group_IT_number       1

loop_
  _space_group_symop_operation_xyz
  'x, y, z'

loop_
  _atom_site_type_symbol
  _atom_site_label
  _atom_site_symmetry_multiplicity
  _atom_site_fract_x
  _atom_site_fract_y
  _atom_site_fract_z
  _atom_site_occupancy
  S   S1        1.0  0.45255  0.22288  0.27384  1.0000
  H   H1        1.0  0.48060  0.21631  0.22502  1.0000
  H   H2        1.0  0.12435  0.40676  0.29046  1.0000
  Fe  Fe1       1.0  0.43763  0.20142  0.30604  1.0000
  S   S2        1.0  0.20151  0.44833  0.28690  1.0000
  S   S3        1.0  0.47467  0.18954  0.30700  1.0000
  H   H3        1.0  0.22293  0.48539  0.23815  1.0000
  S   S4        1.0  0.38813  0.16715  0.31590  1.0000
  H   H4        1.0  0.14276  0.38639  0.29906  1.0000
  S   S5        1.0  0.26258  0.46011  0.30911  1.0000
  H   H5        1.0  0.05646  0.41464  0.30708  1.0000
  H   H6        1.0  0.07503  0.39451  0.29982  1.0000
  Fe  Fe2       1.0  0.25152  0.48192  0.28266  1.0000
  H   H7        1.0  0.10339  0.36965  0.30389  1.0000
  Fe  Fe3       1.0  0.21203  0.42994  0.31551  1.0000
  C   C1        1.0  0.12463  0.39176  0.30312  1.0000
  C   C2        1.0  0.06505  0.39979  0.31310  1.0000
  H   H8        1.0  0.41678  0.11367  0.31111  1.0000
  Fe  Fe4       1.0  0.20051  0.48234  0.30702  1.0000
  Fe  Fe5       1.0  0.12156  0.27317  0.42820  1.0000
  S   S6        1.0  0.08896  0.22924  0.41484  1.0000
  S   S7        1.0  0.13805  0.32183  0.41593  1.0000
  Fe  Fe6       1.0  0.12813  0.24140  0.46649  1.0000
  S   S8        1.0  0.09667  0.19538  0.45606  1.0000
  S   S9        1.0  0.15180  0.24378  0.49559  1.0000
  Fe  Fe7       1.0  0.12077  0.21337  0.42532  1.0000
  S   S10       1.0  0.12853  0.18003  0.40817  1.0000
  Fe  Fe8       1.0  0.06691  0.21404  0.44663  1.0000
  S   S11       1.0  0.01743  0.17997  0.45561  1.0000
  S   S12       1.0  0.15507  0.25832  0.43624  1.0000
  S   S13       1.0  0.09667  0.25910  0.45951  1.0000
  Fe  Fe9       1.0  0.13064  0.28653  0.60618  1.0000
  S   S14       1.0  0.12177  0.24118  0.61905  1.0000
  S   S15       1.0  0.12132  0.29519  0.57381  1.0000
  H   H9        1.0  0.01416  0.18202  0.56097  1.0000
  H   H10       1.0  0.41364  0.19114  0.35462  1.0000
  Fe  Fe10      1.0  0.16143  0.26787  0.63805  1.0000
  H   H11       1.0  0.06565  0.36529  0.35420  1.0000
  S   S16       1.0  0.10079  0.29086  0.63017  1.0000
  S   S17       1.0  0.17266  0.31332  0.62306  1.0000
  Fe  Fe11      1.0  0.24336  0.12710  0.43434  1.0000
  S   S18       1.0  0.28444  0.13075  0.44853  1.0000
  S   S19       1.0  0.24372  0.17176  0.43231  1.0000
  Fe  Fe12      1.0  0.21845  0.06021  0.42712  1.0000
  S   S20       1.0  0.25875  0.05976  0.43964  1.0000
  S   S21       1.0  0.17477  0.01860  0.41956  1.0000
  Fe  Fe13      1.0  0.25275  0.08545  0.46472  1.0000
  S   S22       1.0  0.25090  0.06820  0.49744  1.0000
  Fe  Fe14      1.0  0.28690  0.10530  0.42205  1.0000
  S   S23       1.0  0.33526  0.12578  0.40782  1.0000
  S   S24       1.0  0.21134  0.08409  0.45297  1.0000
  S   S25       1.0  0.24692  0.10349  0.40717  1.0000
  Fe  Fe15      1.0  0.26696  0.13564  0.60293  1.0000
  S   S26       1.0  0.22519  0.09712  0.61928  1.0000
  S   S27       1.0  0.26661  0.15196  0.57031  1.0000
  Fe  Fe16      1.0  0.25731  0.08607  0.63506  1.0000
  H   H12       1.0  0.39200  0.17459  0.39043  1.0000
  H   H13       1.0  0.23480  0.33018  0.47012  1.0000
  C   C3        1.0  0.31709  0.21322  0.39551  1.0000
  S   S28       1.0  0.29889  0.12255  0.61667  1.0000
  S   S29       1.0  0.27400  0.16863  0.62667  1.0000
  C   C4        1.0  0.25539  0.09182  0.51749  1.0000
  C   C5        1.0  0.25518  0.08128  0.53762  1.0000
  C   C6        1.0  0.25844  0.09943  0.55398  1.0000
  C   C7        1.0  0.26224  0.12839  0.55025  1.0000
  C   C8        1.0  0.26249  0.13898  0.53011  1.0000
  C   C9        1.0  0.25901  0.12074  0.51377  1.0000
  H   H14       1.0  0.25308  0.05925  0.54052  1.0000
  H   H15       1.0  0.25855  0.09124  0.56942  1.0000
  H   H16       1.0  0.26603  0.16159  0.52713  1.0000
  H   H17       1.0  0.25964  0.12919  0.49828  1.0000
  H   H18       1.0  0.32012  0.21185  0.33081  1.0000
  H   H19       1.0  0.14774  0.11818  0.50837  1.0000
  H   H20       1.0  0.38511  0.09336  0.32897  1.0000
  C   C10       1.0  0.22419  0.19551  0.65051  1.0000
  H   H21       1.0  0.14425  0.35978  0.47728  1.0000
  H   H22       1.0  0.24379  0.01018  0.56700  1.0000
  H   H23       1.0  0.98693  0.18003  0.59034  1.0000
  C   C11       1.0  0.15477  0.00783  0.60446  1.0000
  H   H24       1.0  0.20918  0.41495  0.42582  1.0000
  H   H25       1.0  0.21601  0.00639  0.46798  1.0000
  H   H26       1.0  0.04503  0.24157  0.53364  1.0000
  C   C12       1.0  0.03935  0.12278  0.43143  1.0000
  H   H27       1.0  0.23794  0.40893  0.43605  1.0000
  H   H28       1.0  0.24485  0.19451  0.65032  1.0000
  H   H29       1.0  0.02867  0.09771  0.43164  1.0000
  H   H30       1.0  0.09978  0.40797  0.36978  1.0000
  H   H31       1.0  0.20822  0.02720  0.56696  1.0000
  H   H32       1.0  0.01266  0.22635  0.43108  1.0000
  C   C13       1.0  0.16112  0.17809  0.41390  1.0000
  C   C14       1.0  0.18691  0.20349  0.42018  1.0000
  C   C15       1.0  0.21269  0.20159  0.42473  1.0000
  C   C16       1.0  0.21243  0.17398  0.42380  1.0000
  C   C17       1.0  0.18681  0.14861  0.41729  1.0000
  C   C18       1.0  0.16133  0.15080  0.41210  1.0000
  H   H33       1.0  0.18713  0.22473  0.42127  1.0000
  H   H34       1.0  0.23260  0.22140  0.42951  1.0000
  H   H35       1.0  0.18648  0.12726  0.41646  1.0000
  H   H36       1.0  0.14151  0.13114  0.40708  1.0000
  C   C19       1.0  0.14180  0.25648  0.51758  1.0000
  C   C20       1.0  0.15353  0.25453  0.53627  1.0000
  C   C21       1.0  0.14682  0.26559  0.55383  1.0000
  C   C22       1.0  0.12880  0.27917  0.55266  1.0000
  C   C23       1.0  0.11686  0.28082  0.53402  1.0000
  C   C24       1.0  0.12305  0.26922  0.51661  1.0000
  H   H37       1.0  0.16810  0.24475  0.53711  1.0000
  H   H38       1.0  0.15618  0.26439  0.56814  1.0000
  H   H39       1.0  0.10299  0.29139  0.53301  1.0000
  H   H40       1.0  0.11374  0.27062  0.50236  1.0000
  C   C25       1.0  0.17585  0.36384  0.35053  1.0000
  C   C26       1.0  0.16323  0.33241  0.35498  1.0000
  C   C27       1.0  0.15191  0.31920  0.37494  1.0000
  C   C28       1.0  0.15277  0.33729  0.39064  1.0000
  C   C29       1.0  0.16525  0.36869  0.38618  1.0000
  C   C30       1.0  0.17693  0.38194  0.36630  1.0000
  H   H41       1.0  0.16221  0.31820  0.34290  1.0000
  H   H42       1.0  0.14233  0.29501  0.37811  1.0000
  H   H43       1.0  0.16593  0.38290  0.39817  1.0000
  H   H44       1.0  0.18665  0.40613  0.36318  1.0000
  C   C31       1.0  0.34777  0.14028  0.38223  1.0000
  C   C32       1.0  0.32965  0.12682  0.36600  1.0000
  C   C33       1.0  0.34211  0.13593  0.34573  1.0000
  C   C34       1.0  0.37260  0.15879  0.34148  1.0000
  C   C35       1.0  0.39023  0.17331  0.35768  1.0000
  C   C36       1.0  0.37789  0.16395  0.37795  1.0000
  H   H45       1.0  0.30651  0.10839  0.36907  1.0000
  H   H46       1.0  0.15596  0.01758  0.61946  1.0000
  N   N1        1.0  0.10536  0.40209  0.33759  1.0000
  H   H47       1.0  0.43167  0.08519  0.38392  1.0000
  H   H48       1.0  0.02484  0.20329  0.52660  1.0000
  H   H49       1.0  0.26402  0.20681  0.47779  1.0000
  H   H50       1.0  0.26795  0.16516  0.39110  1.0000
  C   C37       1.0  0.11810  0.41638  0.35730  1.0000
  H   H51       1.0  0.33266  0.20187  0.42319  1.0000
  H   H52       1.0  0.16860  0.36748  0.44354  1.0000
  H   H53       1.0  0.22528  0.15481  0.47929  1.0000
  H   H54       1.0  0.16833  0.31498  0.48197  1.0000
  C   C38       1.0  0.20826  0.34091  0.44876  1.0000
  C   C39       1.0  0.43891  0.14169  0.37752  1.0000
  H   H55       1.0  0.05978  0.26692  0.56539  1.0000
  N   N2        1.0  0.30678  0.20331  0.37447  1.0000
  C   C40       1.0  0.33404  0.20725  0.36186  1.0000
  C   C41       1.0  0.28165  0.17047  0.37635  1.0000
  C   C42       1.0  0.98687  0.18028  0.44403  1.0000
  C   C43       1.0  0.13178  0.40800  0.32321  1.0000
  C   C44       1.0  0.18987  0.99269  0.54469  1.0000
  H   H56       1.0  0.35327  0.23105  0.36200  1.0000
  H   H57       1.0  0.34249  0.19261  0.36843  1.0000
  H   H58       1.0  0.29139  0.15512  0.37680  1.0000
  H   H59       1.0  0.37932  0.11193  0.36506  1.0000
  H   H60       1.0  0.22014  0.00023  0.41447  1.0000
  H   H61       1.0  0.31648  0.24780  0.36262  1.0000
  C   C45       1.0  0.32948  0.19954  0.33940  1.0000
  H   H62       1.0  0.04496  0.37879  0.32003  1.0000
  C   C46       1.0  0.42764  0.12646  0.34209  1.0000
  N   N3        1.0  0.42344  0.11513  0.36421  1.0000
  C   C47       1.0  0.25823  0.15969  0.35982  1.0000
  C   C48       1.0  0.03620  0.25482  0.57254  1.0000
  H   H63       1.0  0.99313  0.13643  0.41914  1.0000
  H   H64       1.0  0.12623  0.12077  0.48166  1.0000
  H   H65       1.0  0.25412  0.20434  0.38542  1.0000
  Fe  Fe17      1.0  0.30252  0.15221  0.64213  1.0000
  C   C49       1.0  0.18740  0.00481  0.56542  1.0000
  N   N4        1.0  0.19640  0.35628  0.46248  1.0000
  C   C50       1.0  0.98931  0.15835  0.39143  1.0000
  H   H66       1.0  0.26121  0.23643  0.36887  1.0000
  C   C51       1.0  0.22049  0.00524  0.64513  1.0000
  S   S30       1.0  0.20175  0.26062  0.64101  1.0000
  C   C52       1.0  0.13450  0.45146  0.35665  1.0000
  C   C53       1.0  0.02985  0.20707  0.55932  1.0000
  H   H67       1.0  0.24119  0.21873  0.49137  1.0000
  C   C54       1.0  0.19867  0.22510  0.64717  1.0000
  H   H68       1.0  0.37780  0.07676  0.36226  1.0000
  H   H69       1.0  0.05259  0.27706  0.60125  1.0000
  H   H70       1.0  0.12552  0.32304  0.49023  1.0000
  H   H71       1.0  0.42164  0.07249  0.35923  1.0000
  C   C55       1.0  0.19123  0.37897  0.45019  1.0000
  H   H72       1.0  0.14666  0.15434  0.52739  1.0000
  N   N5        1.0  0.21297  0.19620  0.58221  1.0000
  C   C56       1.0  0.19750  0.16207  0.58151  1.0000
  C   C57       1.0  0.21986  0.20954  0.56046  1.0000
  C   C58       1.0  0.19095  0.20345  0.59318  1.0000
  C   C59       1.0  0.24131  0.20652  0.59367  1.0000
  H   H73       1.0  0.04830  0.13329  0.36917  1.0000
  C   C60       1.0  0.24217  0.20382  0.54747  1.0000
  C   C61       1.0  0.19538  0.23549  0.58892  1.0000
  C   C62       1.0  0.26290  0.24101  0.59431  1.0000
  H   H74       1.0  0.17747  0.15358  0.57201  1.0000
  H   H75       1.0  0.21290  0.15514  0.57421  1.0000
  H   H76       1.0  0.22951  0.23449  0.55958  1.0000
  H   H77       1.0  0.19839  0.20068  0.55244  1.0000
  H   H78       1.0  0.16712  0.18750  0.58943  1.0000
  H   H79       1.0  0.19114  0.19998  0.60995  1.0000
  H   H80       1.0  0.23522  0.19774  0.60986  1.0000
  H   H81       1.0  0.25486  0.19618  0.58830  1.0000
  C   C63       1.0  0.98865  0.23737  0.63919  1.0000
  H   H82       1.0  0.16928  0.01080  0.56399  1.0000
  H   H83       1.0  0.44476  0.13458  0.39213  1.0000
  H   H84       1.0  0.23212  0.17961  0.54416  1.0000
  H   H85       1.0  0.24776  0.21709  0.53255  1.0000
  H   H86       1.0  0.26400  0.21143  0.55469  1.0000
  H   H87       1.0  0.21848  0.25387  0.59165  1.0000
  H   H88       1.0  0.17946  0.23821  0.59946  1.0000
  H   H89       1.0  0.18962  0.23866  0.57322  1.0000
  H   H90       1.0  0.25590  0.25016  0.60714  1.0000
  H   H91       1.0  0.26517  0.25424  0.57997  1.0000
  H   H92       1.0  0.28623  0.24529  0.59659  1.0000
  C   C64       1.0  0.17619  0.10219  0.49607  1.0000
  C   C65       1.0  0.18175  0.18059  0.50253  1.0000
  C   C66       1.0  0.21643  0.31866  0.45958  1.0000
  C   C67       1.0  0.33011  0.19567  0.40708  1.0000
  C   C68       1.0  0.23769  0.00050  0.58303  1.0000
  H   H93       1.0  0.13364  0.12629  0.45509  1.0000
  C   C69       1.0  0.25023  0.39523  0.47301  1.0000
  H   H94       1.0  0.20030  0.10792  0.49474  1.0000
  H   H95       1.0  0.41517  0.08377  0.32731  1.0000
  H   H96       1.0  0.98403  0.14755  0.37679  1.0000
  H   H97       1.0  0.15081  0.31881  0.45999  1.0000
  H   H98       1.0  0.18436  0.17545  0.46224  1.0000
  H   H99       1.0  0.22906  0.35742  0.43943  1.0000
  H   H100      1.0  0.16613  0.09616  0.48108  1.0000
  H   H101      1.0  0.26477  0.39671  0.48565  1.0000
  C   C70       1.0  0.22030  0.16896  0.48949  1.0000
  H   H102      1.0  0.19842  0.19080  0.51440  1.0000
  C   C71       1.0  0.04210  0.18946  0.60017  1.0000
  H   H103      1.0  0.10902  0.35891  0.36615  1.0000
  C   C72       1.0  0.21696  0.37126  0.47941  1.0000
  Fe  Fe18      1.0  0.09413  0.24711  0.64405  1.0000
  H   H104      1.0  0.19144  0.32834  0.43734  1.0000
  C   C73       1.0  0.38042  0.08921  0.39310  1.0000
  H   H105      1.0  0.22938  0.16736  0.50439  1.0000
  H   H106      1.0  0.20816  0.38331  0.48873  1.0000
  C   C74       1.0  0.03531  0.27341  0.59021  1.0000
  H   H107      1.0  0.19653  0.29902  0.46784  1.0000
  H   H108      1.0  0.25982  0.38935  0.45980  1.0000
  C   C75       1.0  0.13995  0.13836  0.46938  1.0000
  N   N6        1.0  0.02324  0.13360  0.39638  1.0000
  C   C76       1.0  0.04871  0.13767  0.40949  1.0000
  C   C77       1.0  0.03734  0.14599  0.37507  1.0000
  C   C78       1.0  0.18638  0.14353  0.60231  1.0000
  H   H109      1.0  0.17009  0.14782  0.61116  1.0000
  C   C79       1.0  0.04748  0.22131  0.59339  1.0000
  C   C80       1.0  0.06157  0.18005  0.37284  1.0000
  H   H110      1.0  0.16402  0.08141  0.50656  1.0000
  H   H111      1.0  0.17437  0.11892  0.59970  1.0000
  H   H112      1.0  0.13473  0.40986  0.36270  1.0000
  H   H113      1.0  0.06468  0.16217  0.41121  1.0000
  H   H114      1.0  0.31472  0.17076  0.40745  1.0000
  H   H115      1.0  0.04111  0.29639  0.58390  1.0000
  H   H116      1.0  0.00078  0.18340  0.38832  1.0000
  H   H117      1.0  0.42331  0.15011  0.38204  1.0000
  H   H118      1.0  0.24292  0.16926  0.36126  1.0000
  H   H119      1.0  0.02564  0.17170  0.41140  1.0000
  H   H120      1.0  0.98971  0.25895  0.63616  1.0000
  H   H121      1.0  0.35198  0.20635  0.33166  1.0000
  C   C81       1.0  0.02546  0.21867  0.53833  1.0000
  H   H122      1.0  0.08284  0.18455  0.37986  1.0000
  H   H123      1.0  0.06779  0.18735  0.35638  1.0000
  H   H124      1.0  0.05316  0.19444  0.37932  1.0000
  H   H125      1.0  0.13305  0.15594  0.46867  1.0000
  H   H126      1.0  0.35521  0.07751  0.39523  1.0000
  H   H127      1.0  0.10439  0.43995  0.32191  1.0000
  H   H128      1.0  0.03659  0.25783  0.64351  1.0000
  H   H129      1.0  0.46173  0.18312  0.35682  1.0000
  H   H130      1.0  0.15840  0.02571  0.59265  1.0000
  H   H131      1.0  0.29789  0.21058  0.40571  1.0000
  H   H132      1.0  0.06016  0.19207  0.61029  1.0000
  C   C82       1.0  0.29669  0.22432  0.36544  1.0000
  C   C83       1.0  0.15046  0.16961  0.51370  1.0000
  H   H133      1.0  0.13138  0.15854  0.50373  1.0000
  H   H134      1.0  0.14985  0.18966  0.51923  1.0000
  C   C84       1.0  0.17245  0.12779  0.50498  1.0000
  C   C85       1.0  0.22544  0.22358  0.64746  1.0000
  H   H135      1.0  0.21679  0.35422  0.49070  1.0000
  H   H136      1.0  0.07500  0.42008  0.34154  1.0000
  H   H137      1.0  0.32827  0.12461  0.33328  1.0000
  H   H138      1.0  0.06267  0.12891  0.40214  1.0000
  H   H139      1.0  0.33457  0.23784  0.39482  1.0000
  C   C86       1.0  0.24034  0.20212  0.48063  1.0000
  H   H140      1.0  0.20564  0.14765  0.61165  1.0000
  Fe  Fe19      1.0  0.23423  0.12938  0.64399  1.0000
  C   C87       1.0  0.16598  0.33185  0.47206  1.0000
  H   H141      1.0  0.00421  0.21951  0.53792  1.0000
  H   H142      1.0  0.02204  0.25701  0.56089  1.0000
  H   H143      1.0  0.02419  0.12907  0.43975  1.0000
  H   H144      1.0  0.18231  0.13179  0.52021  1.0000
  C   C88       1.0  0.08405  0.36864  0.34284  1.0000
  N   N7        1.0  0.02645  0.22197  0.57796  1.0000
  H   H145      1.0  0.04572  0.23142  0.60765  1.0000
  S   S31       1.0  0.25331  0.03958  0.63635  1.0000
  H   H146      1.0  0.02028  0.14264  0.36398  1.0000
  H   H147      1.0  0.18613  0.19985  0.49153  1.0000
  H   H148      1.0  0.11830  0.46000  0.35567  1.0000
  H   H149      1.0  0.38911  0.10913  0.40251  1.0000
  H   H150      1.0  0.15965  0.35182  0.49975  1.0000
  H   H151      1.0  0.22500  0.30914  0.44788  1.0000
  C   C89       1.0  0.21403  0.39722  0.43193  1.0000
  C   C90       1.0  0.27219  0.22670  0.37852  1.0000
  S   S32       1.0  0.18853  0.37922  0.32497  1.0000
  H   H152      1.0  0.21118  0.38242  0.41924  1.0000
  H   H153      1.0  0.23297  0.20630  0.46582  1.0000
  C   C91       1.0  0.00112  0.09996  0.39632  1.0000
  H   H154      1.0  0.19054  0.39580  0.46016  1.0000
  C   C92       1.0  0.01532  0.23678  0.64323  1.0000
  H   H155      1.0  0.25262  0.41794  0.46974  1.0000
  H   H156      1.0  0.28768  0.21766  0.35023  1.0000
  N   N8        1.0  0.18646  0.15728  0.49197  1.0000
  C   C93       1.0  0.17459  0.15311  0.47095  1.0000
  C   C94       1.0  0.14828  0.34279  0.48551  1.0000
  H   H157      1.0  0.18263  0.14039  0.46165  1.0000
  S   S33       1.0  0.20729  0.46178  0.33572  1.0000
  H   H158      1.0  0.15194  0.46238  0.34387  1.0000
  H   H159      1.0  0.02029  0.17580  0.60941  1.0000
  C   C95       1.0  0.43498  0.09327  0.36756  1.0000
  C   C96       1.0  0.38972  0.09826  0.37012  1.0000
  H   H160      1.0  0.38732  0.07307  0.39916  1.0000
  C   C97       1.0  0.09893  0.35086  0.35141  1.0000
  H   H161      1.0  0.05318  0.21016  0.55763  1.0000
  C   C98       1.0  0.40999  0.10248  0.32680  1.0000
  H   H162      1.0  0.14577  0.43261  0.31860  1.0000
  S   S34       1.0  0.46409  0.24540  0.32069  1.0000
  H   H163      1.0  0.35304  0.20167  0.40067  1.0000
  H   H164      1.0  0.06014  0.13087  0.44004  1.0000
  H   H165      1.0  0.99087  0.09020  0.41196  1.0000
  H   H166      1.0  0.11635  0.35170  0.34034  1.0000
  H   H167      1.0  0.26863  0.16484  0.34409  1.0000
  H   H168      1.0  0.24350  0.13460  0.36201  1.0000
  H   H169      1.0  0.31547  0.17468  0.33814  1.0000
  H   H170      1.0  0.47478  0.11296  0.34519  1.0000
  C   C99       1.0  0.46772  0.17048  0.36817  1.0000
  C   C100      1.0  0.00822  0.14995  0.40550  1.0000
  H   H171      1.0  0.28252  0.24220  0.39093  1.0000
  H   H172      1.0  0.07164  0.23537  0.58740  1.0000
  H   H173      1.0  0.04313  0.17670  0.58721  1.0000
  H   H174      1.0  0.20171  0.02035  0.60385  1.0000
  C   C101      1.0  0.01414  0.20908  0.64755  1.0000
  C   C102      1.0  0.99049  0.20605  0.43300  1.0000
  C   C103      1.0  0.46885  0.10549  0.36160  1.0000
  C   C104      1.0  0.99444  0.20455  0.58757  1.0000
  H   H175      1.0  0.47896  0.18613  0.38036  1.0000
  H   H176      1.0  0.43454  0.14384  0.64360  1.0000
  H   H177      1.0  0.08130  0.32655  0.35436  1.0000
  C   C105      1.0  0.08823  0.41677  0.32903  1.0000
  H   H178      1.0  0.14629  0.45930  0.37096  1.0000
  H   H179      1.0  0.47405  0.08694  0.36444  1.0000
  H   H180      1.0  0.01245  0.26313  0.59816  1.0000
  H   H181      1.0  0.42073  0.14397  0.34035  1.0000
  H   H182      1.0  0.01323  0.08787  0.39137  1.0000
  H   H183      1.0  0.99347  0.21254  0.60287  1.0000
  H   H184      1.0  0.25302  0.99154  0.58674  1.0000
  H   H185      1.0  0.20636  0.01188  0.53399  1.0000
  C   C106      1.0  0.17054  0.19837  0.65067  1.0000
  H   H186      1.0  0.31621  0.22799  0.64915  1.0000
  H   H187      1.0  0.07186  0.35659  0.32956  1.0000
  C   C107      1.0  0.98611  0.18196  0.64746  1.0000
  H   H188      1.0  0.45186  0.13807  0.33650  1.0000
  H   H189      1.0  0.24264  0.01888  0.59335  1.0000
  Fe  Fe20      1.0  0.14211  0.31381  0.64844  1.0000
  H   H190      1.0  0.14797  0.40290  0.33097  1.0000
  H   H191      1.0  0.24725  0.24420  0.64493  1.0000
  C   C108      1.0  0.17968  0.99904  0.60266  1.0000
  H   H192      1.0  0.23294  0.98933  0.48269  1.0000
  H   H193      1.0  0.13157  0.98797  0.60415  1.0000
  H   H194      1.0  0.14977  0.19933  0.65057  1.0000
  H   H195      1.0  0.98496  0.16043  0.65092  1.0000
  C   C109      1.0  0.26599  0.20464  0.69999  1.0000
  H   H196      1.0  0.31198  0.19984  0.67853  1.0000
  H   H197      1.0  0.28921  0.23432  0.66194  1.0000
  H   H198      1.0  0.34371  0.24268  0.73420  1.0000
  Fe  Fe21      1.0  0.45694  0.23334  0.74400  1.0000
  S   S35       1.0  0.40758  0.20053  0.73750  1.0000
  H   H199      1.0  0.06636  0.35014  0.70145  1.0000
  H   H200      1.0  0.43234  0.16072  0.73184  1.0000
  H   H201      1.0  0.13582  0.30013  0.72327  1.0000
  H   H202      1.0  0.09801  0.28108  0.73495  1.0000
  H   H203      1.0  0.07787  0.35814  0.67496  1.0000
  H   H204      1.0  0.05742  0.32799  0.74368  1.0000
  H   H205      1.0  0.00833  0.24412  0.70952  1.0000
  H   H206      1.0  0.26101  0.17025  0.67869  1.0000
  H   H207      1.0  0.01390  0.25566  0.68253  1.0000
  H   H208      1.0  0.29147  0.19913  0.73180  1.0000
  C   C110      1.0  0.05487  0.29472  0.72280  1.0000
  Fe  Fe22      1.0  0.22609  0.46630  0.75143  1.0000
  S   S36       1.0  0.20780  0.41672  0.74442  1.0000
  H   H209      1.0  0.25843  0.21580  0.68866  1.0000
  C   C111      1.0  0.30746  0.20553  0.71805  1.0000
  H   H210      1.0  0.10421  0.35887  0.69217  1.0000
  H   H211      1.0  0.35783  0.23052  0.71310  1.0000
  C   C112      1.0  0.31689  0.22296  0.68207  1.0000
  H   H212      1.0  0.41505  0.13364  0.70047  1.0000
  H   H213      1.0  0.30466  0.18380  0.71278  1.0000
  H   H214      1.0  0.08304  0.31495  0.74871  1.0000
  H   H215      1.0  0.25612  0.15715  0.70543  1.0000
  H   H216      1.0  0.34182  0.23527  0.68372  1.0000
  H   H217      1.0  0.41955  0.12138  0.73601  1.0000
  H   H218      1.0  0.45937  0.14774  0.73473  1.0000
  C   C113      1.0  0.16849  0.37468  0.68403  1.0000
  C   C114      1.0  0.17158  0.40279  0.68863  1.0000
  C   C115      1.0  0.18442  0.41637  0.70671  1.0000
  C   C116      1.0  0.19386  0.40171  0.72063  1.0000
  C   C117      1.0  0.19091  0.37363  0.71599  1.0000
  C   C118      1.0  0.17871  0.36037  0.69766  1.0000
  H   H219      1.0  0.16378  0.41407  0.67821  1.0000
  H   H220      1.0  0.18643  0.43790  0.71008  1.0000
  H   H221      1.0  0.19818  0.36212  0.72664  1.0000
  H   H222      1.0  0.17665  0.33884  0.69429  1.0000
  H   H223      1.0  0.41163  0.13162  0.66696  1.0000
  H   H224      1.0  0.25421  0.20414  0.71476  1.0000
  H   H225      1.0  0.30589  0.25320  0.72486  1.0000
  C   C119      1.0  0.31007  0.25373  0.70804  1.0000
  H   H226      1.0  0.27023  0.25961  0.70451  1.0000
  H   H227      1.0  0.29612  0.27250  0.68200  1.0000
  H   H228      1.0  0.03309  0.29404  0.71986  1.0000
  C   C120      1.0  0.39182  0.19731  0.71346  1.0000
  C   C121      1.0  0.36351  0.17174  0.71038  1.0000
  C   C122      1.0  0.35007  0.16855  0.69155  1.0000
  C   C123      1.0  0.36492  0.19092  0.67557  1.0000
  C   C124      1.0  0.39317  0.21652  0.67869  1.0000
  C   C125      1.0  0.40649  0.21981  0.69755  1.0000
  H   H229      1.0  0.35189  0.15431  0.72265  1.0000
  H   H230      1.0  0.32829  0.14876  0.68938  1.0000
  H   H231      1.0  0.40472  0.23406  0.66648  1.0000
  H   H232      1.0  0.42798  0.23985  0.69982  1.0000
  H   H233      1.0  0.22736  0.16129  0.69365  1.0000
  H   H234      1.0  0.34323  0.20748  0.73635  1.0000
  C   C126      1.0  0.02071  0.24540  0.69496  1.0000
  H   H235      1.0  0.46266  0.13562  0.66976  1.0000
  H   H236      1.0  0.04859  0.27387  0.73272  1.0000
  C   C127      1.0  0.25239  0.17152  0.69412  1.0000
  H   H237      1.0  0.33506  0.26875  0.70478  1.0000
  S   S37       1.0  0.26295  0.11499  0.66150  1.0000
  N   N9        1.0  0.07039  0.29406  0.70297  1.0000
  C   C128      1.0  0.05552  0.26174  0.69665  1.0000
  C   C129      1.0  0.10371  0.30487  0.70463  1.0000
  C   C130      1.0  0.06706  0.31291  0.68601  1.0000
  C   C131      1.0  0.31245  0.23819  0.66280  1.0000
  C   C132      1.0  0.33994  0.22292  0.72562  1.0000
  C   C133      1.0  0.11138  0.28653  0.72019  1.0000
  C   C134      1.0  0.07978  0.34684  0.68921  1.0000
  H   H238      1.0  0.43933  0.11819  0.70261  1.0000
  H   H239      1.0  0.06603  0.26069  0.68173  1.0000
  H   H240      1.0  0.05913  0.24693  0.70774  1.0000
  H   H241      1.0  0.11656  0.32883  0.70848  1.0000
  H   H242      1.0  0.11427  0.30473  0.68956  1.0000
  H   H243      1.0  0.07811  0.31158  0.67141  1.0000
  H   H244      1.0  0.04281  0.30412  0.68311  1.0000
  S   S38       1.0  0.47149  0.26273  0.77102  1.0000
  H   H245      1.0  0.10814  0.26527  0.71389  1.0000
  H   H246      1.0  0.09137  0.34277  0.72788  1.0000
  C   C135      1.0  0.43779  0.14289  0.72812  1.0000
  H   H247      1.0  0.32899  0.26298  0.66148  1.0000
  H   H248      1.0  0.26867  0.46590  0.87806  1.0000
  C   C136      1.0  0.07323  0.32177  0.73610  1.0000
  H   H249      1.0  0.30578  0.29400  0.70389  1.0000
  C   C137      1.0  0.29446  0.27047  0.69884  1.0000
  S   S39       1.0  0.14946  0.35739  0.66198  1.0000
  H   H250      1.0  0.43272  0.18482  0.68999  1.0000
  N   N10       1.0  0.46242  0.16585  0.69191  1.0000
  N   N11       1.0  0.29999  0.22206  0.70161  1.0000
  C   C138      1.0  0.43803  0.13905  0.70496  1.0000
  S   S40       1.0  0.13312  0.26985  0.66449  1.0000
  H   H251      1.0  0.01272  0.22160  0.69117  1.0000
  H   H252      1.0  0.26599  0.48017  0.90925  1.0000
  S   S41       1.0  0.21060  0.48194  0.77880  1.0000
  C   C139      1.0  0.45662  0.19203  0.69318  1.0000
  C   C140      1.0  0.46137  0.15677  0.67027  1.0000
  S   S42       1.0  0.19441  0.13324  0.65685  1.0000
  H   H253      1.0  0.43026  0.17101  0.65733  1.0000
  H   H254      1.0  0.45911  0.19976  0.70893  1.0000
  H   H255      1.0  0.19564  0.02545  0.65773  1.0000
  H   H256      1.0  0.30513  0.46762  0.87999  1.0000
  H   H257      1.0  0.14759  0.14960  0.65671  1.0000
  C   C141      1.0  0.43270  0.15059  0.65921  1.0000
  C   C142      1.0  0.47772  0.22062  0.67910  1.0000
  H   H258      1.0  0.47672  0.21602  0.66276  1.0000
  H   H259      1.0  0.47035  0.23764  0.68078  1.0000
  H   H260      1.0  0.31151  0.48094  0.91328  1.0000
  C   C143      1.0  0.19506  0.00444  0.65472  1.0000
  C   C144      1.0  0.16937  0.17026  0.65408  1.0000
  C   C145      1.0  0.19621  0.16873  0.65366  1.0000
  C   C146      1.0  0.29317  0.47858  0.87302  1.0000
  H   H261      1.0  0.29439  0.47667  0.85626  1.0000
  S   S43       1.0  0.04706  0.20767  0.65362  1.0000
  S   S44       1.0  0.34892  0.18854  0.65168  1.0000
  H   H262      1.0  0.48159  0.17420  0.66067  1.0000
  S   S45       1.0  0.24983  0.51726  0.30109  1.0000
  C   C147      1.0  0.24836  0.70350  0.99160  1.0000
  C   C148      1.0  0.43062  0.60791  0.07246  1.0000
  N   N12       1.0  0.39018  0.62214  0.08460  1.0000
  C   C149      1.0  0.40347  0.67730  0.09121  1.0000
  C   C150      1.0  0.36376  0.75738  0.31463  1.0000
  N   N13       1.0  0.41502  0.74349  0.20759  1.0000
  Fe  Fe23      1.0  0.21833  0.68731  0.27935  1.0000
  S   S46       1.0  0.24945  0.67805  0.29777  1.0000
  S   S47       1.0  0.21113  0.67528  0.24633  1.0000
  H   H263      1.0  0.19247  0.54029  0.26685  1.0000
  N   N14       1.0  0.26326  0.68449  0.98920  1.0000
  C   C151      1.0  0.46285  0.73770  0.20886  1.0000
  H   H264      1.0  0.14713  0.54003  0.29631  1.0000
  H   H265      1.0  0.43318  0.65149  0.06766  1.0000
  H   H266      1.0  0.19774  0.52121  0.24578  1.0000
  H   H267      1.0  0.27154  0.70425  0.03059  1.0000
  S   S48       1.0  0.23422  0.73358  0.29086  1.0000
  C   C152      1.0  0.35218  0.50764  0.29148  1.0000
  H   H268      1.0  0.35368  0.54806  0.30175  1.0000
  H   H269      1.0  0.32827  0.53049  0.28265  1.0000
  Fe  Fe24      1.0  0.43070  0.71803  0.28450  1.0000
  S   S49       1.0  0.40651  0.73922  0.26892  1.0000
  S   S50       1.0  0.40594  0.66712  0.28540  1.0000
  H   H270      1.0  0.37161  0.57307  0.08515  1.0000
  Fe  Fe25      1.0  0.31250  0.63561  0.11831  1.0000
  S   S51       1.0  0.27524  0.62964  0.14165  1.0000
  S   S52       1.0  0.32022  0.64655  0.08270  1.0000
  Fe  Fe26      1.0  0.35170  0.63429  0.15319  1.0000
  S   S53       1.0  0.31804  0.62793  0.17817  1.0000
  S   S54       1.0  0.39737  0.63900  0.15900  1.0000
  Fe  Fe27      1.0  0.28344  0.59488  0.15853  1.0000
  S   S55       1.0  0.24627  0.55177  0.17561  1.0000
  Fe  Fe28      1.0  0.31245  0.66295  0.16035  1.0000
  S   S56       1.0  0.31732  0.70032  0.18038  1.0000
  S   S57       1.0  0.31767  0.59820  0.13433  1.0000
  S   S58       1.0  0.34900  0.67183  0.13622  1.0000
  H   H271      1.0  0.37800  0.69870  0.17941  1.0000
  C   C153      1.0  0.31374  0.64084  0.05585  1.0000
  C   C154      1.0  0.28817  0.61552  0.04898  1.0000
  C   C155      1.0  0.28420  0.61181  0.02777  1.0000
  C   C156      1.0  0.30578  0.63306  0.01279  1.0000
  C   C157      1.0  0.33156  0.65821  0.01967  1.0000
  C   C158      1.0  0.33536  0.66208  0.04088  1.0000
  H   H272      1.0  0.27125  0.59875  0.06006  1.0000
  H   H273      1.0  0.26414  0.59220  0.02294  1.0000
  H   H274      1.0  0.34856  0.67490  0.00861  1.0000
  H   H275      1.0  0.35533  0.68176  0.04572  1.0000
  C   C159      1.0  0.43602  0.64639  0.22214  1.0000
  C   C160      1.0  0.40847  0.64627  0.22053  1.0000
  C   C161      1.0  0.39567  0.64319  0.20136  1.0000
  C   C162      1.0  0.41082  0.64109  0.18375  1.0000
  C   C163      1.0  0.43822  0.64126  0.18557  1.0000
  H   H276      1.0  0.41136  0.54941  0.27551  1.0000
  H   H277      1.0  0.39687  0.64809  0.23402  1.0000
  H   H278      1.0  0.37432  0.64269  0.20016  1.0000
  S   S59       1.0  0.17839  0.66371  0.30272  1.0000
  H   H279      1.0  0.45019  0.61882  0.06092  1.0000
  C   C164      1.0  0.24124  0.68348  0.22816  1.0000
  C   C165      1.0  0.27176  0.70102  0.23249  1.0000
  C   C166      1.0  0.29493  0.70631  0.21770  1.0000
  C   C167      1.0  0.28781  0.69292  0.19888  1.0000
  C   C168      1.0  0.25730  0.67503  0.19473  1.0000
  C   C169      1.0  0.23419  0.67095  0.20911  1.0000
  H   H280      1.0  0.27750  0.71100  0.24704  1.0000
  H   H281      1.0  0.31838  0.72089  0.22091  1.0000
  H   H282      1.0  0.25150  0.66516  0.18014  1.0000
  H   H283      1.0  0.21066  0.65788  0.20549  1.0000
  H   H284      1.0  0.40440  0.69096  0.10421  1.0000
  H   H285      1.0  0.30649  0.70438  0.03253  1.0000
  C   C170      1.0  0.37248  0.59057  0.09496  1.0000
  C   C171      1.0  0.37918  0.74237  0.28393  1.0000
  C   C172      1.0  0.35154  0.73549  0.27577  1.0000
  H   H286      1.0  0.33456  0.49371  0.30386  1.0000
  H   H287      1.0  0.34681  0.72737  0.26065  1.0000
  C   C173      1.0  0.24076  0.50268  0.22781  1.0000
  H   H288      1.0  0.42712  0.68656  0.08486  1.0000
  H   H289      1.0  0.27256  0.66908  0.03096  1.0000
  C   C174      1.0  0.27123  0.51340  0.23167  1.0000
  C   C175      1.0  0.29412  0.53534  0.21783  1.0000
  C   C176      1.0  0.28673  0.54721  0.20066  1.0000
  C   C177      1.0  0.25629  0.53661  0.19680  1.0000
  C   C178      1.0  0.23336  0.51400  0.21031  1.0000
  H   H290      1.0  0.45005  0.63949  0.17216  1.0000
  H   H291      1.0  0.31772  0.54327  0.22032  1.0000
  H   H292      1.0  0.30462  0.56419  0.19020  1.0000
  H   H293      1.0  0.40890  0.59649  0.11523  1.0000
  H   H294      1.0  0.45689  0.78709  0.20681  1.0000
  H   H295      1.0  0.42858  0.72574  0.23312  1.0000
  H   H296      1.0  0.34638  0.49386  0.27797  1.0000
  H   H297      1.0  0.26206  0.81026  0.30054  1.0000
  C   C179      1.0  0.24191  0.65196  0.99720  1.0000
  C   C180      1.0  0.37415  0.60382  0.04842  1.0000
  H   H298      1.0  0.41672  0.70208  0.21258  1.0000
  H   H299      1.0  0.30515  0.68719  0.99812  1.0000
  H   H300      1.0  0.36056  0.60591  0.03621  1.0000
  H   H301      1.0  0.38216  0.74139  0.23074  1.0000
  C   C181      1.0  0.41563  0.74432  0.18460  1.0000
  H   H302      1.0  0.35049  0.61639  0.06993  1.0000
  C   C182      1.0  0.28443  0.69333  0.02523  1.0000
  C   C183      1.0  0.38845  0.64359  0.09910  1.0000
  H   H303      1.0  0.40261  0.75493  0.17869  1.0000
  H   H304      1.0  0.41518  0.70165  0.17869  1.0000
  H   H305      1.0  0.39941  0.64354  0.11345  1.0000
  H   H306      1.0  0.47144  0.64305  0.20572  1.0000
  C   C184      1.0  0.32979  0.73890  0.28719  1.0000
  N   N15       1.0  0.37507  0.55953  0.27111  1.0000
  C   C185      1.0  0.40689  0.56859  0.27672  1.0000
  C   C186      1.0  0.36981  0.54474  0.25108  1.0000
  C   C187      1.0  0.37224  0.58759  0.26958  1.0000
  C   C188      1.0  0.38613  0.56630  0.23195  1.0000
  C   C189      1.0  0.34125  0.58307  0.26354  1.0000
  H   H307      1.0  0.42397  0.58679  0.26569  1.0000
  H   H308      1.0  0.34524  0.53161  0.24837  1.0000
  H   H309      1.0  0.30852  0.73359  0.28078  1.0000
  H   H310      1.0  0.37605  0.59800  0.28443  1.0000
  H   H311      1.0  0.39054  0.60582  0.25921  1.0000
  H   H312      1.0  0.41099  0.58030  0.23330  1.0000
  C   C190      1.0  0.35166  0.53734  0.28709  1.0000
  H   H313      1.0  0.20975  0.50537  0.20732  1.0000
  H   H314      1.0  0.32592  0.57861  0.27730  1.0000
  H   H315      1.0  0.32947  0.56425  0.25353  1.0000
  H   H316      1.0  0.34485  0.60380  0.25470  1.0000
  H   H317      1.0  0.37375  0.56127  0.11962  1.0000
  H   H318      1.0  0.23934  0.70110  0.00764  1.0000
  C   C191      1.0  0.43321  0.77574  0.21372  1.0000
  H   H319      1.0  0.34815  0.58401  0.09789  1.0000
  Fe  Fe29      1.0  0.19703  0.70949  0.31589  1.0000
  H   H320      1.0  0.39701  0.78812  0.21402  1.0000
  C   C192      1.0  0.45045  0.64344  0.20461  1.0000
  S   S60       1.0  0.45208  0.64722  0.24575  1.0000
  S   S61       1.0  0.29897  0.62781  0.98591  1.0000
  H   H321      1.0  0.38974  0.68093  0.07988  1.0000
  H   H322      1.0  0.43931  0.58639  0.30020  1.0000
  H   H323      1.0  0.38524  0.64687  0.05861  1.0000
  C   C193      1.0  0.40249  0.71352  0.17506  1.0000
  H   H324      1.0  0.43927  0.75886  0.17785  1.0000
  H   H325      1.0  0.30571  0.72227  0.99808  1.0000
  H   H326      1.0  0.43521  0.77599  0.23058  1.0000
  H   H327      1.0  0.42190  0.80118  0.19096  1.0000
  S   S62       1.0  0.28161  0.49953  0.25330  1.0000
  C   C194      1.0  0.38387  0.58597  0.11554  1.0000
  Fe  Fe30      1.0  0.44999  0.67380  0.27189  1.0000
  C   C195      1.0  0.37460  0.62338  0.06576  1.0000
  H   H328      1.0  0.19973  0.67796  0.98605  1.0000
  H   H329      1.0  0.41213  0.58865  0.06527  1.0000
  H   H330      1.0  0.36301  0.57935  0.05330  1.0000
  C   C196      1.0  0.42065  0.79689  0.20774  1.0000
  H   H331      1.0  0.40457  0.71748  0.15819  1.0000
  C   C197      1.0  0.41542  0.58047  0.29815  1.0000
  H   H332      1.0  0.43487  0.81924  0.21414  1.0000
  N   N16       1.0  0.23525  0.58815  0.23727  1.0000
  C   C198      1.0  0.26429  0.60622  0.22392  1.0000
  C   C199      1.0  0.20968  0.57223  0.22333  1.0000
  C   C200      1.0  0.23838  0.56515  0.25076  1.0000
  C   C201      1.0  0.23125  0.61004  0.24992  1.0000
  C   C202      1.0  0.29410  0.62097  0.23510  1.0000
  C   C203      1.0  0.20353  0.59285  0.20887  1.0000
  C   C204      1.0  0.20887  0.53585  0.25844  1.0000
  C   C205      1.0  0.20236  0.59681  0.26422  1.0000
  H   H333      1.0  0.26643  0.59164  0.21256  1.0000
  H   H334      1.0  0.26427  0.62516  0.21486  1.0000
  H   H335      1.0  0.18768  0.55696  0.23192  1.0000
  H   H336      1.0  0.21405  0.55716  0.21371  1.0000
  H   H337      1.0  0.25239  0.55720  0.24259  1.0000
  H   H338      1.0  0.25079  0.57567  0.26448  1.0000
  H   H339      1.0  0.25035  0.62138  0.26002  1.0000
  H   H340      1.0  0.23292  0.62929  0.24033  1.0000
  H   H341      1.0  0.31356  0.63185  0.22353  1.0000
  H   H342      1.0  0.29584  0.63917  0.24463  1.0000
  H   H343      1.0  0.29717  0.60416  0.24440  1.0000
  H   H344      1.0  0.22308  0.60720  0.19786  1.0000
  H   H345      1.0  0.18424  0.57833  0.19962  1.0000
  H   H346      1.0  0.19663  0.60692  0.21749  1.0000
  H   H347      1.0  0.22806  0.65108  0.01099  1.0000
  C   C206      1.0  0.38520  0.75307  0.30344  1.0000
  H   H348      1.0  0.46948  0.72123  0.21488  1.0000
  H   H349      1.0  0.20594  0.58781  0.27886  1.0000
  H   H350      1.0  0.18183  0.57913  0.25756  1.0000
  H   H351      1.0  0.19713  0.61507  0.26736  1.0000
  C   C207      1.0  0.42949  0.72613  0.21616  1.0000
  C   C208      1.0  0.36493  0.69594  0.22326  1.0000
  C   C209      1.0  0.29080  0.69743  0.00179  1.0000
  H   H352      1.0  0.34119  0.68939  0.22804  1.0000
  H   H353      1.0  0.43647  0.64135  0.09328  1.0000
  H   H354      1.0  0.39731  0.61220  0.04133  1.0000
  H   H355      1.0  0.37653  0.58123  0.22857  1.0000
  S   S63       1.0  0.16376  0.49419  0.30379  1.0000
  H   H356      1.0  0.36383  0.68158  0.21084  1.0000
  C   C210      1.0  0.33598  0.75010  0.30655  1.0000
  C   C211      1.0  0.42323  0.63228  0.07958  1.0000
  H   H357      1.0  0.21458  0.52221  0.26905  1.0000
  H   H358      1.0  0.37458  0.69069  0.23669  1.0000
  H   H359      1.0  0.36865  0.73480  0.20608  1.0000
  H   H360      1.0  0.38259  0.55263  0.21852  1.0000
  H   H361      1.0  0.36438  0.63607  0.10376  1.0000
  C   C212      1.0  0.38272  0.73021  0.21666  1.0000
  H   H362      1.0  0.43848  0.59921  0.08527  1.0000
  H   H363      1.0  0.37710  0.52743  0.25134  1.0000
  H   H364      1.0  0.46617  0.73915  0.19202  1.0000
  H   H365      1.0  0.37624  0.59514  0.12799  1.0000
  H   H366      1.0  0.32414  0.66921  0.28519  1.0000
  H   H367      1.0  0.41461  0.60159  0.30008  1.0000
  H   H368      1.0  0.47857  0.75978  0.21500  1.0000
  H   H369      1.0  0.37425  0.51178  0.29686  1.0000
  C   C213      1.0  0.17289  0.57540  0.31639  1.0000
  H   H370      1.0  0.40121  0.56315  0.31056  1.0000
  C   C214      1.0  0.16302  0.54711  0.30820  1.0000
  H   H371      1.0  0.25493  0.64096  0.00238  1.0000
  S   S64       1.0  0.47396  0.72462  0.26931  1.0000
  H   H372      1.0  0.35115  0.67014  0.30206  1.0000
  S   S65       1.0  0.46846  0.67215  0.30233  1.0000
  C   C215      1.0  0.32655  0.65821  0.29941  1.0000
  H   H373      1.0  0.40668  0.75874  0.30968  1.0000
  H   H374      1.0  0.16450  0.59003  0.31093  1.0000
  H   H375      1.0  0.20336  0.60837  0.99093  1.0000
  Fe  Fe31      1.0  0.42636  0.67053  0.31550  1.0000
  Fe  Fe32      1.0  0.26203  0.72219  0.31128  1.0000
  H   H376      1.0  0.26513  0.72825  0.98923  1.0000
  H   H377      1.0  0.29461  0.82624  0.31540  1.0000
  S   S66       1.0  0.44715  0.72116  0.31604  1.0000
  H   H378      1.0  0.36056  0.60880  0.31481  1.0000
  H   H379      1.0  0.31848  0.63420  0.29645  1.0000
  C   C216      1.0  0.17450  0.52854  0.31491  1.0000
  C   C217      1.0  0.27073  0.80751  0.31529  1.0000
  H   H380      1.0  0.27019  0.78551  0.31536  1.0000
  H   H381      1.0  0.28425  0.65235  0.31248  1.0000
  C   C218      1.0  0.30797  0.66170  0.31708  1.0000
  H   H382      1.0  0.31705  0.68648  0.31746  1.0000
  Fe  Fe33      1.0  0.09797  0.79593  0.46603  1.0000
  S   S67       1.0  0.08089  0.82204  0.44767  1.0000
  S   S68       1.0  0.08757  0.78141  0.49992  1.0000
  Fe  Fe34      1.0  0.12368  0.78074  0.42731  1.0000
  S   S69       1.0  0.10813  0.80530  0.40642  1.0000
  S   S70       1.0  0.14720  0.75468  0.41754  1.0000
  Fe  Fe35      1.0  0.12599  0.84153  0.42913  1.0000
  S   S71       1.0  0.16491  0.88906  0.41941  1.0000
  Fe  Fe36      1.0  0.06453  0.78355  0.42656  1.0000
  S   S72       1.0  0.01840  0.74899  0.41578  1.0000
  S   S73       1.0  0.14377  0.81760  0.44914  1.0000
  S   S74       1.0  0.07944  0.75681  0.44604  1.0000
  Fe  Fe37      1.0  0.12718  0.84906  0.60501  1.0000
  S   S75       1.0  0.09119  0.85242  0.62348  1.0000
  S   S76       1.0  0.13485  0.86923  0.57238  1.0000
  C   C219      1.0  0.20675  0.89394  0.47397  1.0000
  H   H383      1.0  0.17683  0.98465  0.61659  1.0000
  C   C220      1.0  0.21951  0.97783  0.64143  1.0000
  H   H384      1.0  0.31788  0.70476  0.35101  1.0000
  S   S77       1.0  0.11289  0.80187  0.61773  1.0000
  S   S78       1.0  0.16255  0.87088  0.62777  1.0000
  C   C221      1.0  0.29095  0.61320  0.33585  1.0000
  C   C222      1.0  0.25300  0.77211  0.35662  1.0000
  H   H385      1.0  0.06173  0.68248  0.33508  1.0000
  H   H386      1.0  0.28186  0.68846  0.33932  1.0000
  C   C223      1.0  0.15244  0.90275  0.47548  1.0000
  H   H387      1.0  0.21754  0.93490  0.52676  1.0000
  C   C224      1.0  0.16655  0.92461  0.41913  1.0000
  C   C225      1.0  0.14061  0.92717  0.42229  1.0000
  C   C226      1.0  0.19517  0.95112  0.41627  1.0000
  C   C227      1.0  0.20440  0.97434  0.58599  1.0000
  H   H388      1.0  0.21532  0.94931  0.41372  1.0000
  C   C228      1.0  0.10230  0.80661  0.51950  1.0000
  C   C229      1.0  0.10524  0.79551  0.53868  1.0000
  C   C230      1.0  0.11516  0.81445  0.55503  1.0000
  C   C231      1.0  0.12224  0.84471  0.55227  1.0000
  C   C232      1.0  0.11915  0.85580  0.53312  1.0000
  C   C233      1.0  0.10907  0.83676  0.51680  1.0000
  H   H389      1.0  0.09995  0.77214  0.54087  1.0000
  H   H390      1.0  0.11762  0.80572  0.56968  1.0000
  H   H391      1.0  0.12406  0.87901  0.53106  1.0000
  H   H392      1.0  0.10556  0.84491  0.50232  1.0000
  C   C234      1.0  0.33700  0.56078  0.36642  1.0000
  H   H393      1.0  0.05332  0.75550  0.56498  1.0000
  H   H394      1.0  0.33880  0.64571  0.35884  1.0000
  C   C235      1.0  0.29167  0.82549  0.35743  1.0000
  H   H395      1.0  0.15391  0.77357  0.34278  1.0000
  H   H396      1.0  0.19847  0.97664  0.54582  1.0000
  H   H397      1.0  0.11845  0.90690  0.42445  1.0000
  C   C236      1.0  0.16530  0.73928  0.35127  1.0000
  C   C237      1.0  0.15664  0.76089  0.35534  1.0000
  C   C238      1.0  0.15155  0.76628  0.37555  1.0000
  C   C239      1.0  0.15467  0.74975  0.39190  1.0000
  C   C240      1.0  0.16365  0.72837  0.38782  1.0000
  C   C241      1.0  0.16893  0.72312  0.36761  1.0000
  H   H398      1.0  0.14510  0.78313  0.37849  1.0000
  H   H399      1.0  0.16616  0.71552  0.40037  1.0000
  H   H400      1.0  0.17538  0.70627  0.36469  1.0000
  H   H401      1.0  0.11615  0.91181  0.59672  1.0000
  C   C242      1.0  0.29074  0.65420  0.35381  1.0000
  H   H402      1.0  0.14811  0.88025  0.48180  1.0000
  C   C243      1.0  0.02388  0.78541  0.55078  1.0000
  H   H403      1.0  0.33034  0.54774  0.38098  1.0000
  H   H404      1.0  0.15345  0.92361  0.60444  1.0000
  H   H405      1.0  0.12313  0.90686  0.49943  1.0000
  C   C244      1.0  0.31918  0.54914  0.34983  1.0000
  C   C245      1.0  0.01395  0.75207  0.58285  1.0000
  H   H406      1.0  0.27009  0.59677  0.36738  1.0000
  H   H407      1.0  0.24832  0.81126  0.38515  1.0000
  H   H408      1.0  0.21362  0.82565  0.35319  1.0000
  H   H409      1.0  0.26582  0.63817  0.35372  1.0000
  H   H410      1.0  0.24938  0.85474  0.36196  1.0000
  C   C246      1.0  0.22953  0.83187  0.36562  1.0000
  Fe  Fe38      1.0  0.14468  0.82386  0.64272  1.0000
  C   C247      1.0  0.00904  0.75673  0.53847  1.0000
  Fe  Fe39      1.0  0.07867  0.80658  0.63763  1.0000
  H   H411      1.0  0.98721  0.73785  0.54520  1.0000
  C   C248      1.0  0.35429  0.59507  0.32901  1.0000
  H   H412      1.0  0.25059  0.73700  0.37785  1.0000
  H   H413      1.0  0.13236  0.94105  0.61404  1.0000
  C   C249      1.0  0.32774  0.56624  0.33105  1.0000
  H   H414      1.0  0.09397  0.67865  0.34009  1.0000
  H   H415      1.0  0.12321  0.95805  0.42435  1.0000
  H   H416      1.0  0.04888  0.84376  0.56075  1.0000
  H   H417      1.0  0.21881  0.57184  0.35142  1.0000
  H   H418      1.0  0.22649  0.79103  0.33063  1.0000
  H   H419      1.0  0.23753  0.75976  0.38939  1.0000
  H   H420      1.0  0.29707  0.65066  0.36932  1.0000
  H   H421      1.0  0.18566  0.87387  0.46964  1.0000
  H   H422      1.0  0.29974  0.86927  0.36775  1.0000
  C   C250      1.0  0.25501  0.76067  0.37835  1.0000
  H   H423      1.0  0.01278  0.65483  0.35038  1.0000
  C   C251      1.0  0.19494  0.53768  0.33031  1.0000
  H   H424      1.0  0.02529  0.74854  0.53537  1.0000
  H   H425      1.0  0.05998  0.77326  0.35401  1.0000
  S   S79       1.0  0.28567  0.51390  0.35381  1.0000
  H   H426      1.0  0.35892  0.70484  0.33314  1.0000
  C   C252      1.0  0.04211  0.80714  0.58352  1.0000
  H   H427      1.0  0.12499  0.92548  0.47482  1.0000
  H   H428      1.0  0.20153  0.95677  0.57535  1.0000
  C   C253      1.0  0.12483  0.90569  0.48270  1.0000
  C   C254      1.0  0.19300  0.94982  0.64651  1.0000
  C   C255      1.0  0.98289  0.77638  0.41666  1.0000
  H   H429      1.0  0.36859  0.76604  0.32962  1.0000
  H   H430      1.0  0.23916  0.97830  0.63414  1.0000
  H   H431      1.0  0.17342  0.96414  0.48537  1.0000
  C   C256      1.0  0.23824  0.80729  0.37002  1.0000
  H   H432      1.0  0.17467  0.95608  0.45947  1.0000
  H   H433      1.0  0.08573  0.68704  0.40577  1.0000
  H   H434      1.0  0.00719  0.74918  0.59941  1.0000
  H   H435      1.0  0.10372  0.88522  0.47866  1.0000
  H   H436      1.0  0.09918  0.71564  0.33581  1.0000
  Fe  Fe40      1.0  0.25691  0.49307  0.32764  1.0000
  C   C257      1.0  0.19324  0.58443  0.33187  1.0000
  H   H437      1.0  0.38510  0.69550  0.34283  1.0000
  H   H438      1.0  0.16895  0.93007  0.51158  1.0000
  H   H439      1.0  0.21707  0.83320  0.37942  1.0000
  C   C258      1.0  0.04294  0.74965  0.58076  1.0000
  H   H440      1.0  0.29326  0.86540  0.34086  1.0000
  H   H441      1.0  0.00455  0.76313  0.52315  1.0000
  C   C259      1.0  0.20682  0.92380  0.46878  1.0000
  H   H442      1.0  0.21918  0.96833  0.51488  1.0000
  H   H443      1.0  0.20387  0.92496  0.45213  1.0000
  S   S80       1.0  0.20568  0.61925  0.34276  1.0000
  N   N17       1.0  0.30782  0.64719  0.33762  1.0000
  N   N18       1.0  0.06083  0.70831  0.37346  1.0000
  C   C260      1.0  0.07001  0.71831  0.39466  1.0000
  C   C261      1.0  0.06933  0.73645  0.35994  1.0000
  C   C262      1.0  0.07834  0.69327  0.36618  1.0000
  C   C263      1.0  0.02708  0.68623  0.37496  1.0000
  C   C264      1.0  0.06903  0.69410  0.41017  1.0000
  C   C265      1.0  0.05315  0.75415  0.36564  1.0000
  C   C266      1.0  0.08313  0.69259  0.34293  1.0000
  C   C267      1.0  0.17208  0.98263  0.41961  1.0000
  H   H444      1.0  0.09342  0.73817  0.39411  1.0000
  H   H445      1.0  0.05536  0.72632  0.40171  1.0000
  H   H446      1.0  0.06508  0.73148  0.34376  1.0000
  H   H447      1.0  0.09425  0.75257  0.35981  1.0000
  H   H448      1.0  0.10170  0.70495  0.37168  1.0000
  H   H449      1.0  0.06757  0.66941  0.37280  1.0000
  H   H450      1.0  0.02184  0.66530  0.38432  1.0000
  H   H451      1.0  0.01433  0.69517  0.38367  1.0000
  H   H452      1.0  0.13251  0.96091  0.57794  1.0000
  H   H453      1.0  0.25107  0.83046  0.33029  1.0000
  H   H454      1.0  0.32815  0.87167  0.34931  1.0000
  H   H455      1.0  0.35839  0.69791  0.36042  1.0000
  H   H456      1.0  0.03854  0.80366  0.60048  1.0000
  H   H457      1.0  0.30684  0.81983  0.34827  1.0000
  H   H458      1.0  0.23003  0.75580  0.35171  1.0000
  H   H459      1.0  0.20194  0.96304  0.60136  1.0000
  C   C268      1.0  0.18582  0.95789  0.47405  1.0000
  H   H460      1.0  0.37653  0.59842  0.37750  1.0000
  H   H461      1.0  0.06001  0.76445  0.38041  1.0000
  S   S81       1.0  0.22627  0.70143  0.33690  1.0000
  H   H462      1.0  0.17751  0.90116  0.50902  1.0000
  H   H463      1.0  0.35074  0.64786  0.33333  1.0000
  H   H464      1.0  0.99187  0.75031  0.47340  1.0000
  H   H465      1.0  0.26939  0.76921  0.34669  1.0000
  H   H466      1.0  0.20367  0.52332  0.33569  1.0000
  C   C269      1.0  0.21627  0.94572  0.51207  1.0000
  H   H467      1.0  0.01795  0.80197  0.54388  1.0000
  C   C270      1.0  0.18526  0.92504  0.50340  1.0000
  C   C271      1.0  0.25047  0.80854  0.33290  1.0000
  H   H468      1.0  0.15134  0.90086  0.45874  1.0000
  H   H469      1.0  0.04598  0.67398  0.41275  1.0000
  C   C272      1.0  0.36314  0.58945  0.36445  1.0000
  C   C273      1.0  0.01168  0.67509  0.35484  1.0000
  N   N19       1.0  0.18331  0.92786  0.48065  1.0000
  H   H470      1.0  0.03712  0.72593  0.58504  1.0000
  H   H471      1.0  0.26858  0.60573  0.32923  1.0000
  C   C274      1.0  0.33945  0.65651  0.34364  1.0000
  C   C275      1.0  0.29401  0.68604  0.35233  1.0000
  C   C276      1.0  0.15023  0.95509  0.58176  1.0000
  H   H472      1.0  0.27151  0.56904  0.35248  1.0000
  C   C277      1.0  0.28440  0.59336  0.35590  1.0000
  H   H473      1.0  0.15171  0.94252  0.56868  1.0000
  H   H474      1.0  0.30551  0.59698  0.36265  1.0000
  C   C278      1.0  0.30339  0.85977  0.35372  1.0000
  H   H475      1.0  0.28299  0.68887  0.36630  1.0000
  C   C279      1.0  0.37188  0.60665  0.34582  1.0000
  H   H476      1.0  0.02096  0.69265  0.34204  1.0000
  H   H477      1.0  0.19254  0.92903  0.64331  1.0000
  S   S82       1.0  0.30878  0.75434  0.32088  1.0000
  H   H478      1.0  0.29663  0.82242  0.37341  1.0000
  S   S83       1.0  0.40366  0.64332  0.34496  1.0000
  H   H479      1.0  0.21615  0.78572  0.37244  1.0000
  H   H480      1.0  0.04886  0.79568  0.54746  1.0000
  H   H481      1.0  0.02804  0.73990  0.36598  1.0000
  C   C280      1.0  0.20368  0.56523  0.33911  1.0000
  N   N20       1.0  0.25865  0.80419  0.35416  1.0000
  C   C281      1.0  0.19799  0.97999  0.41675  1.0000
  C   C282      1.0  0.13774  0.93194  0.60046  1.0000
  H   H482      1.0  0.30361  0.60639  0.32525  1.0000
  H   H483      1.0  0.22577  0.89424  0.46492  1.0000
  N   N21       1.0  0.18041  0.98333  0.58389  1.0000
  C   C283      1.0  0.99832  0.79516  0.64170  1.0000
  H   H484      1.0  0.05992  0.76421  0.59141  1.0000
  H   H485      1.0  0.27794  0.77425  0.38406  1.0000
  H   H486      1.0  0.06902  0.85646  0.58313  1.0000
  C   C284      1.0  0.04714  0.83906  0.57750  1.0000
  H   H487      1.0  0.06429  0.80853  0.57980  1.0000
  C   C285      1.0  0.14337  0.95613  0.42228  1.0000
  H   H488      1.0  0.07560  0.70418  0.42511  1.0000
  N   N22       1.0  0.01663  0.78100  0.57360  1.0000
  H   H489      1.0  0.21022  0.89115  0.49030  1.0000
  S   S84       1.0  0.17073  0.73284  0.32562  1.0000
  H   H490      1.0  0.31363  0.55747  0.31831  1.0000
  H   H491      1.0  0.99564  0.73159  0.57651  1.0000
  H   H492      1.0  0.01946  0.81533  0.64449  1.0000
  S   S85       1.0  0.03119  0.76522  0.63928  1.0000
  H   H493      1.0  0.02916  0.84250  0.58477  1.0000
  H   H494      1.0  0.23026  0.94248  0.47053  1.0000
  H   H495      1.0  0.00335  0.79737  0.41921  1.0000
  H   H496      1.0  0.23589  0.94865  0.50242  1.0000
  H   H497      1.0  0.22916  0.98417  0.45567  1.0000
  C   C286      1.0  0.36131  0.69067  0.34521  1.0000
  C   C287      1.0  0.21801  0.98569  0.47006  1.0000
  H   H498      1.0  0.16743  0.98118  0.53790  1.0000
  C   C288      1.0  0.98781  0.78152  0.57906  1.0000
  Fe  Fe41      1.0  0.12577  0.87146  0.64701  1.0000
  C   C289      1.0  0.99790  0.76794  0.63870  1.0000
  Fe  Fe42      1.0  0.21115  0.65796  0.32187  1.0000
  H   H499      1.0  0.98910  0.80264  0.57248  1.0000
  H   H500      1.0  0.98471  0.78175  0.59593  1.0000
  H   H501      1.0  0.14560  0.68878  0.64862  1.0000
  C   C290      1.0  0.98417  0.74981  0.41456  1.0000
  H   H502      1.0  0.98739  0.66876  0.35699  1.0000
  Fe  Fe43      1.0  0.44069  0.70450  0.77800  1.0000
  S   S86       1.0  0.40964  0.71995  0.76586  1.0000
  S   S87       1.0  0.41842  0.66473  0.80165  1.0000
  S   S88       1.0  0.31791  0.55516  0.71580  1.0000
  S   S89       1.0  0.27503  0.49254  0.75916  1.0000
  Fe  Fe44      1.0  0.45064  0.76635  0.76508  1.0000
  S   S90       1.0  0.44883  0.80653  0.77607  1.0000
  Fe  Fe45      1.0  0.42831  0.71766  0.73511  1.0000
  S   S91       1.0  0.39981  0.69839  0.70848  1.0000
  H   H503      1.0  0.44759  0.65809  0.69485  1.0000
  S   S92       1.0  0.45644  0.69855  0.74695  1.0000
  Fe  Fe46      1.0  0.28319  0.76668  0.76227  1.0000
  S   S93       1.0  0.24331  0.76158  0.78156  1.0000
  S   S94       1.0  0.32858  0.80961  0.76043  1.0000
  Fe  Fe47      1.0  0.24640  0.70639  0.74415  1.0000
  S   S95       1.0  0.20361  0.69626  0.76180  1.0000
  S   S96       1.0  0.25138  0.67623  0.72225  1.0000
  Fe  Fe48      1.0  0.21761  0.74508  0.75314  1.0000
  S   S97       1.0  0.18266  0.75758  0.74241  1.0000
  Fe  Fe49      1.0  0.23343  0.71360  0.78837  1.0000
  S   S98       1.0  0.21844  0.68440  0.81830  1.0000
  S   S99       1.0  0.25837  0.75365  0.73351  1.0000
  S   S100      1.0  0.27517  0.72014  0.77097  1.0000
  Fe  Fe50      1.0  0.28387  0.60514  0.91030  1.0000
  S   S101      1.0  0.31364  0.64625  0.88969  1.0000
  S   S102      1.0  0.25086  0.56157  0.89631  1.0000
  Fe  Fe51      1.0  0.30749  0.63768  0.95031  1.0000
  S   S103      1.0  0.33950  0.68180  0.93194  1.0000
  Fe  Fe52      1.0  0.30123  0.67136  0.91145  1.0000
  S   S104      1.0  0.29672  0.70972  0.89636  1.0000
  Fe  Fe53      1.0  0.34971  0.65374  0.91087  1.0000
  S   S105      1.0  0.39719  0.67133  0.89662  1.0000
  S   S106      1.0  0.26806  0.62944  0.93100  1.0000
  S   S107      1.0  0.32092  0.61029  0.93041  1.0000
  H   H504      1.0  0.41430  0.58128  0.78900  1.0000
  H   H505      1.0  0.18856  0.83743  0.73975  1.0000
  C   C291      1.0  0.34542  0.59677  0.78247  1.0000
  Fe  Fe54      1.0  0.21837  0.52092  0.75711  1.0000
  Fe  Fe55      1.0  0.27789  0.53049  0.73888  1.0000
  C   C292      1.0  0.40792  0.62118  0.75180  1.0000
  H   H506      1.0  0.32913  0.60194  0.77506  1.0000
  C   C293      1.0  0.18250  0.77322  0.71776  1.0000
  C   C294      1.0  0.15666  0.77460  0.71237  1.0000
  C   C295      1.0  0.15520  0.78592  0.69273  1.0000
  C   C296      1.0  0.17970  0.79609  0.67825  1.0000
  C   C297      1.0  0.20561  0.79488  0.68369  1.0000
  C   C298      1.0  0.20710  0.78369  0.70335  1.0000
  H   H507      1.0  0.13749  0.76654  0.72340  1.0000
  H   H508      1.0  0.13508  0.78660  0.68876  1.0000
  H   H509      1.0  0.22476  0.80290  0.67265  1.0000
  H   H510      1.0  0.22723  0.78305  0.70733  1.0000
  C   C299      1.0  0.27593  0.70223  0.87416  1.0000
  C   C300      1.0  0.28595  0.72442  0.85779  1.0000
  C   C301      1.0  0.26901  0.71917  0.84034  1.0000
  C   C302      1.0  0.24113  0.69225  0.83960  1.0000
  C   C303      1.0  0.23080  0.67057  0.85627  1.0000
  C   C304      1.0  0.24847  0.67509  0.87316  1.0000
  H   H511      1.0  0.30670  0.74583  0.85866  1.0000
  H   H512      1.0  0.27703  0.73627  0.82775  1.0000
  H   H513      1.0  0.20894  0.65008  0.85614  1.0000
  H   H514      1.0  0.24019  0.65807  0.88581  1.0000
  H   H515      1.0  0.27395  0.61476  0.84475  1.0000
  H   H516      1.0  0.23381  0.87942  0.70505  1.0000
  H   H517      1.0  0.29519  0.52159  0.86918  1.0000
  C   C305      1.0  0.20443  0.57736  0.74739  1.0000
  C   C306      1.0  0.23155  0.58963  0.73517  1.0000
  C   C307      1.0  0.24576  0.61996  0.72721  1.0000
  C   C308      1.0  0.23345  0.63830  0.73210  1.0000
  C   C309      1.0  0.20658  0.62609  0.74452  1.0000
  C   C310      1.0  0.19162  0.59545  0.75161  1.0000
  H   H518      1.0  0.24139  0.57566  0.73164  1.0000
  H   H519      1.0  0.26653  0.62927  0.71756  1.0000
  H   H520      1.0  0.19693  0.63999  0.74846  1.0000
  H   H521      1.0  0.17047  0.58593  0.76086  1.0000
  C   C311      1.0  0.41162  0.66951  0.82739  1.0000
  C   C312      1.0  0.38348  0.64897  0.83759  1.0000
  C   C313      1.0  0.37844  0.65017  0.85862  1.0000
  C   C314      1.0  0.40188  0.67115  0.86981  1.0000
  C   C315      1.0  0.42998  0.69175  0.85959  1.0000
  C   C316      1.0  0.43468  0.69132  0.83838  1.0000
  H   H522      1.0  0.36564  0.63183  0.82924  1.0000
  H   H523      1.0  0.35682  0.63406  0.86632  1.0000
  H   H524      1.0  0.44831  0.70788  0.86814  1.0000
  H   H525      1.0  0.45663  0.70688  0.83074  1.0000
  C   C317      1.0  0.41483  0.80648  0.77235  1.0000
  C   C318      1.0  0.41622  0.83373  0.76609  1.0000
  C   C319      1.0  0.38951  0.83440  0.76285  1.0000
  C   C320      1.0  0.36117  0.80802  0.76639  1.0000
  C   C321      1.0  0.35962  0.78099  0.77362  1.0000
  C   C322      1.0  0.38647  0.78003  0.77618  1.0000
  H   H526      1.0  0.43806  0.85430  0.76339  1.0000
  H   H527      1.0  0.39084  0.85544  0.75747  1.0000
  H   H528      1.0  0.33782  0.76083  0.77711  1.0000
  H   H529      1.0  0.38524  0.75903  0.78142  1.0000
  C   C323      1.0  0.37680  0.65866  0.71113  1.0000
  C   C324      1.0  0.37978  0.64132  0.69626  1.0000
  C   C325      1.0  0.36159  0.60960  0.69795  1.0000
  C   C326      1.0  0.33937  0.59508  0.71402  1.0000
  C   C327      1.0  0.33561  0.61248  0.72855  1.0000
  C   C328      1.0  0.35485  0.64421  0.72742  1.0000
  H   H530      1.0  0.39625  0.65239  0.68344  1.0000
  H   H531      1.0  0.36433  0.59627  0.68655  1.0000
  H   H532      1.0  0.31797  0.60151  0.74064  1.0000
  H   H533      1.0  0.35230  0.65744  0.73894  1.0000
  N   N23       1.0  0.39653  0.75697  0.84218  1.0000
  C   C329      1.0  0.42855  0.76595  0.84736  1.0000
  C   C330      1.0  0.37799  0.75036  0.86209  1.0000
  C   C331      1.0  0.39791  0.78373  0.83033  1.0000
  C   C332      1.0  0.38507  0.72973  0.82951  1.0000
  C   C333      1.0  0.45258  0.77734  0.82919  1.0000
  C   C334      1.0  0.37501  0.72374  0.87594  1.0000
  C   C335      1.0  0.36800  0.78440  0.82907  1.0000
  C   C336      1.0  0.35104  0.71281  0.82524  1.0000
  H   H534      1.0  0.43705  0.78414  0.85835  1.0000
  H   H535      1.0  0.42928  0.74653  0.85511  1.0000
  H   H536      1.0  0.35451  0.74537  0.85984  1.0000
  H   H537      1.0  0.38779  0.77087  0.87112  1.0000
  H   H538      1.0  0.41412  0.80541  0.83696  1.0000
  H   H539      1.0  0.40714  0.78572  0.81444  1.0000
  H   H540      1.0  0.39754  0.73632  0.81423  1.0000
  H   H541      1.0  0.39046  0.71263  0.83614  1.0000
  H   H542      1.0  0.30864  0.56165  0.89854  1.0000
  S   S108      1.0  0.28478  0.52271  0.81375  1.0000
  C   C337      1.0  0.13605  0.86976  0.71104  1.0000
  H   H543      1.0  0.36560  0.70243  0.86797  1.0000
  H   H544      1.0  0.39688  0.72891  0.88226  1.0000
  H   H545      1.0  0.35902  0.71953  0.88923  1.0000
  H   H546      1.0  0.37193  0.80337  0.81805  1.0000
  H   H547      1.0  0.36075  0.78906  0.84397  1.0000
  H   H548      1.0  0.34926  0.76349  0.82356  1.0000
  H   H549      1.0  0.34721  0.72177  0.81063  1.0000
  H   H550      1.0  0.33579  0.71299  0.83753  1.0000
  H   H551      1.0  0.34350  0.68841  0.82392  1.0000
  H   H552      1.0  0.13332  0.87254  0.69462  1.0000
  H   H553      1.0  0.38784  0.57564  0.82381  1.0000
  H   H554      1.0  0.39833  0.60437  0.79272  1.0000
  H   H555      1.0  0.31993  0.72927  0.66900  1.0000
  H   H556      1.0  0.36738  0.61819  0.78137  1.0000
  C   C338      1.0  0.34539  0.56980  0.77233  1.0000
  C   C339      1.0  0.35280  0.57416  0.88628  1.0000
  H   H557      1.0  0.37509  0.53592  0.91010  1.0000
  S   S109      1.0  0.22998  0.50327  0.72944  1.0000
  H   H558      1.0  0.37570  0.54052  0.81222  1.0000
  C   C340      1.0  0.39469  0.58661  0.75302  1.0000
  H   H559      1.0  0.38990  0.62721  0.75077  1.0000
  H   H560      1.0  0.19991  0.95044  0.71344  1.0000
  N   N24       1.0  0.23307  0.60269  0.81134  1.0000
  C   C341      1.0  0.25388  0.60512  0.79355  1.0000
  C   C342      1.0  0.22338  0.57349  0.82388  1.0000
  C   C343      1.0  0.24881  0.62881  0.82472  1.0000
  C   C344      1.0  0.20604  0.60329  0.80315  1.0000
  C   C345      1.0  0.27032  0.63597  0.78095  1.0000
  C   C346      1.0  0.20438  0.54399  0.81305  1.0000
  C   C347      1.0  0.27852  0.63339  0.83332  1.0000
  C   C348      1.0  0.18000  0.59681  0.81894  1.0000
  H   H561      1.0  0.27145  0.59973  0.79856  1.0000
  H   H562      1.0  0.24090  0.58783  0.78257  1.0000
  H   H563      1.0  0.21050  0.57216  0.83831  1.0000
  H   H564      1.0  0.24361  0.57265  0.82883  1.0000
  H   H565      1.0  0.25362  0.65059  0.81665  1.0000
  H   H566      1.0  0.23372  0.62563  0.83830  1.0000
  H   H567      1.0  0.21302  0.62581  0.79528  1.0000
  H   H568      1.0  0.19593  0.58653  0.79144  1.0000
  H   H569      1.0  0.25417  0.64224  0.77458  1.0000
  H   H570      1.0  0.28670  0.65458  0.78987  1.0000
  H   H571      1.0  0.28349  0.63420  0.76775  1.0000
  H   H572      1.0  0.22808  0.49778  0.83832  1.0000
  H   H573      1.0  0.37071  0.56796  0.88634  1.0000
  H   H574      1.0  0.19766  0.52417  0.82401  1.0000
  H   H575      1.0  0.28886  0.65460  0.84153  1.0000
  H   H576      1.0  0.29553  0.63569  0.82134  1.0000
  H   H577      1.0  0.16922  0.57350  0.82633  1.0000
  H   H578      1.0  0.16205  0.59867  0.81096  1.0000
  H   H579      1.0  0.18752  0.61358  0.83072  1.0000
  N   N25       1.0  0.17707  0.68124  0.69298  1.0000
  C   C349      1.0  0.17195  0.65400  0.70633  1.0000
  C   C350      1.0  0.17054  0.70101  0.70631  1.0000
  C   C351      1.0  0.21020  0.69836  0.68560  1.0000
  H   H580      1.0  0.15977  0.85801  0.73194  1.0000
  H   H581      1.0  0.30732  0.70068  0.68927  1.0000
  C   C352      1.0  0.13844  0.68560  0.71714  1.0000
  C   C353      1.0  0.32503  0.55354  0.90108  1.0000
  H   H582      1.0  0.14902  0.97573  0.66755  1.0000
  H   H583      1.0  0.18571  0.66149  0.71993  1.0000
  H   H584      1.0  0.33236  0.55940  0.91683  1.0000
  H   H585      1.0  0.17374  0.72161  0.69773  1.0000
  H   H586      1.0  0.18715  0.70989  0.71839  1.0000
  H   H587      1.0  0.45621  0.79881  0.82149  1.0000
  H   H588      1.0  0.21565  0.87724  0.74291  1.0000
  C   C354      1.0  0.17892  0.63115  0.69610  1.0000
  H   H589      1.0  0.17674  0.89073  0.67676  1.0000
  H   H590      1.0  0.21650  0.74413  0.67862  1.0000
  H   H591      1.0  0.17076  0.61064  0.70673  1.0000
  H   H592      1.0  0.16516  0.71728  0.66579  1.0000
  H   H593      1.0  0.26357  0.51120  0.89826  1.0000
  H   H594      1.0  0.16705  0.66302  0.66323  1.0000
  H   H595      1.0  0.37348  0.52949  0.73844  1.0000
  H   H596      1.0  0.30424  0.59256  0.86763  1.0000
  H   H597      1.0  0.24597  0.73845  0.66854  1.0000
  C   C355      1.0  0.35492  0.52160  0.75060  1.0000
  C   C356      1.0  0.22093  0.72727  0.67157  1.0000
  C   C357      1.0  0.30813  0.51250  0.87716  1.0000
  H   H598      1.0  0.17674  0.85630  0.67746  1.0000
  N   N26       1.0  0.35497  0.75531  0.71334  1.0000
  C   C358      1.0  0.38646  0.76565  0.72021  1.0000
  C   C359      1.0  0.33265  0.73214  0.72948  1.0000
  C   C360      1.0  0.34877  0.78153  0.71266  1.0000
  C   C361      1.0  0.35146  0.74116  0.69322  1.0000
  C   C362      1.0  0.41279  0.79356  0.70827  1.0000
  C   C363      1.0  0.33420  0.70288  0.73327  1.0000
  C   C364      1.0  0.35639  0.80068  0.69221  1.0000
  C   C365      1.0  0.31884  0.72569  0.68586  1.0000
  H   H599      1.0  0.38787  0.77116  0.73645  1.0000
  H   H600      1.0  0.39203  0.74721  0.71950  1.0000
  H   H601      1.0  0.30891  0.72505  0.72610  1.0000
  H   H602      1.0  0.33544  0.74251  0.74433  1.0000
  H   H603      1.0  0.32435  0.77370  0.71662  1.0000
  H   H604      1.0  0.36082  0.79727  0.72470  1.0000
  H   H605      1.0  0.36714  0.75801  0.68101  1.0000
  H   H606      1.0  0.35858  0.72371  0.69417  1.0000
  H   H607      1.0  0.43459  0.79730  0.71404  1.0000
  H   H608      1.0  0.41361  0.79023  0.69177  1.0000
  H   H609      1.0  0.41194  0.81451  0.71094  1.0000
  H   H610      1.0  0.35623  0.70763  0.73905  1.0000
  H   H611      1.0  0.25555  0.67475  0.95716  1.0000
  H   H612      1.0  0.32956  0.68967  0.71955  1.0000
  H   H613      1.0  0.35421  0.82098  0.69476  1.0000
  H   H614      1.0  0.34006  0.78784  0.68073  1.0000
  H   H615      1.0  0.37975  0.80896  0.68574  1.0000
  H   H616      1.0  0.21092  0.72183  0.65654  1.0000
  H   H617      1.0  0.30465  0.73456  0.69239  1.0000
  H   H618      1.0  0.33076  0.52393  0.86879  1.0000
  C   C366      1.0  0.28737  0.57227  0.86110  1.0000
  C   C367      1.0  0.23744  0.52751  0.86294  1.0000
  C   C368      1.0  0.25903  0.55394  0.87158  1.0000
  H   H619      1.0  0.23213  0.62439  0.97066  1.0000
  S   S110      1.0  0.18712  0.54014  0.75854  1.0000
  C   C369      1.0  0.20963  0.86484  0.71079  1.0000
  C   C370      1.0  0.21029  0.85759  0.73374  1.0000
  S   S111      1.0  0.26661  0.55147  0.76450  1.0000
  H   H620      1.0  0.24866  0.50198  0.93468  1.0000
  H   H621      1.0  0.33654  0.59035  0.79864  1.0000
  C   C371      1.0  0.27312  0.53669  0.83422  1.0000
  H   H622      1.0  0.34596  0.57461  0.87047  1.0000
  H   H623      1.0  0.42257  0.63104  0.73746  1.0000
  H   H624      1.0  0.38198  0.57886  0.73898  1.0000
  H   H625      1.0  0.33749  0.56903  0.75673  1.0000
  H   H626      1.0  0.42241  0.63219  0.76452  1.0000
  H   H627      1.0  0.14970  0.83600  0.71020  1.0000
  H   H628      1.0  0.41425  0.58257  0.75135  1.0000
  N   N27       1.0  0.37467  0.56891  0.77181  1.0000
  H   H629      1.0  0.13690  0.67119  0.73081  1.0000
  H   H630      1.0  0.23647  0.91836  0.67543  1.0000
  C   C372      1.0  0.39208  0.58061  0.79060  1.0000
  C   C373      1.0  0.37564  0.56230  0.81086  1.0000
  H   H631      1.0  0.32698  0.54905  0.78082  1.0000
  C   C374      1.0  0.27330  0.51426  0.92988  1.0000
  C   C375      1.0  0.36718  0.53628  0.77076  1.0000
  H   H632      1.0  0.35192  0.55756  0.81262  1.0000
  H   H633      1.0  0.23115  0.92139  0.71164  1.0000
  H   H634      1.0  0.34976  0.52138  0.78307  1.0000
  H   H635      1.0  0.31625  0.68791  0.74520  1.0000
  C   C376      1.0  0.22137  0.69640  0.97844  1.0000
  Fe  Fe56      1.0  0.26002  0.51159  0.78437  1.0000
  H   H636      1.0  0.11342  0.85187  0.71777  1.0000
  H   H637      1.0  0.21638  0.68384  0.67679  1.0000
  H   H638      1.0  0.13387  0.70334  0.72273  1.0000
  H   H639      1.0  0.31696  0.57714  0.83512  1.0000
  C   C377      1.0  0.29447  0.56358  0.84257  1.0000
  C   C378      1.0  0.14832  0.69292  0.66509  1.0000
  C   C379      1.0  0.16867  0.97626  0.66020  1.0000
  C   C380      1.0  0.22064  0.89577  0.67002  1.0000
  C   C381      1.0  0.19939  0.93450  0.70220  1.0000
  S   S112      1.0  0.46656  0.76599  0.73286  1.0000
  H   H640      1.0  0.33734  0.52640  0.74517  1.0000
  H   H641      1.0  0.20143  0.84318  0.70329  1.0000
  H   H642      1.0  0.38758  0.53410  0.77340  1.0000
  C   C382      1.0  0.15675  0.67037  0.67536  1.0000
  H   H643      1.0  0.21770  0.54194  0.80013  1.0000
  H   H644      1.0  0.12035  0.67189  0.70693  1.0000
  H   H645      1.0  0.18304  0.54178  0.80763  1.0000
  C   C383      1.0  0.27742  0.50541  0.90828  1.0000
  H   H646      1.0  0.17713  0.92503  0.69549  1.0000
  H   H647      1.0  0.30173  0.71547  0.94120  1.0000
  H   H648      1.0  0.20369  0.64034  0.69320  1.0000
  H   H649      1.0  0.14155  0.89078  0.71866  1.0000
  C   C384      1.0  0.18962  0.87994  0.68234  1.0000
  H   H650      1.0  0.22818  0.85143  0.73589  1.0000
  C   C385      1.0  0.29629  0.71766  0.95733  1.0000
  H   H651      1.0  0.19976  0.90965  0.72966  1.0000
  H   H652      1.0  0.22479  0.70502  0.69884  1.0000
  H   H653      1.0  0.36326  0.59788  0.89097  1.0000
  S   S113      1.0  0.10962  0.82561  0.66346  1.0000
  H   H654      1.0  0.28588  0.73229  0.95700  1.0000
  H   H655      1.0  0.47475  0.78228  0.83498  1.0000
  C   C386      1.0  0.15942  0.85966  0.71504  1.0000
  H   H656      1.0  0.14786  0.64039  0.71242  1.0000
  H   H657      1.0  0.46711  0.68958  0.67603  1.0000
  C   C387      1.0  0.20594  0.91096  0.71307  1.0000
  H   H658      1.0  0.36219  0.49610  0.90834  1.0000
  S   S114      1.0  0.17941  0.81113  0.65345  1.0000
  C   C388      1.0  0.32546  0.50619  0.91133  1.0000
  H   H659      1.0  0.21774  0.94892  0.69034  1.0000
  H   H660      1.0  0.13465  0.64985  0.68058  1.0000
  N   N28       1.0  0.19107  0.87953  0.70524  1.0000
  H   H661      1.0  0.32753  0.51314  0.92729  1.0000
  C   C389      1.0  0.24444  0.51891  0.84435  1.0000
  C   C390      1.0  0.27441  0.68567  0.96741  1.0000
  H   H662      1.0  0.21720  0.89915  0.65375  1.0000
  H   H663      1.0  0.44694  0.76003  0.81790  1.0000
  H   H664      1.0  0.23128  0.88130  0.67038  1.0000
  H   H665      1.0  0.28623  0.67227  0.96645  1.0000
  H   H666      1.0  0.21552  0.51309  0.87099  1.0000
  N   N29       1.0  0.30977  0.51959  0.89929  1.0000
  H   H667      1.0  0.28096  0.53881  0.93020  1.0000
  H   H668      1.0  0.16720  0.62344  0.68182  1.0000
  S   S115      1.0  0.13362  0.91387  0.66211  1.0000
  C   C391      1.0  0.35790  0.51475  0.90356  1.0000
  H   H669      1.0  0.36154  0.51719  0.88677  1.0000
  H   H670      1.0  0.28477  0.50776  0.94140  1.0000
  C   C392      1.0  0.46495  0.68258  0.69239  1.0000
  C   C393      1.0  0.16737  0.94887  0.65578  1.0000
  H   H671      1.0  0.31825  0.72898  0.96464  1.0000
  H   H672      1.0  0.34441  0.49653  0.75291  1.0000
  H   H673      1.0  0.12575  0.68844  0.67131  1.0000
  H   H674      1.0  0.45586  0.69530  0.70058  1.0000
  H   H675      1.0  0.21950  0.71715  0.97617  1.0000
  H   H676      1.0  0.22423  0.69056  0.96283  1.0000
  H   H677      1.0  0.20645  0.63891  0.97470  1.0000
  S   S116      1.0  0.48086  0.75138  0.77940  1.0000
  C   C394      1.0  0.21977  0.63011  0.98231  1.0000
  H   H678      1.0  0.47827  0.63255  0.69079  1.0000
  H   H679      1.0  0.48079  0.65385  0.66814  1.0000
  H   H680      1.0  0.49253  0.27761  0.21399  1.0000
  H   H681      1.0  0.68695  0.21090  0.06931  1.0000
  H   H682      1.0  0.74036  0.30903  0.08422  1.0000
  H   H683      1.0  0.71525  0.37047  0.23010  1.0000
  C   C395      1.0  0.63578  0.22172  0.08710  1.0000
  H   H684      1.0  0.62262  0.22506  0.07512  1.0000
  S   S117      1.0  0.52277  0.25984  0.28929  1.0000
  H   H685      1.0  0.71778  0.35627  0.19463  1.0000
  Fe  Fe57      1.0  0.65056  0.43893  0.28813  1.0000
  S   S118      1.0  0.60503  0.43474  0.28443  1.0000
  H   H686      1.0  0.65610  0.20815  0.11819  1.0000
  H   H687      1.0  0.71450  0.32378  0.27034  1.0000
  H   H688      1.0  0.79931  0.24866  0.30534  1.0000
  H   H689      1.0  0.70954  0.28046  0.25334  1.0000
  S   S119      1.0  0.66313  0.40353  0.28225  1.0000
  Fe  Fe58      1.0  0.67817  0.21073  0.27488  1.0000
  S   S120      1.0  0.66824  0.24103  0.29355  1.0000
  S   S121      1.0  0.65398  0.19797  0.24533  1.0000
  H   H690      1.0  0.79499  0.46627  0.25213  1.0000
  C   C396      1.0  0.67540  0.33694  0.25992  1.0000
  S   S122      1.0  0.69113  0.47639  0.27006  1.0000
  H   H691      1.0  0.71131  0.24879  0.14244  1.0000
  S   S123      1.0  0.51579  0.20202  0.25265  1.0000
  C   C397      1.0  0.59570  0.32067  0.31054  1.0000
  H   H692      1.0  0.73352  0.33231  0.10060  1.0000
  S   S124      1.0  0.66488  0.17475  0.30062  1.0000
  S   S125      1.0  0.72760  0.23352  0.28136  1.0000
  Fe  Fe59      1.0  0.59143  0.28246  0.14698  1.0000
  S   S126      1.0  0.60479  0.32280  0.12490  1.0000
  S   S127      1.0  0.54300  0.25580  0.16052  1.0000
  Fe  Fe60      1.0  0.65613  0.29567  0.14951  1.0000
  S   S128      1.0  0.67470  0.33773  0.12818  1.0000
  S   S129      1.0  0.68942  0.28418  0.16395  1.0000
  Fe  Fe61      1.0  0.64218  0.34721  0.14612  1.0000
  S   S130      1.0  0.64721  0.38899  0.16055  1.0000
  Fe  Fe62      1.0  0.63589  0.30968  0.10826  1.0000
  S   S131      1.0  0.64872  0.31034  0.07351  1.0000
  S   S132      1.0  0.62706  0.30763  0.16871  1.0000
  S   S133      1.0  0.61919  0.26681  0.12912  1.0000
  H   H693      1.0  0.51624  0.31823  0.19103  1.0000
  C   C398      1.0  0.62943  0.31141  0.00427  1.0000
  C   C399      1.0  0.65421  0.30902  0.01076  1.0000
  C   C400      1.0  0.65964  0.30880  0.03181  1.0000
  C   C401      1.0  0.64040  0.31072  0.04697  1.0000
  C   C402      1.0  0.61559  0.31305  0.04049  1.0000
  C   C403      1.0  0.61026  0.31347  0.01942  1.0000
  H   H694      1.0  0.66931  0.30741  0.99952  1.0000
  H   H695      1.0  0.67892  0.30699  0.03638  1.0000
  H   H696      1.0  0.60041  0.31452  0.05173  1.0000
  H   H697      1.0  0.59098  0.31529  0.01484  1.0000
  C   C404      1.0  0.66419  0.22303  0.22322  1.0000
  C   C405      1.0  0.69463  0.24250  0.21656  1.0000
  C   C406      1.0  0.70201  0.26088  0.19827  1.0000
  C   C407      1.0  0.67910  0.26058  0.18677  1.0000
  C   C408      1.0  0.64867  0.24137  0.19352  1.0000
  C   C409      1.0  0.64128  0.22223  0.21142  1.0000
  H   H698      1.0  0.71247  0.24281  0.22523  1.0000
  H   H699      1.0  0.72562  0.27553  0.19307  1.0000
  H   H700      1.0  0.63081  0.24071  0.18468  1.0000
  H   H701      1.0  0.61765  0.20672  0.21601  1.0000
  C   C410      1.0  0.70326  0.42096  0.21678  1.0000
  C   C411      1.0  0.71340  0.41104  0.20025  1.0000
  C   C412      1.0  0.69566  0.39992  0.18338  1.0000
  C   C413      1.0  0.66838  0.40018  0.18243  1.0000
  C   C414      1.0  0.65860  0.41090  0.19872  1.0000
  C   C415      1.0  0.67564  0.42063  0.21607  1.0000
  H   H702      1.0  0.70362  0.39220  0.17074  1.0000
  H   H703      1.0  0.63781  0.41169  0.19791  1.0000
  H   H704      1.0  0.66776  0.42856  0.22863  1.0000
  H   H705      1.0  0.64199  0.30180  0.21576  1.0000
  H   H706      1.0  0.67503  0.26230  0.07385  1.0000
  C   C416      1.0  0.71441  0.34045  0.20790  1.0000
  H   H707      1.0  0.72910  0.30367  0.23020  1.0000
  S   S134      1.0  0.73218  0.45449  0.29483  1.0000
  C   C417      1.0  0.70663  0.28428  0.11019  1.0000
  C   C418      1.0  0.72992  0.33064  0.30986  1.0000
  C   C419      1.0  0.69629  0.21277  0.08455  1.0000
  H   H708      1.0  0.57349  0.31712  0.30624  1.0000
  Fe  Fe63      1.0  0.71348  0.20050  0.30912  1.0000
  C   C420      1.0  0.52425  0.21976  0.22773  1.0000
  N   N30       1.0  0.68922  0.32516  0.24463  1.0000
  C   C421      1.0  0.50856  0.23440  0.19680  1.0000
  C   C422      1.0  0.53662  0.24285  0.18655  1.0000
  C   C423      1.0  0.55873  0.24027  0.19710  1.0000
  C   C424      1.0  0.55237  0.22833  0.21750  1.0000
  C   C425      1.0  0.55604  0.34504  0.17119  1.0000
  H   H709      1.0  0.58026  0.24631  0.18928  1.0000
  H   H710      1.0  0.56918  0.22535  0.22519  1.0000
  H   H711      1.0  0.62236  0.26461  0.22806  1.0000
  H   H712      1.0  0.67956  0.34857  0.22012  1.0000
  H   H713      1.0  0.73018  0.25093  0.09991  1.0000
  Fe  Fe64      1.0  0.71375  0.48602  0.29994  1.0000
  H   H714      1.0  0.73730  0.34465  0.21136  1.0000
  C   C426      1.0  0.67311  0.23139  0.12194  1.0000
  H   H715      1.0  0.74843  0.30949  0.25317  1.0000
  H   H716      1.0  0.54356  0.41870  0.28130  1.0000
  S   S135      1.0  0.74789  0.31154  0.30021  1.0000
  H   H717      1.0  0.66241  0.38083  0.02025  1.0000
  C   C427      1.0  0.51914  0.34348  0.27848  1.0000
  C   C428      1.0  0.54725  0.34463  0.27876  1.0000
  C   C429      1.0  0.57416  0.37266  0.28005  1.0000
  C   C430      1.0  0.57275  0.39936  0.28136  1.0000
  C   C431      1.0  0.54473  0.39810  0.28052  1.0000
  C   C432      1.0  0.51810  0.37034  0.27894  1.0000
  H   H718      1.0  0.54823  0.32405  0.27787  1.0000
  H   H719      1.0  0.59583  0.37362  0.28019  1.0000
  Fe  Fe65      1.0  0.71645  0.26111  0.30195  1.0000
  C   C433      1.0  0.69445  0.22729  0.13622  1.0000
  C   C434      1.0  0.55979  0.36113  0.21604  1.0000
  C   C435      1.0  0.58599  0.33392  0.20623  1.0000
  Fe  Fe66      1.0  0.70563  0.44178  0.26662  1.0000
  C   C436      1.0  0.72630  0.30374  0.24693  1.0000
  H   H720      1.0  0.64046  0.20384  0.08232  1.0000
  H   H721      1.0  0.53701  0.30007  0.18567  1.0000
  C   C437      1.0  0.71712  0.32695  0.25353  1.0000
  H   H722      1.0  0.61412  0.34226  0.30290  1.0000
  C   C438      1.0  0.68669  0.39330  0.01461  1.0000
  H   H723      1.0  0.59580  0.13931  0.31418  1.0000
  H   H724      1.0  0.54482  0.31447  0.24149  1.0000
  C   C439      1.0  0.50252  0.22329  0.21740  1.0000
  Fe  Fe67      1.0  0.49220  0.21536  0.27633  1.0000
  H   H725      1.0  0.51453  0.35295  0.20674  1.0000
  H   H726      1.0  0.54104  0.33763  0.15823  1.0000
  N   N31       1.0  0.55510  0.33104  0.20961  1.0000
  C   C440      1.0  0.63717  0.28897  0.23076  1.0000
  H   H727      1.0  0.65640  0.26721  0.09532  1.0000
  H   H728      1.0  0.63535  0.29716  0.27561  1.0000
  H   H729      1.0  0.58377  0.31294  0.19990  1.0000
  H   H730      1.0  0.83290  0.28637  0.30471  1.0000
  H   H731      1.0  0.70628  0.21665  0.12865  1.0000
  C   C441      1.0  0.69900  0.34696  0.22598  1.0000
  C   C442      1.0  0.66643  0.29320  0.23988  1.0000
  C   C443      1.0  0.57983  0.13305  0.30180  1.0000
  H   H732      1.0  0.59836  0.30203  0.30450  1.0000
  H   H733      1.0  0.56909  0.36564  0.23139  1.0000
  H   H734      1.0  0.62694  0.34202  0.22044  1.0000
  H   H735      1.0  0.62405  0.29532  0.24121  1.0000
  H   H736      1.0  0.76050  0.37264  0.29255  1.0000
  H   H737      1.0  0.68115  0.36626  0.98908  1.0000
  H   H738      1.0  0.70025  0.31734  0.20280  1.0000
  H   H739      1.0  0.49127  0.23612  0.18868  1.0000
  N   N32       1.0  0.56655  0.15773  0.27184  1.0000
  C   C444      1.0  0.56819  0.13621  0.25734  1.0000
  C   C445      1.0  0.58803  0.16189  0.28823  1.0000
  C   C446      1.0  0.57704  0.18756  0.25983  1.0000
  C   C447      1.0  0.53394  0.14403  0.28006  1.0000
  C   C448      1.0  0.55165  0.13239  0.23745  1.0000
  H   H740      1.0  0.70596  0.31137  0.08305  1.0000
  C   C449      1.0  0.58657  0.21593  0.27188  1.0000
  C   C450      1.0  0.52743  0.15837  0.29842  1.0000
  H   H741      1.0  0.59233  0.14359  0.25268  1.0000
  H   H742      1.0  0.55848  0.11299  0.26486  1.0000
  H   H743      1.0  0.59040  0.17938  0.29862  1.0000
  H   H744      1.0  0.61146  0.17092  0.28128  1.0000
  H   H745      1.0  0.59708  0.19327  0.24943  1.0000
  H   H746      1.0  0.55931  0.18566  0.24969  1.0000
  H   H747      1.0  0.51965  0.14498  0.26792  1.0000
  H   H748      1.0  0.52354  0.11925  0.28418  1.0000
  H   H749      1.0  0.52726  0.12491  0.24039  1.0000
  H   H750      1.0  0.56279  0.15353  0.22726  1.0000
  H   H751      1.0  0.58249  0.11616  0.29319  1.0000
  H   H752      1.0  0.54572  0.16802  0.30910  1.0000
  H   H753      1.0  0.67863  0.19522  0.09546  1.0000
  H   H754      1.0  0.56973  0.21266  0.28417  1.0000
  H   H755      1.0  0.58911  0.23476  0.26131  1.0000
  H   H756      1.0  0.60902  0.22361  0.27811  1.0000
  H   H757      1.0  0.55664  0.12257  0.30927  1.0000
  Fe  Fe68      1.0  0.68824  0.41836  0.31069  1.0000
  H   H758      1.0  0.62073  0.21376  0.10133  1.0000
  H   H759      1.0  0.69773  0.38244  0.02306  1.0000
  H   H760      1.0  0.69750  0.41717  0.01879  1.0000
  H   H761      1.0  0.68060  0.21185  0.14962  1.0000
  H   H762      1.0  0.65981  0.23918  0.13117  1.0000
  C   C451      1.0  0.53171  0.36517  0.21779  1.0000
  H   H763      1.0  0.71457  0.20687  0.08354  1.0000
  H   H764      1.0  0.53905  0.38953  0.21444  1.0000
  H   H765      1.0  0.72496  0.28635  0.11987  1.0000
  N   N33       1.0  0.68829  0.25255  0.10310  1.0000
  C   C452      1.0  0.66481  0.25238  0.08951  1.0000
  H   H766      1.0  0.67054  0.30506  0.28606  1.0000
  H   H767      1.0  0.54216  0.28708  0.22455  1.0000
  H   H768      1.0  0.57719  0.34538  0.16590  1.0000
  C   C453      1.0  0.60485  0.34009  0.22518  1.0000
  H   H769      1.0  0.71918  0.26041  0.07712  1.0000
  H   H770      1.0  0.59353  0.32134  0.23725  1.0000
  H   H771      1.0  0.73502  0.41179  0.20052  1.0000
  C   C454      1.0  0.72232  0.31032  0.09329  1.0000
  H   H772      1.0  0.69193  0.28977  0.11998  1.0000
  C   C455      1.0  0.65821  0.31555  0.27908  1.0000
  H   H773      1.0  0.57778  0.38048  0.20606  1.0000
  S   S136      1.0  0.72572  0.43351  0.23802  1.0000
  H   H774      1.0  0.60054  0.35281  0.19471  1.0000
  C   C456      1.0  0.53744  0.30609  0.22619  1.0000
  H   H775      1.0  0.65921  0.34273  0.25279  1.0000
  H   H776      1.0  0.73735  0.35012  0.25062  1.0000
  H   H777      1.0  0.69345  0.35892  0.26531  1.0000
  H   H778      1.0  0.65984  0.27744  0.25377  1.0000
  H   H779      1.0  0.61041  0.36200  0.23150  1.0000
  H   H780      1.0  0.52075  0.35839  0.23350  1.0000
  H   H781      1.0  0.56108  0.36832  0.17416  1.0000
  C   C457      1.0  0.53974  0.32226  0.18980  1.0000
  H   H782      1.0  0.65491  0.32888  0.29084  1.0000
  H   H783      1.0  0.67640  0.28430  0.22882  1.0000
  C   C458      1.0  0.70966  0.24538  0.09139  1.0000
  H   H784      1.0  0.49650  0.36964  0.27845  1.0000
  C   C459      1.0  0.80778  0.27347  0.30471  1.0000
  H   H785      1.0  0.55287  0.11465  0.22886  1.0000
  H   H786      1.0  0.71588  0.40120  0.98805  1.0000
  H   H787      1.0  0.60972  0.22884  0.31405  1.0000
  C   C460      1.0  0.69098  0.39085  0.99149  1.0000
  C   C461      1.0  0.72573  0.37612  0.30987  1.0000
  H   H788      1.0  0.73412  0.39946  0.30454  1.0000
  H   H789      1.0  0.49447  0.30741  0.22914  1.0000
  C   C462      1.0  0.50250  0.29106  0.22733  1.0000
  H   H790      1.0  0.52216  0.17610  0.29313  1.0000
  H   H791      1.0  0.57213  0.24667  0.31524  1.0000
  H   H792      1.0  0.80164  0.27920  0.28976  1.0000
  C   C463      1.0  0.74076  0.36097  0.30318  1.0000
  H   H793      1.0  0.50732  0.14053  0.30779  1.0000
  H   H794      1.0  0.49310  0.27474  0.24097  1.0000
  H   H795      1.0  0.69374  0.44554  0.99375  1.0000
  H   H796      1.0  0.63440  0.36939  0.99157  1.0000
  S   S137      1.0  0.48484  0.30923  0.27705  1.0000
  H   H797      1.0  0.64384  0.40641  0.99769  1.0000
  S   S138      1.0  0.74322  0.18017  0.31733  1.0000
  H   H798      1.0  0.79685  0.30506  0.31749  1.0000
  H   H799      1.0  0.79981  0.48468  0.27525  1.0000
  Fe  Fe69      1.0  0.48222  0.26597  0.28884  1.0000
  C   C464      1.0  0.64503  0.39320  0.98495  1.0000
  Fe  Fe70      1.0  0.80714  0.10231  0.45736  1.0000
  S   S139      1.0  0.84245  0.09671  0.43973  1.0000
  S   S140      1.0  0.79808  0.08394  0.49039  1.0000
  Fe  Fe71      1.0  0.79057  0.12631  0.41900  1.0000
  S   S141      1.0  0.82493  0.12266  0.39887  1.0000
  S   S142      1.0  0.75783  0.14147  0.40806  1.0000
  Fe  Fe72      1.0  0.80797  0.07745  0.41622  1.0000
  S   S143      1.0  0.80112  0.03570  0.40089  1.0000
  Fe  Fe73      1.0  0.85621  0.14219  0.42435  1.0000
  S   S144      1.0  0.90469  0.18106  0.41819  1.0000
  S   S145      1.0  0.77159  0.07967  0.43486  1.0000
  S   S146      1.0  0.82300  0.14933  0.44354  1.0000
  Fe  Fe74      1.0  0.83757  0.15579  0.59358  1.0000
  S   S147      1.0  0.87276  0.14362  0.60150  1.0000
  S   S148      1.0  0.83314  0.17266  0.56214  1.0000
  Fe  Fe75      1.0  0.88143  0.17286  0.62790  1.0000
  C   C465      1.0  0.59426  0.20398  0.34334  1.0000
  Fe  Fe76      1.0  0.83545  0.10660  0.62258  1.0000
  H   H800      1.0  0.88165  0.10855  0.50347  1.0000
  S   S149      1.0  0.84882  0.18807  0.61826  1.0000
  S   S150      1.0  0.79973  0.11694  0.61265  1.0000
  C   C466      1.0  0.80589  0.10828  0.51042  1.0000
  C   C467      1.0  0.81086  0.13776  0.50697  1.0000
  C   C468      1.0  0.81833  0.15704  0.52313  1.0000
  C   C469      1.0  0.82121  0.14708  0.54272  1.0000
  C   C470      1.0  0.81570  0.11744  0.54625  1.0000
  C   C471      1.0  0.80791  0.09806  0.53015  1.0000
  H   H801      1.0  0.80903  0.14571  0.49185  1.0000
  H   H802      1.0  0.82242  0.17992  0.52035  1.0000
  H   H803      1.0  0.81785  0.10955  0.56132  1.0000
  H   H804      1.0  0.80398  0.07524  0.53293  1.0000
  H   H805      1.0  0.69569  0.29206  0.32865  1.0000
  H   H806      1.0  0.76750  0.26696  0.32088  1.0000
  Fe  Fe77      1.0  0.50205  0.23497  0.31959  1.0000
  H   H807      1.0  0.74192  0.01868  0.42039  1.0000
  H   H808      1.0  0.61349  0.32611  0.39240  1.0000
  H   H809      1.0  0.72222  0.07524  0.41091  1.0000
  H   H810      1.0  0.69676  0.08080  0.33544  1.0000
  C   C472      1.0  0.95803  0.15404  0.44636  1.0000
  H   H811      1.0  0.89728  0.22883  0.46756  1.0000
  C   C473      1.0  0.93616  0.17975  0.42754  1.0000
  C   C474      1.0  0.93282  0.15364  0.43794  1.0000
  N   N34       1.0  0.80108  0.27938  0.34327  1.0000
  H   H812      1.0  0.91078  0.13324  0.43968  1.0000
  H   H813      1.0  0.80347  0.06050  0.35067  1.0000
  C   C475      1.0  0.74594  0.16796  0.34249  1.0000
  C   C476      1.0  0.76769  0.15919  0.34610  1.0000
  C   C477      1.0  0.77152  0.15076  0.36603  1.0000
  C   C478      1.0  0.75345  0.15086  0.38256  1.0000
  C   C479      1.0  0.73143  0.15921  0.37888  1.0000
  C   C480      1.0  0.72772  0.16778  0.35899  1.0000
  H   H814      1.0  0.70817  0.11524  0.57160  1.0000
  H   H815      1.0  0.78876  0.14471  0.36864  1.0000
  H   H816      1.0  0.71732  0.15934  0.39154  1.0000
  H   H817      1.0  0.71085  0.17441  0.35646  1.0000
  H   H818      1.0  0.96042  0.06484  0.38387  1.0000
  H   H819      1.0  0.88333  0.19155  0.45951  1.0000
  H   H820      1.0  0.60154  0.41320  0.33286  1.0000
  H   H821      1.0  0.61020  0.30559  0.37045  1.0000
  C   C481      1.0  0.97372  0.09008  0.38309  1.0000
  C   C482      1.0  0.79234  0.28184  0.32185  1.0000
  H   H822      1.0  0.75560  0.02387  0.36824  1.0000
  C   C483      1.0  0.76816  0.00023  0.40737  1.0000
  H   H823      1.0  0.54424  0.33862  0.32180  1.0000
  S   S151      1.0  0.82945  0.05963  0.61972  1.0000
  H   H824      1.0  0.67935  0.11366  0.61270  1.0000
  H   H825      1.0  0.96790  0.22603  0.41673  1.0000
  Fe  Fe78      1.0  0.81338  0.14859  0.63823  1.0000
  H   H826      1.0  0.74903  0.09003  0.34624  1.0000
  S   S152      1.0  0.52783  0.23956  0.34742  1.0000
  C   C484      1.0  0.69626  0.10603  0.61358  1.0000
  H   H827      1.0  0.87216  0.18901  0.49651  1.0000
  H   H828      1.0  0.77357  0.19366  0.61918  1.0000
  H   H829      1.0  0.96712  0.15175  0.39956  1.0000
  N   N35       1.0  0.58997  0.34029  0.34549  1.0000
  C   C485      1.0  0.60596  0.34660  0.36516  1.0000
  C   C486      1.0  0.60141  0.37047  0.33369  1.0000
  H   H830      1.0  0.90544  0.17762  0.54935  1.0000
  C   C487      1.0  0.55620  0.32427  0.35091  1.0000
  C   C488      1.0  0.60099  0.31842  0.37834  1.0000
  C   C489      1.0  0.59396  0.39303  0.34372  1.0000
  C   C490      1.0  0.73873  0.06312  0.38387  1.0000
  H   H831      1.0  0.63100  0.36146  0.36205  1.0000
  H   H832      1.0  0.59881  0.35932  0.37516  1.0000
  H   H833      1.0  0.87207  0.34660  0.34124  1.0000
  H   H834      1.0  0.56920  0.38327  0.34705  1.0000
  H   H835      1.0  0.75129  0.05469  0.39310  1.0000
  C   C491      1.0  0.75489  0.04087  0.35732  1.0000
  C   C492      1.0  0.59392  0.22257  0.32714  1.0000
  H   H836      1.0  0.55041  0.33559  0.36298  1.0000
  C   C493      1.0  0.70426  0.31556  0.32350  1.0000
  H   H837      1.0  0.79478  0.07995  0.36911  1.0000
  H   H838      1.0  0.75234  0.29683  0.34173  1.0000
  H   H839      1.0  0.94755  0.19265  0.58477  1.0000
  C   C494      1.0  0.96068  0.21028  0.63886  1.0000
  H   H840      1.0  0.70423  0.00256  0.37978  1.0000
  H   H841      1.0  0.76060  0.26420  0.36360  1.0000
  C   C495      1.0  0.55430  0.20801  0.36172  1.0000
  C   C496      1.0  0.74199  0.99835  0.41652  1.0000
  H   H842      1.0  0.84821  0.29245  0.33661  1.0000
  C   C497      1.0  0.72784  0.06747  0.34774  1.0000
  C   C498      1.0  0.88763  0.11779  0.48738  1.0000
  H   H843      1.0  0.78990  0.08516  0.34233  1.0000
  H   H844      1.0  0.94272  0.18690  0.47421  1.0000
  C   C499      1.0  0.79332  0.02685  0.62463  1.0000
  H   H845      1.0  0.75469  0.01429  0.46777  1.0000
  C   C500      1.0  0.57429  0.19665  0.36054  1.0000
  H   H846      1.0  0.70890  0.09442  0.36017  1.0000
  C   C501      1.0  0.68982  0.33107  0.33072  1.0000
  H   H847      1.0  0.69269  0.09469  0.62906  1.0000
  C   C502      1.0  0.72857  0.18659  0.56762  1.0000
  H   H848      1.0  0.58470  0.29621  0.33989  1.0000
  H   H849      1.0  0.84026  0.29951  0.36156  1.0000
  S   S153      1.0  0.70563  0.22999  0.33002  1.0000
  H   H850      1.0  0.69160  0.08855  0.60257  1.0000
  C   C503      1.0  0.89591  0.16289  0.51851  1.0000
  H   H851      1.0  0.76270  0.31416  0.36528  1.0000
  H   H852      1.0  0.98037  0.09756  0.36675  1.0000
  C   C504      1.0  0.59842  0.32031  0.33379  1.0000
  H   H853      1.0  0.83694  0.34419  0.34866  1.0000
  N   N36       1.0  0.73007  0.04725  0.36420  1.0000
  H   H854      1.0  0.95081  0.21069  0.49480  1.0000
  C   C505      1.0  0.78739  0.06853  0.35476  1.0000
  S   S154      1.0  0.61820  0.18830  0.34251  1.0000
  H   H855      1.0  0.80082  0.00287  0.60096  1.0000
  H   H856      1.0  0.48374  0.12404  0.37113  1.0000
  H   H857      1.0  0.74444  0.12378  0.61480  1.0000
  H   H858      1.0  0.87056  0.09976  0.47838  1.0000
  N   N37       1.0  0.73890  0.15051  0.59045  1.0000
  C   C506      1.0  0.72922  0.13287  0.61095  1.0000
  C   C507      1.0  0.77257  0.17293  0.59008  1.0000
  C   C508      1.0  0.73299  0.12990  0.57328  1.0000
  H   H859      1.0  0.93975  0.14671  0.50601  1.0000
  C   C509      1.0  0.79406  0.24710  0.34773  1.0000
  C   C510      1.0  0.78201  0.20053  0.60299  1.0000
  H   H860      1.0  0.78753  0.02089  0.45285  1.0000
  H   H861      1.0  0.89222  0.15358  0.46693  1.0000
  H   H862      1.0  0.68599  0.01072  0.33637  1.0000
  S   S155      1.0  0.68189  0.38034  0.33266  1.0000
  H   H863      1.0  0.78253  0.18175  0.57426  1.0000
  H   H864      1.0  0.78507  0.16160  0.59565  1.0000
  H   H865      1.0  0.78202  0.15942  0.33345  1.0000
  H   H866      1.0  0.52964  0.29815  0.32597  1.0000
  C   C511      1.0  0.70119  0.01692  0.36783  1.0000
  H   H867      1.0  0.69932  0.03643  0.40580  1.0000
  H   H868      1.0  0.54824  0.30121  0.35816  1.0000
  H   H869      1.0  0.91002  0.12115  0.48193  1.0000
  C   C512      1.0  0.57278  0.23277  0.32789  1.0000
  H   H870      1.0  0.68034  0.05530  0.35705  1.0000
  H   H871      1.0  0.77200  0.12254  0.57506  1.0000
  H   H872      1.0  0.69723  0.06608  0.39091  1.0000
  H   H873      1.0  0.62651  0.38204  0.33069  1.0000
  H   H874      1.0  0.68196  0.01920  0.37405  1.0000
  C   C513      1.0  0.90060  0.20885  0.46877  1.0000
  C   C514      1.0  0.95420  0.17121  0.50176  1.0000
  H   H875      1.0  0.73155  0.14805  0.62330  1.0000
  H   H876      1.0  0.74217  0.14350  0.55841  1.0000
  H   H877      1.0  0.57674  0.30294  0.38327  1.0000
  C   C515      1.0  0.77154  0.30793  0.35173  1.0000
  H   H878      1.0  0.84428  0.00484  0.63494  1.0000
  H   H879      1.0  0.60636  0.40145  0.35770  1.0000
  H   H880      1.0  0.78496  0.24222  0.38140  1.0000
  H   H881      1.0  0.70494  0.98975  0.34367  1.0000
  H   H882      1.0  0.71396  0.17332  0.55543  1.0000
  C   C516      1.0  0.70045  0.36133  0.32382  1.0000
  C   C517      1.0  0.70202  0.07477  0.35061  1.0000
  H   H883      1.0  0.78795  0.01894  0.47994  1.0000
  H   H884      1.0  0.75258  0.19697  0.56183  1.0000
  H   H885      1.0  0.67024  0.31949  0.34149  1.0000
  H   H886      1.0  0.92367  0.21622  0.46194  1.0000
  H   H887      1.0  0.82343  0.25200  0.37312  1.0000
  H   H888      1.0  0.72216  0.17995  0.60083  1.0000
  H   H889      1.0  0.72484  0.20592  0.57034  1.0000
  C   C518      1.0  0.84729  0.33402  0.33902  1.0000
  C   C519      1.0  0.77323  0.00896  0.46708  1.0000
  C   C520      1.0  0.53519  0.31934  0.33338  1.0000
  C   C521      1.0  0.72088  0.16639  0.58763  1.0000
  C   C522      1.0  0.55314  0.22566  0.34531  1.0000
  H   H890      1.0  0.69621  0.14953  0.58759  1.0000
  H   H891      1.0  0.79426  0.29362  0.37285  1.0000
  C   C523      1.0  0.78218  0.28554  0.35863  1.0000
  H   H892      1.0  0.87081  0.15082  0.52123  1.0000
  H   H893      1.0  0.57462  0.18249  0.37316  1.0000
  H   H894      1.0  0.78957  0.32923  0.34372  1.0000
  C   C524      1.0  0.79919  0.23915  0.36965  1.0000
  H   H895      1.0  0.86145  0.14014  0.48541  1.0000
  H   H896      1.0  0.80724  0.21382  0.60271  1.0000
  H   H897      1.0  0.77445  0.21601  0.59665  1.0000
  H   H898      1.0  0.79259  0.21481  0.37107  1.0000
  C   C525      1.0  0.71258  0.05979  0.39842  1.0000
  C   C526      1.0  0.77349  0.02474  0.64073  1.0000
  H   H899      1.0  0.89721  0.20136  0.53347  1.0000
  H   H900      1.0  0.76993  0.23094  0.34482  1.0000
  C   C527      1.0  0.90923  0.18816  0.53358  1.0000
  H   H901      1.0  0.95518  0.13392  0.45472  1.0000
  H   H902      1.0  0.73756  0.09275  0.58839  1.0000
  H   H903      1.0  0.75052  0.03068  0.34230  1.0000
  H   H904      1.0  0.74187  0.09574  0.56116  1.0000
  S   S156      1.0  0.92827  0.21260  0.63290  1.0000
  H   H905      1.0  0.97316  0.17370  0.49138  1.0000
  C   C528      1.0  0.88589  0.14689  0.48344  1.0000
  C   C529      1.0  0.96513  0.20581  0.42490  1.0000
  H   H906      1.0  0.91009  0.21784  0.49986  1.0000
  H   H907      1.0  0.93398  0.20367  0.53041  1.0000
  C   C530      1.0  0.89631  0.19728  0.49142  1.0000
  C   C531      1.0  0.74683  0.99689  0.64617  1.0000
  C   C532      1.0  0.68965  0.99806  0.34903  1.0000
  H   H908      1.0  0.80803  0.24136  0.33744  1.0000
  H   H909      1.0  0.53950  0.20282  0.37532  1.0000
  N   N38       1.0  0.90466  0.17315  0.49621  1.0000
  H   H910      1.0  0.90218  0.14585  0.52354  1.0000
  H   H911      1.0  0.72687  0.05877  0.33236  1.0000
  C   C533      1.0  0.74697  0.10916  0.57485  1.0000
  H   H912      1.0  0.75482  0.08792  0.38076  1.0000
  H   H913      1.0  0.93802  0.16150  0.64279  1.0000
  C   C534      1.0  0.93825  0.18649  0.49094  1.0000
  C   C535      1.0  0.78562  0.00131  0.61348  1.0000
  C   C536      1.0  0.83458  0.30021  0.34543  1.0000
  H   H914      1.0  0.51361  0.31729  0.33962  1.0000
  H   H915      1.0  0.95799  0.09749  0.38910  1.0000
  H   H916      1.0  0.62251  0.32673  0.33583  1.0000
  H   H917      1.0  0.84477  0.33784  0.32265  1.0000
  C   C537      1.0  0.95949  0.18250  0.64291  1.0000
  H   H918      1.0  0.74780  0.98998  0.50327  1.0000
  H   H919      1.0  0.97365  0.22921  0.57315  1.0000
  H   H920      1.0  0.96510  0.18334  0.51539  1.0000
  H   H921      1.0  0.96671  0.19496  0.56097  1.0000
  H   H922      1.0  0.48476  0.16592  0.36080  1.0000
  S   S157      1.0  0.84659  0.13512  0.64994  1.0000
  H   H923      1.0  0.77935  0.04423  0.64951  1.0000
  Fe  Fe79      1.0  0.65815  0.20689  0.31954  1.0000
  C   C538      1.0  0.96959  0.20577  0.57560  1.0000
  S   S158      1.0  0.67178  0.45067  0.31820  1.0000
  H   H924      1.0  0.59257  0.36783  0.31835  1.0000
  Fe  Fe80      1.0  0.67087  0.21410  0.75325  1.0000
  S   S159      1.0  0.70292  0.21008  0.77428  1.0000
  S   S160      1.0  0.61996  0.18464  0.75726  1.0000
  Fe  Fe81      1.0  0.72042  0.27320  0.73189  1.0000
  S   S161      1.0  0.75602  0.27408  0.75121  1.0000
  S   S162      1.0  0.72853  0.31108  0.70915  1.0000
  Fe  Fe82      1.0  0.73443  0.22438  0.74564  1.0000
  S   S163      1.0  0.76786  0.20858  0.73701  1.0000
  Fe  Fe83      1.0  0.72145  0.26000  0.77769  1.0000
  S   S164      1.0  0.73196  0.28944  0.80468  1.0000
  S   S165      1.0  0.70063  0.22449  0.72453  1.0000
  S   S166      1.0  0.68760  0.26273  0.75837  1.0000
  Fe  Fe84      1.0  0.69392  0.44645  0.72778  1.0000
  C   C539      1.0  0.75367  0.26744  0.67792  1.0000
  S   S167      1.0  0.65909  0.41741  0.70632  1.0000
  Fe  Fe85      1.0  0.75053  0.45541  0.74767  1.0000
  H   H925      1.0  0.72548  0.43055  0.94511  1.0000
  S   S168      1.0  0.78051  0.43509  0.75188  1.0000
  Fe  Fe86      1.0  0.70138  0.45923  0.77281  1.0000
  S   S169      1.0  0.66940  0.43914  0.80129  1.0000
  C   C540      1.0  0.53214  0.25449  0.82545  1.0000
  S   S170      1.0  0.70113  0.42312  0.75456  1.0000
  H   H926      1.0  0.55501  0.33478  0.78386  1.0000
  H   H927      1.0  0.63991  0.22839  0.72245  1.0000
  H   H928      1.0  0.70188  0.33145  0.76613  1.0000
  C   C541      1.0  0.61612  0.26814  0.77140  1.0000
  Fe  Fe87      1.0  0.64809  0.28857  0.90471  1.0000
  S   S171      1.0  0.60447  0.27286  0.92394  1.0000
  S   S172      1.0  0.66136  0.25554  0.89215  1.0000
  Fe  Fe88      1.0  0.66375  0.35431  0.90239  1.0000
  S   S173      1.0  0.62187  0.34399  0.92155  1.0000
  S   S174      1.0  0.69741  0.40126  0.88780  1.0000
  Fe  Fe89      1.0  0.63178  0.31363  0.94238  1.0000
  Fe  Fe90      1.0  0.59797  0.30424  0.90218  1.0000
  S   S175      1.0  0.55424  0.29479  0.88799  1.0000
  S   S176      1.0  0.67610  0.32732  0.92428  1.0000
  S   S177      1.0  0.63921  0.31663  0.88200  1.0000
  H   H929      1.0  0.66485  0.30329  0.74202  1.0000
  H   H930      1.0  0.58526  0.37927  0.86964  1.0000
  C   C542      1.0  0.54089  0.16218  0.81444  1.0000
  C   C543      1.0  0.57257  0.19084  0.81106  1.0000
  H   H931      1.0  0.58110  0.15551  0.84474  1.0000
  H   H932      1.0  0.79052  0.44595  0.84492  1.0000
  H   H933      1.0  0.62148  0.29791  0.71934  1.0000
  H   H934      1.0  0.79468  0.35840  0.79078  1.0000
  C   C544      1.0  0.56841  0.27798  0.85148  1.0000
  C   C545      1.0  0.57560  0.36495  0.85658  1.0000
  H   H935      1.0  0.55249  0.30306  0.79785  1.0000
  H   H936      1.0  0.59062  0.28537  0.85692  1.0000
  H   H937      1.0  0.59425  0.24680  0.77018  1.0000
  C   C546      1.0  0.67972  0.42775  0.82403  1.0000
  C   C547      1.0  0.65931  0.39939  0.83395  1.0000
  C   C548      1.0  0.66457  0.39110  0.85338  1.0000
  C   C549      1.0  0.69060  0.41094  0.86308  1.0000
  C   C550      1.0  0.71156  0.43903  0.85291  1.0000
  C   C551      1.0  0.70620  0.44740  0.83342  1.0000
  H   H938      1.0  0.63908  0.38386  0.82669  1.0000
  H   H939      1.0  0.64803  0.36966  0.86104  1.0000
  H   H940      1.0  0.73172  0.45459  0.86029  1.0000
  H   H941      1.0  0.50074  0.27234  0.86538  1.0000
  C   C552      1.0  0.62162  0.39926  0.71723  1.0000
  C   C553      1.0  0.61255  0.41344  0.73140  1.0000
  H   H942      1.0  0.60809  0.23954  0.86358  1.0000
  H   H943      1.0  0.51222  0.32176  0.83868  1.0000
  C   C554      1.0  0.57150  0.35407  0.72181  1.0000
  C   C555      1.0  0.60076  0.36992  0.71201  1.0000
  H   H944      1.0  0.62837  0.43622  0.73531  1.0000
  H   H945      1.0  0.59834  0.28683  0.74972  1.0000
  H   H946      1.0  0.55589  0.33103  0.71819  1.0000
  H   H947      1.0  0.60756  0.35894  0.70093  1.0000
  C   C556      1.0  0.76914  0.19280  0.71367  1.0000
  C   C557      1.0  0.74588  0.18372  0.70021  1.0000
  C   C558      1.0  0.74793  0.17156  0.68173  1.0000
  C   C559      1.0  0.77328  0.16851  0.67642  1.0000
  C   C560      1.0  0.79663  0.17778  0.68980  1.0000
  C   C561      1.0  0.79446  0.18971  0.70837  1.0000
  H   H948      1.0  0.72618  0.18576  0.70414  1.0000
  H   H949      1.0  0.73219  0.99517  0.65911  1.0000
  H   H950      1.0  0.81619  0.17544  0.68596  1.0000
  H   H951      1.0  0.81250  0.19653  0.71873  1.0000
  C   C562      1.0  0.70974  0.27794  0.82809  1.0000
  C   C563      1.0  0.70361  0.29881  0.83730  1.0000
  C   C564      1.0  0.68889  0.29213  0.85684  1.0000
  C   C565      1.0  0.67977  0.26425  0.86742  1.0000
  C   C566      1.0  0.68531  0.24295  0.85808  1.0000
  C   C567      1.0  0.70018  0.24972  0.83843  1.0000
  H   H952      1.0  0.71046  0.32038  0.82937  1.0000
  H   H953      1.0  0.68529  0.30890  0.86390  1.0000
  H   H954      1.0  0.67846  0.22135  0.86619  1.0000
  H   H955      1.0  0.70511  0.23355  0.83160  1.0000
  C   C568      1.0  0.74385  0.34599  0.72049  1.0000
  C   C569      1.0  0.73575  0.36747  0.71414  1.0000
  C   C570      1.0  0.74666  0.39475  0.72388  1.0000
  C   C571      1.0  0.76696  0.40129  0.73928  1.0000
  C   C572      1.0  0.77613  0.38040  0.74495  1.0000
  C   C573      1.0  0.76401  0.35250  0.73596  1.0000
  H   H956      1.0  0.72032  0.36265  0.70209  1.0000
  H   H957      1.0  0.73969  0.41088  0.71925  1.0000
  H   H958      1.0  0.79246  0.38566  0.75640  1.0000
  H   H959      1.0  0.77081  0.33633  0.74071  1.0000
  C   C574      1.0  0.60165  0.20080  0.74377  1.0000
  C   C575      1.0  0.57170  0.19268  0.74977  1.0000
  C   C576      1.0  0.55739  0.20660  0.73978  1.0000
  C   C577      1.0  0.57251  0.22781  0.72321  1.0000
  C   C578      1.0  0.60205  0.23506  0.71674  1.0000
  C   C579      1.0  0.61686  0.22214  0.72728  1.0000
  H   H960      1.0  0.55977  0.17606  0.76242  1.0000
  H   H961      1.0  0.53455  0.20058  0.74481  1.0000
  C   C580      1.0  0.83213  0.31038  0.71944  1.0000
  C   C581      1.0  0.61318  0.29484  0.76271  1.0000
  H   H962      1.0  0.74759  0.35329  0.80371  1.0000
  C   C582      1.0  0.74754  0.38305  0.85807  1.0000
  H   H963      1.0  0.55480  0.17897  0.85224  1.0000
  H   H964      1.0  0.69577  0.33312  0.79275  1.0000
  C   C583      1.0  0.64514  0.31707  0.71850  1.0000
  Fe  Fe91      1.0  0.52173  0.25077  0.73090  1.0000
  H   H965      1.0  0.58633  0.13585  0.81539  1.0000
  N   N39       1.0  0.64207  0.32446  0.75710  1.0000
  C   C584      1.0  0.63299  0.34760  0.75087  1.0000
  C   C585      1.0  0.65980  0.32189  0.73920  1.0000
  C   C586      1.0  0.66183  0.33574  0.77500  1.0000
  C   C587      1.0  0.62264  0.36031  0.76845  1.0000
  C   C588      1.0  0.68394  0.32382  0.77872  1.0000
  H   H966      1.0  0.65199  0.36750  0.74190  1.0000
  H   H967      1.0  0.61402  0.33777  0.74047  1.0000
  H   H968      1.0  0.68232  0.34304  0.73685  1.0000
  H   H969      1.0  0.67688  0.36081  0.77298  1.0000
  H   H970      1.0  0.64762  0.33111  0.78943  1.0000
  H   H971      1.0  0.59900  0.29782  0.77457  1.0000
  H   H972      1.0  0.60578  0.34228  0.77941  1.0000
  H   H973      1.0  0.64208  0.37676  0.77681  1.0000
  H   H974      1.0  0.61191  0.37285  0.76205  1.0000
  H   H975      1.0  0.64569  0.33798  0.71228  1.0000
  H   H976      1.0  0.67235  0.29900  0.78140  1.0000
  H   H977      1.0  0.62115  0.27054  0.78769  1.0000
  H   H978      1.0  0.63295  0.26497  0.76246  1.0000
  C   C589      1.0  0.58284  0.39804  0.74058  1.0000
  H   H979      1.0  0.55559  0.32563  0.83040  1.0000
  C   C590      1.0  0.56129  0.26542  0.83243  1.0000
  H   H980      1.0  0.58861  0.35296  0.85436  1.0000
  C   C591      1.0  0.78925  0.42759  0.81501  1.0000
  C   C592      1.0  0.54651  0.28018  0.86360  1.0000
  C   C593      1.0  0.60656  0.15836  0.81738  1.0000
  H   H981      1.0  0.65851  0.31188  0.70729  1.0000
  H   H982      1.0  0.70939  0.39735  0.93118  1.0000
  C   C594      1.0  0.56512  0.34122  0.81651  1.0000
  H   H983      1.0  0.61374  0.25108  0.70375  1.0000
  H   H984      1.0  0.74314  0.42953  0.79470  1.0000
  H   H985      1.0  0.62014  0.18363  0.84447  1.0000
  S   S178      1.0  0.74376  0.47571  0.71871  1.0000
  H   H986      1.0  0.57151  0.40141  0.84216  1.0000
  S   S179      1.0  0.55485  0.24539  0.71042  1.0000
  C   C595      1.0  0.82612  0.28476  0.70528  1.0000
  H   H987      1.0  0.75376  0.37522  0.87218  1.0000
  H   H988      1.0  0.57632  0.21119  0.87898  1.0000
  H   H989      1.0  0.63532  0.23533  0.83739  1.0000
  C   C596      1.0  0.77674  0.27415  0.69444  1.0000
  H   H990      1.0  0.72284  0.36734  0.85682  1.0000
  S   S180      1.0  0.54128  0.28222  0.75565  1.0000
  H   H991      1.0  0.62476  0.15354  0.82165  1.0000
  C   C597      1.0  0.59252  0.21461  0.86597  1.0000
  H   H992      1.0  0.60552  0.20344  0.87066  1.0000
  H   H993      1.0  0.61444  0.17151  0.80249  1.0000
  S   S181      1.0  0.77453  0.15305  0.65293  1.0000
  H   H994      1.0  0.84757  0.33315  0.71177  1.0000
  C   C598      1.0  0.56254  0.36803  0.73621  1.0000
  C   C599      1.0  0.60011  0.17417  0.83493  1.0000
  H   H995      1.0  0.61480  0.24681  0.82167  1.0000
  C   C600      1.0  0.57470  0.20141  0.84691  1.0000
  S   S182      1.0  0.69059  0.48076  0.74614  1.0000
  Fe  Fe92      1.0  0.50409  0.24566  0.77622  1.0000
  H   H996      1.0  0.66021  0.25497  0.80339  1.0000
  H   H997      1.0  0.77625  0.29199  0.70338  1.0000
  H   H998      1.0  0.56483  0.21577  0.84238  1.0000
  H   H999      1.0  0.57816  0.26335  0.82332  1.0000
  H   H1000     1.0  0.65304  0.21762  0.80931  1.0000
  C   C601      1.0  0.62070  0.22868  0.82426  1.0000
  C   C602      1.0  0.76644  0.38191  0.83953  1.0000
  H   H1001     1.0  0.76723  0.45219  0.82717  1.0000
  N   N40       1.0  0.59228  0.19834  0.82901  1.0000
  H   H1002     1.0  0.79909  0.36477  0.81715  1.0000
  C   C603      1.0  0.64173  0.23101  0.80603  1.0000
  H   H1003     1.0  0.63016  0.22466  0.79162  1.0000
  C   C604      1.0  0.53209  0.36453  0.81871  1.0000
  H   H1004     1.0  0.73126  0.26110  0.68552  1.0000
  H   H1005     1.0  0.60083  0.43619  0.81322  1.0000
  H   H1006     1.0  0.56888  0.21012  0.80665  1.0000
  C   C605      1.0  0.58191  0.39121  0.80014  1.0000
  H   H1007     1.0  0.81178  0.42949  0.81681  1.0000
  H   H1008     1.0  0.49667  0.18630  0.71394  1.0000
  C   C606      1.0  0.62292  0.39237  0.96918  1.0000
  H   H1009     1.0  0.72195  0.46949  0.82602  1.0000
  H   H1010     1.0  0.58350  0.18796  0.79715  1.0000
  S   S183      1.0  0.52669  0.34766  0.74955  1.0000
  H   H1011     1.0  0.78863  0.23654  0.67917  1.0000
  C   C607      1.0  0.51058  0.25782  0.83711  1.0000
  H   H1012     1.0  0.83126  0.23958  0.65846  1.0000
  H   H1013     1.0  0.52222  0.35768  0.80363  1.0000
  C   C608      1.0  0.68849  0.45807  0.96355  1.0000
  H   H1014     1.0  0.57039  0.38225  0.78590  1.0000
  C   C609      1.0  0.80697  0.25943  0.67316  1.0000
  H   H1015     1.0  0.52283  0.31171  0.80171  1.0000
  H   H1016     1.0  0.53187  0.38599  0.82073  1.0000
  H   H1017     1.0  0.87009  0.32523  0.67815  1.0000
  C   C610      1.0  0.85591  0.32938  0.66760  1.0000
  C   C611      1.0  0.78811  0.45078  0.82875  1.0000
  C   C612      1.0  0.51779  0.27067  0.85612  1.0000
  H   H1018     1.0  0.52549  0.16642  0.82440  1.0000
  H   H1019     1.0  0.56612  0.42463  0.80017  1.0000
  H   H1020     1.0  0.60433  0.40007  0.83426  1.0000
  C   C613      1.0  0.82207  0.31385  0.67502  1.0000
  C   C614      1.0  0.57932  0.38551  0.83747  1.0000
  H   H1021     1.0  0.60143  0.43698  0.78616  1.0000
  S   S184      1.0  0.62233  0.31354  0.97758  1.0000
  H   H1022     1.0  0.71491  0.36806  0.82038  1.0000
  H   H1023     1.0  0.48746  0.13276  0.71378  1.0000
  S   S185      1.0  0.48606  0.21289  0.75160  1.0000
  H   H1024     1.0  0.57589  0.40907  0.75150  1.0000
  H   H1025     1.0  0.81843  0.33026  0.68372  1.0000
  H   H1026     1.0  0.61749  0.37390  0.95880  1.0000
  N   N41       1.0  0.67769  0.40482  0.97742  1.0000
  N   N42       1.0  0.80880  0.28345  0.68679  1.0000
  H   H1027     1.0  0.66801  0.40211  0.94515  1.0000
  H   H1028     1.0  0.75137  0.40608  0.86031  1.0000
  H   H1029     1.0  0.72965  0.16430  0.67155  1.0000
  H   H1030     1.0  0.62360  0.46308  0.68281  1.0000
  H   H1031     1.0  0.63138  0.41415  0.96014  1.0000
  H   H1032     1.0  0.51152  0.19352  0.68834  1.0000
  H   H1033     1.0  0.84876  0.28769  0.70115  1.0000
  C   C615      1.0  0.72746  0.40474  0.79760  1.0000
  C   C616      1.0  0.73312  0.39225  0.81772  1.0000
  Fe  Fe93      1.0  0.50817  0.29729  0.74855  1.0000
  H   H1034     1.0  0.60469  0.39318  0.79808  1.0000
  H   H1035     1.0  0.70409  0.40120  0.79873  1.0000
  H   H1036     1.0  0.75902  0.35733  0.83899  1.0000
  H   H1037     1.0  0.80757  0.47371  0.82400  1.0000
  H   H1038     1.0  0.76747  0.38666  0.78721  1.0000
  H   H1039     1.0  0.58911  0.34634  0.81474  1.0000
  N   N43       1.0  0.56411  0.37012  0.81859  1.0000
  C   C617      1.0  0.54779  0.32201  0.79891  1.0000
  H   H1040     1.0  0.84350  0.30791  0.73293  1.0000
  N   N44       1.0  0.76401  0.39510  0.81902  1.0000
  S   S186      1.0  0.52226  0.23308  0.80372  1.0000
  H   H1041     1.0  0.81406  0.26274  0.71463  1.0000
  H   H1042     1.0  0.79054  0.39279  0.84364  1.0000
  H   H1043     1.0  0.81702  0.39643  0.79797  1.0000
  C   C618      1.0  0.50928  0.34158  0.83548  1.0000
  C   C619      1.0  0.67920  0.39472  0.95634  1.0000
  H   H1044     1.0  0.72860  0.40415  0.82989  1.0000
  H   H1045     1.0  0.72869  0.39275  0.78425  1.0000
  H   H1046     1.0  0.51052  0.35276  0.84986  1.0000
  C   C620      1.0  0.76732  0.37685  0.80262  1.0000
  C   C621      1.0  0.79635  0.37430  0.80244  1.0000
  C   C622      1.0  0.63869  0.46474  0.66964  1.0000
  H   H1047     1.0  0.78999  0.43574  0.79888  1.0000
  H   H1048     1.0  0.55162  0.34815  0.86118  1.0000
  C   C623      1.0  0.58756  0.42396  0.80029  1.0000
  H   H1049     1.0  0.76707  0.25339  0.70508  1.0000
  H   H1050     1.0  0.62375  0.45336  0.65712  1.0000
  S   S187      1.0  0.49177  0.26930  0.72131  1.0000
  H   H1051     1.0  0.83949  0.24642  0.68437  1.0000
  H   H1052     1.0  0.81105  0.30941  0.72537  1.0000
  H   H1053     1.0  0.66955  0.46054  0.97026  1.0000
  H   H1054     1.0  0.71392  0.46806  0.67714  1.0000
  H   H1055     1.0  0.60106  0.38686  0.97732  1.0000
  H   H1056     1.0  0.54204  0.14237  0.82093  1.0000
  H   H1057     1.0  0.72317  0.39558  0.95534  1.0000
  H   H1058     1.0  0.48792  0.24920  0.83195  1.0000
  H   H1059     1.0  0.75012  0.24796  0.66910  1.0000
  H   H1060     1.0  0.53041  0.15624  0.79954  1.0000
  H   H1061     1.0  0.75999  0.28769  0.66755  1.0000
  H   H1062     1.0  0.68554  0.48139  0.69684  1.0000
  H   H1063     1.0  0.86565  0.35442  0.66664  1.0000
  H   H1064     1.0  0.65003  0.45157  0.67350  1.0000
  H   H1065     1.0  0.85609  0.27758  0.66489  1.0000
  C   C624      1.0  0.49359  0.17559  0.69914  1.0000
  H   H1066     1.0  0.52576  0.16088  0.70636  1.0000
  C   C625      1.0  0.83539  0.25612  0.67020  1.0000
  C   C626      1.0  0.50200  0.15046  0.70166  1.0000
  H   H1067     1.0  0.80052  0.26284  0.65767  1.0000
  H   H1068     1.0  0.70582  0.48413  0.65586  1.0000
  H   H1069     1.0  0.50161  0.23152  0.68346  1.0000
  H   H1070     1.0  0.68299  0.44921  0.94828  1.0000
  H   H1071     1.0  0.80967  0.31182  0.66104  1.0000
  H   H1072     1.0  0.70886  0.48102  0.96061  1.0000
  C   C627      1.0  0.69623  0.43883  0.97822  1.0000
  H   H1073     1.0  0.50117  0.13973  0.68720  1.0000
  H   H1074     1.0  0.84007  0.01659  0.65927  1.0000
  H   H1075     1.0  0.85965  0.99575  0.65696  1.0000
  H   H1076     1.0  0.66626  0.36948  0.95656  1.0000
  H   H1077     1.0  0.72107  0.44729  0.97612  1.0000
  H   H1078     1.0  0.48590  0.33175  0.83020  1.0000
  C   C628      1.0  0.71138  0.40544  0.94679  1.0000
  H   H1079     1.0  0.85859  0.32236  0.65224  1.0000
  C   C629      1.0  0.84033  0.99774  0.65148  1.0000
  H   H1080     1.0  0.74342  0.50826  0.23010  1.0000
  H   H1081     1.0  0.82381  0.57469  0.29891  1.0000
  H   H1082     1.0  0.85350  0.54222  0.22998  1.0000
  H   H1083     1.0  0.83832  0.59095  0.27355  1.0000
  H   H1084     1.0  0.78638  0.52555  0.28675  1.0000
  H   H1085     1.0  0.73542  0.53824  0.23271  1.0000
  C   C630      1.0  0.78624  0.50385  0.24975  1.0000
  H   H1086     1.0  0.77753  0.56606  0.25377  1.0000
  H   H1087     1.0  0.81519  0.55277  0.22325  1.0000
  C   C631      1.0  0.75418  0.53299  0.23216  1.0000
  H   H1088     1.0  0.85899  0.55612  0.25528  1.0000
  C   C632      1.0  0.77048  0.54178  0.25227  1.0000
  C   C633      1.0  0.85294  0.55925  0.23975  1.0000
  C   C634      1.0  0.82217  0.55822  0.23907  1.0000
  H   H1089     1.0  0.79994  0.58055  0.28258  1.0000
  H   H1090     1.0  0.87140  0.58220  0.23394  1.0000
  H   H1091     1.0  0.82642  0.58183  0.23990  1.0000
  N   N45       1.0  0.79700  0.53641  0.25429  1.0000
  H   H1092     1.0  0.76944  0.54612  0.21861  1.0000
  H   H1093     1.0  0.82392  0.53593  0.27934  1.0000
  Fe  Fe94      1.0  0.48853  0.72278  0.30123  1.0000
  H   H1094     1.0  0.78570  0.50125  0.23299  1.0000
  H   H1095     1.0  0.75278  0.52889  0.26484  1.0000
  H   H1096     1.0  0.82848  0.50206  0.25425  1.0000
  S   S188      1.0  0.74133  0.53639  0.30597  1.0000
  C   C635      1.0  0.81764  0.57393  0.28280  1.0000
  C   C636      1.0  0.80383  0.48892  0.25841  1.0000
  H   H1097     1.0  0.76238  0.48894  0.25600  1.0000
  C   C637      1.0  0.80597  0.54147  0.27604  1.0000
  S   S189      1.0  0.53715  0.75479  0.30973  1.0000
  H   H1098     1.0  0.77487  0.59834  0.31644  1.0000
  Fe  Fe95      1.0  0.66397  0.80874  0.44957  1.0000
  S   S190      1.0  0.70730  0.84598  0.43390  1.0000
  S   S191      1.0  0.66002  0.79048  0.48217  1.0000
  Fe  Fe96      1.0  0.62861  0.79750  0.41057  1.0000
  S   S192      1.0  0.66921  0.83450  0.39214  1.0000
  S   S193      1.0  0.58125  0.76514  0.40046  1.0000
  Fe  Fe97      1.0  0.69525  0.81509  0.40798  1.0000
  S   S194      1.0  0.73012  0.80711  0.39110  1.0000
  Fe  Fe98      1.0  0.67759  0.86189  0.41974  1.0000
  S   S195      1.0  0.68179  0.90815  0.42211  1.0000
  S   S196      1.0  0.65416  0.77672  0.42477  1.0000
  S   S197      1.0  0.63480  0.82611  0.43710  1.0000
  Fe  Fe99      1.0  0.67630  0.86006  0.58818  1.0000
  S   S198      1.0  0.72102  0.88697  0.60215  1.0000
  S   S199      1.0  0.67234  0.87281  0.55532  1.0000
  Fe  Fe100     1.0  0.69500  0.89318  0.62773  1.0000
  H   H1099     1.0  0.69017  0.60218  0.33336  1.0000
  Fe  Fe101     1.0  0.70921  0.84288  0.61936  1.0000
  S   S200      1.0  0.75115  0.83834  0.62294  1.0000
  S   S201      1.0  0.65100  0.86984  0.61262  1.0000
  S   S202      1.0  0.66581  0.81519  0.60358  1.0000
  Fe  Fe102     1.0  0.80372  0.64054  0.40317  1.0000
  S   S203      1.0  0.81378  0.68578  0.38860  1.0000
  S   S204      1.0  0.79300  0.59565  0.38976  1.0000
  Fe  Fe103     1.0  0.80524  0.66167  0.44687  1.0000
  S   S205      1.0  0.81412  0.70772  0.43565  1.0000
  S   S206      1.0  0.79817  0.64249  0.47967  1.0000
  Fe  Fe104     1.0  0.77979  0.68388  0.41249  1.0000
  S   S207      1.0  0.73721  0.68637  0.40629  1.0000
  Fe  Fe105     1.0  0.84761  0.70619  0.41290  1.0000
  S   S208      1.0  0.89397  0.74914  0.40935  1.0000
  S   S209      1.0  0.76813  0.63764  0.42577  1.0000
  S   S210      1.0  0.84041  0.66127  0.42545  1.0000
  Fe  Fe106     1.0  0.83910  0.70928  0.58752  1.0000
  S   S211      1.0  0.84216  0.74758  0.60496  1.0000
  S   S212      1.0  0.85184  0.72504  0.55397  1.0000
  Fe  Fe107     1.0  0.79859  0.71268  0.62155  1.0000
  H   H1100     1.0  0.55090  0.71044  0.49340  1.0000
  Fe  Fe108     1.0  0.86593  0.73431  0.62783  1.0000
  H   H1101     1.0  0.70002  0.94221  0.51920  1.0000
  S   S213      1.0  0.79411  0.67464  0.60295  1.0000
  S   S214      1.0  0.86582  0.69827  0.60942  1.0000
  H   H1102     1.0  0.80062  0.82659  0.62315  1.0000
  H   H1103     1.0  0.69521  0.96866  0.42724  1.0000
  S   S215      1.0  0.81030  0.61997  0.63898  1.0000
  H   H1104     1.0  0.68904  0.92525  0.48702  1.0000
  C   C638      1.0  0.92836  0.74879  0.41147  1.0000
  H   H1105     1.0  0.70293  0.93768  0.46182  1.0000
  C   C639      1.0  0.92960  0.72214  0.40974  1.0000
  H   H1106     1.0  0.95737  0.75635  0.55522  1.0000
  H   H1107     1.0  0.90923  0.70122  0.40692  1.0000
  C   C640      1.0  0.81066  0.66563  0.50050  1.0000
  C   C641      1.0  0.80745  0.65201  0.52015  1.0000
  C   C642      1.0  0.81895  0.66990  0.53690  1.0000
  C   C643      1.0  0.83427  0.70155  0.53397  1.0000
  C   C644      1.0  0.83702  0.71515  0.51439  1.0000
  C   C645      1.0  0.82475  0.69725  0.49778  1.0000
  H   H1108     1.0  0.79636  0.62752  0.52237  1.0000
  H   H1109     1.0  0.81674  0.65922  0.55193  1.0000
  H   H1110     1.0  0.84890  0.73964  0.51203  1.0000
  H   H1111     1.0  0.82671  0.70788  0.48279  1.0000
  C   C646      1.0  0.68529  0.61994  0.37045  1.0000
  H   H1112     1.0  0.71181  0.89916  0.45988  1.0000
  N   N46       1.0  0.73838  0.95362  0.48312  1.0000
  H   H1113     1.0  0.57146  0.76756  0.51698  1.0000
  H   H1114     1.0  0.75311  0.95407  0.61005  1.0000
  H   H1115     1.0  0.96987  0.72086  0.63269  1.0000
  C   C647      1.0  0.75173  0.80387  0.62306  1.0000
  C   C648      1.0  0.75464  0.74978  0.62404  1.0000
  H   H1116     1.0  0.59012  0.71805  0.32167  1.0000
  C   C649      1.0  0.72504  0.77571  0.62316  1.0000
  C   C650      1.0  0.69832  0.97062  0.47799  1.0000
  C   C651      1.0  0.74608  0.96739  0.50349  1.0000
  C   C652      1.0  0.73250  0.77402  0.39691  1.0000
  C   C653      1.0  0.75985  0.77436  0.39221  1.0000
  C   C654      1.0  0.76205  0.74802  0.39580  1.0000
  C   C655      1.0  0.73658  0.72085  0.40353  1.0000
  C   C656      1.0  0.70914  0.72042  0.40797  1.0000
  C   C657      1.0  0.70721  0.74695  0.40500  1.0000
  H   H1117     1.0  0.77950  0.79512  0.38584  1.0000
  H   H1118     1.0  0.78325  0.74860  0.39213  1.0000
  H   H1119     1.0  0.68933  0.69950  0.41394  1.0000
  H   H1120     1.0  0.68604  0.74624  0.40872  1.0000
  C   C658      1.0  0.71534  0.94311  0.41604  1.0000
  C   C659      1.0  0.95744  0.72275  0.41110  1.0000
  C   C660      1.0  0.74160  0.94486  0.40720  1.0000
  H   H1121     1.0  0.88410  0.65955  0.63756  1.0000
  H   H1122     1.0  0.74160  0.92428  0.40366  1.0000
  C   C661      1.0  0.66385  0.81376  0.50231  1.0000
  C   C662      1.0  0.66473  0.84149  0.49883  1.0000
  C   C663      1.0  0.66694  0.85912  0.51530  1.0000
  C   C664      1.0  0.66883  0.84948  0.53526  1.0000
  C   C665      1.0  0.66798  0.82177  0.53872  1.0000
  C   C666      1.0  0.66528  0.80389  0.52229  1.0000
  H   H1123     1.0  0.66338  0.84916  0.48350  1.0000
  H   H1124     1.0  0.66712  0.88030  0.51262  1.0000
  H   H1125     1.0  0.66934  0.81411  0.55404  1.0000
  H   H1126     1.0  0.66452  0.78241  0.52507  1.0000
  C   C667      1.0  0.54891  0.75763  0.33509  1.0000
  C   C668      1.0  0.57858  0.78008  0.33907  1.0000
  C   C669      1.0  0.58882  0.78285  0.35898  1.0000
  C   C670      1.0  0.56950  0.76300  0.37512  1.0000
  C   C671      1.0  0.53991  0.74049  0.37112  1.0000
  C   C672      1.0  0.52963  0.73783  0.35125  1.0000
  H   H1127     1.0  0.61152  0.80049  0.36184  1.0000
  H   H1128     1.0  0.52474  0.72503  0.38346  1.0000
  H   H1129     1.0  0.50677  0.72043  0.34842  1.0000
  H   H1130     1.0  0.75967  0.92339  0.64143  1.0000
  C   C673      1.0  0.75030  0.53430  0.34739  1.0000
  C   C674      1.0  0.76199  0.54800  0.36567  1.0000
  C   C675      1.0  0.77801  0.57981  0.36640  1.0000
  C   C676      1.0  0.78245  0.59785  0.34854  1.0000
  C   C677      1.0  0.77102  0.58416  0.33021  1.0000
  H   H1131     1.0  0.73806  0.50981  0.34710  1.0000
  H   H1132     1.0  0.75870  0.53384  0.37935  1.0000
  H   H1133     1.0  0.79523  0.62234  0.34876  1.0000
  Fe  Fe109     1.0  0.64350  0.82704  0.62937  1.0000
  Fe  Fe110     1.0  0.82079  0.66718  0.62693  1.0000
  C   C678      1.0  0.56993  0.74069  0.45352  1.0000
  C   C679      1.0  0.53834  0.76114  0.46523  1.0000
  C   C680      1.0  0.58651  0.72258  0.45713  1.0000
  S   S216      1.0  0.82228  0.70287  0.64662  1.0000
  H   H1134     1.0  0.55177  0.72793  0.44291  1.0000
  H   H1135     1.0  0.58674  0.76204  0.44472  1.0000
  C   C681      1.0  0.94339  0.76998  0.63838  1.0000
  H   H1136     1.0  0.60147  0.78762  0.47437  1.0000
  H   H1137     1.0  0.57139  0.69968  0.46470  1.0000
  H   H1138     1.0  0.59454  0.71911  0.44209  1.0000
  H   H1139     1.0  0.60697  0.73515  0.46586  1.0000
  H   H1140     1.0  0.79184  0.97301  0.65052  1.0000
  H   H1141     1.0  0.91846  0.75614  0.50154  1.0000
  H   H1142     1.0  0.59740  0.69803  0.34094  1.0000
  H   H1143     1.0  0.84060  0.90185  0.64608  1.0000
  C   C682      1.0  0.57624  0.78231  0.50282  1.0000
  C   C683      1.0  0.81726  0.94622  0.62604  1.0000
  H   H1144     1.0  0.64319  0.58088  0.36064  1.0000
  H   H1145     1.0  0.62981  0.70939  0.39047  1.0000
  C   C684      1.0  0.53690  0.71756  0.48459  1.0000
  H   H1146     1.0  0.61334  0.73128  0.39831  1.0000
  H   H1147     1.0  0.59360  0.79558  0.32669  1.0000
  C   C685      1.0  0.94407  0.73356  0.46839  1.0000
  H   H1148     1.0  0.57483  0.80924  0.46085  1.0000
  C   C686      1.0  0.89911  0.65391  0.64635  1.0000
  H   H1149     1.0  0.67337  0.95993  0.48131  1.0000
  H   H1150     1.0  0.73032  0.96180  0.53545  1.0000
  H   H1151     1.0  0.80887  0.96032  0.61837  1.0000
  H   H1152     1.0  0.67970  0.56403  0.33066  1.0000
  N   N47       1.0  0.91221  0.70920  0.47551  1.0000
  C   C687      1.0  0.90833  0.67897  0.47001  1.0000
  C   C688      1.0  0.73510  0.90789  0.46502  1.0000
  C   C689      1.0  0.88988  0.71412  0.46375  1.0000
  C   C690      1.0  0.90570  0.70790  0.49827  1.0000
  C   C691      1.0  0.87632  0.65107  0.47494  1.0000
  H   H1153     1.0  0.72230  0.90778  0.49621  1.0000
  C   C692      1.0  0.89185  0.74520  0.46484  1.0000
  C   C693      1.0  0.92162  0.73809  0.50883  1.0000
  H   H1154     1.0  0.51996  0.74508  0.45582  1.0000
  H   H1155     1.0  0.52624  0.76494  0.47807  1.0000
  H   H1156     1.0  0.70310  0.56575  0.42051  1.0000
  H   H1157     1.0  0.66172  0.68606  0.33337  1.0000
  H   H1158     1.0  0.89236  0.71095  0.44728  1.0000
  H   H1159     1.0  0.86608  0.69688  0.46879  1.0000
  H   H1160     1.0  0.88083  0.69751  0.50200  1.0000
  H   H1161     1.0  0.91204  0.69255  0.50659  1.0000
  H   H1162     1.0  0.87721  0.63002  0.47265  1.0000
  H   H1163     1.0  0.86772  0.64951  0.49094  1.0000
  H   H1164     1.0  0.85959  0.65085  0.46452  1.0000
  H   H1165     1.0  0.74311  0.63927  0.38688  1.0000
  C   C694      1.0  0.65039  0.59975  0.37087  1.0000
  C   C695      1.0  0.95509  0.77587  0.41495  1.0000
  H   H1166     1.0  0.87564  0.74609  0.45433  1.0000
  H   H1167     1.0  0.91450  0.76450  0.45957  1.0000
  H   H1168     1.0  0.88448  0.74816  0.48016  1.0000
  C   C696      1.0  0.97108  0.79605  0.64178  1.0000
  H   H1169     1.0  0.91176  0.73402  0.52480  1.0000
  H   H1170     1.0  0.52157  0.73452  0.51043  1.0000
  N   N48       1.0  0.70264  0.60359  0.37458  1.0000
  H   H1171     1.0  0.95316  0.73274  0.57823  1.0000
  H   H1172     1.0  0.63122  0.76769  0.33596  1.0000
  C   C697      1.0  0.69514  0.57800  0.36087  1.0000
  C   C698      1.0  0.70679  0.94547  0.47756  1.0000
  C   C699      1.0  0.69646  0.58496  0.33766  1.0000
  H   H1173     1.0  0.72469  0.92738  0.52584  1.0000
  H   H1174     1.0  0.64063  0.61383  0.36542  1.0000
  H   H1175     1.0  0.71099  0.56907  0.36293  1.0000
  H   H1176     1.0  0.67242  0.55790  0.36542  1.0000
  S   S217      1.0  0.75528  0.71532  0.62480  1.0000
  H   H1177     1.0  0.93878  0.75809  0.57808  1.0000
  H   H1178     1.0  0.71511  0.82096  0.34054  1.0000
  S   S218      1.0  0.68603  0.85107  0.64621  1.0000
  H   H1179     1.0  0.71930  0.59190  0.33053  1.0000
  H   H1180     1.0  0.49370  0.71645  0.49174  1.0000
  C   C700      1.0  0.63297  0.74683  0.33509  1.0000
  H   H1181     1.0  0.76821  0.89423  0.64424  1.0000
  C   C701      1.0  0.73955  0.97113  0.63536  1.0000
  H   H1182     1.0  0.73827  0.57426  0.64218  1.0000
  H   H1183     1.0  0.64020  0.59070  0.38656  1.0000
  H   H1184     1.0  0.94907  0.75629  0.47287  1.0000
  C   C702      1.0  0.72068  0.55015  0.64621  1.0000
  H   H1185     1.0  0.63314  0.69741  0.35711  1.0000
  H   H1186     1.0  0.59141  0.85457  0.64150  1.0000
  H   H1187     1.0  0.91429  0.67961  0.45342  1.0000
  C   C703      1.0  0.96987  0.72860  0.47570  1.0000
  N   N49       1.0  0.76960  0.74461  0.55503  1.0000
  C   C704      1.0  0.76119  0.71256  0.55049  1.0000
  C   C705      1.0  0.77891  0.76336  0.53497  1.0000
  C   C706      1.0  0.74145  0.74340  0.56443  1.0000
  C   C707      1.0  0.79471  0.75622  0.56968  1.0000
  C   C708      1.0  0.74644  0.68850  0.56859  1.0000
  C   C709      1.0  0.80389  0.76207  0.52175  1.0000
  C   C710      1.0  0.74383  0.77393  0.56890  1.0000
  C   C711      1.0  0.81678  0.79089  0.56890  1.0000
  H   H1188     1.0  0.74529  0.70446  0.53796  1.0000
  H   H1189     1.0  0.78163  0.71158  0.54493  1.0000
  H   H1190     1.0  0.78705  0.78766  0.53715  1.0000
  H   H1191     1.0  0.75891  0.75599  0.52551  1.0000
  H   H1192     1.0  0.72211  0.73163  0.55448  1.0000
  H   H1193     1.0  0.73413  0.72986  0.57939  1.0000
  H   H1194     1.0  0.78508  0.74888  0.58568  1.0000
  H   H1195     1.0  0.80939  0.74598  0.56737  1.0000
  H   H1196     1.0  0.74710  0.66774  0.56485  1.0000
  H   H1197     1.0  0.75861  0.69662  0.58264  1.0000
  H   H1198     1.0  0.72219  0.68170  0.57166  1.0000
  H   H1199     1.0  0.81377  0.78113  0.50979  1.0000
  H   H1200     1.0  0.82259  0.76382  0.53085  1.0000
  H   H1201     1.0  0.79422  0.74068  0.51375  1.0000
  H   H1202     1.0  0.75831  0.78414  0.58176  1.0000
  H   H1203     1.0  0.72089  0.76966  0.57406  1.0000
  H   H1204     1.0  0.75148  0.79025  0.55537  1.0000
  H   H1205     1.0  0.83234  0.79898  0.55496  1.0000
  H   H1206     1.0  0.83130  0.79614  0.58208  1.0000
  H   H1207     1.0  0.80523  0.80430  0.56998  1.0000
  N   N50       1.0  0.65394  0.74639  0.35062  1.0000
  C   C712      1.0  0.65514  0.71734  0.35143  1.0000
  C   C713      1.0  0.64496  0.75179  0.37154  1.0000
  H   H1208     1.0  0.70094  0.55060  0.39621  1.0000
  H   H1209     1.0  0.70358  0.54393  0.63460  1.0000
  C   C714      1.0  0.62050  0.72371  0.38469  1.0000
  C   C715      1.0  0.80764  0.91889  0.61285  1.0000
  H   H1210     1.0  0.76214  0.92920  0.49026  1.0000
  H   H1211     1.0  0.67161  0.71854  0.36269  1.0000
  H   H1212     1.0  0.66507  0.76232  0.38097  1.0000
  H   H1213     1.0  0.63685  0.76846  0.37046  1.0000
  N   N51       1.0  0.80634  0.93958  0.64832  1.0000
  C   C716      1.0  0.73635  0.62611  0.37305  1.0000
  C   C717      1.0  0.69073  0.80443  0.34468  1.0000
  C   C718      1.0  0.75488  0.55234  0.32953  1.0000
  C   C719      1.0  0.76190  0.97466  0.46661  1.0000
  H   H1214     1.0  0.70248  0.77101  0.35458  1.0000
  H   H1215     1.0  0.84253  0.95992  0.62431  1.0000
  H   H1216     1.0  0.80312  0.77903  0.62389  1.0000
  H   H1217     1.0  0.94657  0.73584  0.45145  1.0000
  H   H1218     1.0  0.55763  0.78722  0.50085  1.0000
  C   C720      1.0  0.71556  0.96994  0.42050  1.0000
  H   H1219     1.0  0.78291  0.90689  0.61084  1.0000
  C   C721      1.0  0.72376  0.94827  0.52178  1.0000
  C   C722      1.0  0.95796  0.75539  0.57206  1.0000
  H   H1220     1.0  0.70432  0.98378  0.46300  1.0000
  H   H1221     1.0  0.92406  0.67372  0.47826  1.0000
  C   C723      1.0  0.55602  0.79180  0.45257  1.0000
  H   H1222     1.0  0.74143  0.64061  0.34006  1.0000
  H   H1223     1.0  0.68788  0.72476  0.32573  1.0000
  C   C724      1.0  0.94320  0.74303  0.63472  1.0000
  H   H1224     1.0  0.50196  0.69430  0.50926  1.0000
  H   H1225     1.0  0.94629  0.74659  0.50965  1.0000
  C   C725      1.0  0.75862  0.97364  0.61863  1.0000
  C   C726      1.0  0.76783  0.97342  0.40262  1.0000
  C   C727      1.0  0.73985  0.92468  0.48477  1.0000
  H   H1226     1.0  0.75340  0.96794  0.45124  1.0000
  H   H1227     1.0  0.54371  0.73062  0.64627  1.0000
  H   H1228     1.0  0.69925  0.60842  0.40710  1.0000
  H   H1229     1.0  0.54033  0.80052  0.44941  1.0000
  H   H1230     1.0  0.81897  0.92732  0.59733  1.0000
  C   C728      1.0  0.51238  0.71616  0.49982  1.0000
  C   C729      1.0  0.72652  0.74878  0.62373  1.0000
  C   C730      1.0  0.70911  0.57206  0.40392  1.0000
  H   H1231     1.0  0.69241  0.63302  0.35545  1.0000
  N   N52       1.0  0.55698  0.74736  0.47237  1.0000
  H   H1232     1.0  0.74960  0.61425  0.37268  1.0000
  C   C731      1.0  0.58325  0.76857  0.48436  1.0000
  H   H1233     1.0  0.74296  0.66815  0.35733  1.0000
  H   H1234     1.0  0.59974  0.70984  0.37666  1.0000
  C   C732      1.0  0.69401  0.59020  0.39637  1.0000
  H   H1235     1.0  0.59493  0.75674  0.49059  1.0000
  C   C733      1.0  0.74892  0.65022  0.35489  1.0000
  H   H1236     1.0  0.97139  0.81699  0.64466  1.0000
  H   H1237     1.0  0.67733  0.80871  0.33344  1.0000
  H   H1238     1.0  0.66919  0.57412  0.39875  1.0000
  H   H1239     1.0  0.95429  0.79659  0.41624  1.0000
  H   H1240     1.0  0.52422  0.69907  0.47420  1.0000
  H   H1241     1.0  0.59650  0.80475  0.50501  1.0000
  H   H1242     1.0  0.77413  0.66173  0.35389  1.0000
  H   H1243     1.0  0.69060  0.63751  0.38170  1.0000
  C   C734      1.0  0.77987  0.80489  0.62322  1.0000
  C   C735      1.0  0.78136  0.77798  0.62361  1.0000
  H   H1244     1.0  0.92207  0.72289  0.63204  1.0000
  H   H1245     1.0  0.95827  0.70212  0.40940  1.0000
  H   H1246     1.0  0.69299  0.77003  0.32871  1.0000
  H   H1247     1.0  0.97220  0.71204  0.46640  1.0000
  H   H1248     1.0  0.73417  0.58541  0.40207  1.0000
  H   H1249     1.0  0.70327  0.77465  0.62304  1.0000
  C   C736      1.0  0.97027  0.74193  0.63515  1.0000
  H   H1250     1.0  0.78796  0.97471  0.39547  1.0000
  H   H1251     1.0  0.92164  0.67439  0.64685  1.0000
  H   H1252     1.0  0.81420  0.90249  0.61871  1.0000
  H   H1253     1.0  0.68584  0.80955  0.36005  1.0000
  C   C737      1.0  0.59980  0.72040  0.33684  1.0000
  H   H1254     1.0  0.75208  0.92202  0.45242  1.0000
  C   C738      1.0  0.68575  0.77197  0.34446  1.0000
  C   C739      1.0  0.66387  0.70881  0.33105  1.0000
  S   S219      1.0  0.90943  0.77158  0.63963  1.0000
  S   S220      1.0  0.59489  0.79697  0.64312  1.0000
  H   H1255     1.0  0.73772  0.88774  0.46821  1.0000
  H   H1256     1.0  0.51195  0.69318  0.64670  1.0000
  S   S221      1.0  0.70796  0.93578  0.64427  1.0000
  H   H1257     1.0  0.96639  0.72072  0.49206  1.0000
  H   H1258     1.0  0.56476  0.78940  0.43748  1.0000
  C   C740      1.0  0.77302  0.91586  0.65060  1.0000
  H   H1259     1.0  0.78278  0.97274  0.46700  1.0000
  H   H1260     1.0  0.90241  0.63788  0.63710  1.0000
  H   H1261     1.0  0.58563  0.72487  0.34782  1.0000
  H   H1262     1.0  0.59911  0.89240  0.64380  1.0000
  H   H1263     1.0  0.66730  0.97748  0.35341  1.0000
  H   H1264     1.0  0.76914  0.97198  0.50726  1.0000
  H   H1265     1.0  0.70576  0.72704  0.62404  1.0000
  H   H1266     1.0  0.67313  0.49657  0.64788  1.0000
  H   H1267     1.0  0.73233  0.53686  0.64495  1.0000
  H   H1268     1.0  0.64240  0.74896  0.31918  1.0000
  H   H1269     1.0  0.70849  0.98640  0.49014  1.0000
  H   H1270     1.0  0.64852  0.70723  0.31899  1.0000
  S   S222      1.0  0.76182  0.55949  0.72940  1.0000
  S   S223      1.0  0.54269  0.76277  0.73576  1.0000
  H   H1271     1.0  0.65606  0.97706  0.67698  1.0000
  H   H1272     1.0  0.88002  0.71470  0.66777  1.0000
  H   H1273     1.0  0.77970  0.53907  0.69325  1.0000
  H   H1274     1.0  0.79198  0.64054  0.67509  1.0000
  H   H1275     1.0  0.80540  0.96602  0.67329  1.0000
  H   H1276     1.0  0.69994  0.53420  0.71866  1.0000
  H   H1277     1.0  0.83691  0.59958  0.72037  1.0000
  C   C741      1.0  0.75859  0.90778  0.67262  1.0000
  H   H1278     1.0  0.86015  0.67574  0.66171  1.0000
  H   H1279     1.0  0.50829  0.71373  0.70380  1.0000
  H   H1280     1.0  0.55040  0.72588  0.68244  1.0000
  H   H1281     1.0  0.66113  0.86300  0.68443  1.0000
  C   C742      1.0  0.88321  0.63763  0.66731  1.0000
  H   H1282     1.0  0.65153  0.52822  0.68912  1.0000
  H   H1283     1.0  0.58540  0.83967  0.69683  1.0000
  H   H1284     1.0  0.61725  0.85424  0.67105  1.0000
  C   C743      1.0  0.53236  0.67227  0.70484  1.0000
  C   C744      1.0  0.92022  0.65761  0.69429  1.0000
  C   C745      1.0  0.55767  0.77514  0.71019  1.0000
  C   C746      1.0  0.58817  0.78376  0.70519  1.0000
  C   C747      1.0  0.60037  0.79180  0.68481  1.0000
  C   C748      1.0  0.58204  0.79104  0.66921  1.0000
  C   C749      1.0  0.55180  0.78323  0.67429  1.0000
  C   C750      1.0  0.53969  0.77547  0.69467  1.0000
  H   H1285     1.0  0.60228  0.78364  0.71710  1.0000
  H   H1286     1.0  0.62362  0.79758  0.68110  1.0000
  C   C751      1.0  0.58507  0.85646  0.70670  1.0000
  H   H1287     1.0  0.51625  0.76911  0.69829  1.0000
  C   C752      1.0  0.77496  0.57584  0.70414  1.0000
  C   C753      1.0  0.77881  0.60468  0.69887  1.0000
  C   C754      1.0  0.78925  0.61841  0.67894  1.0000
  C   C755      1.0  0.79624  0.60350  0.66413  1.0000
  C   C756      1.0  0.79259  0.57477  0.66945  1.0000
  C   C757      1.0  0.78204  0.56101  0.68932  1.0000
  H   H1288     1.0  0.77354  0.61642  0.71025  1.0000
  Fe  Fe111     1.0  0.74129  0.50904  0.73895  1.0000
  H   H1289     1.0  0.52868  0.65325  0.65589  1.0000
  H   H1290     1.0  0.88618  0.61749  0.66961  1.0000
  H   H1291     1.0  0.77057  0.89991  0.68278  1.0000
  H   H1292     1.0  0.82202  0.93204  0.67723  1.0000
  C   C758      1.0  0.65615  0.87159  0.69844  1.0000
  H   H1293     1.0  0.91770  0.70145  0.66978  1.0000
  H   H1294     1.0  0.67705  0.91642  0.68449  1.0000
  H   H1295     1.0  0.87227  0.65556  0.71558  1.0000
  C   C759      1.0  0.85790  0.60891  0.71010  1.0000
  H   H1296     1.0  0.59467  0.85534  0.72143  1.0000
  H   H1297     1.0  0.85018  0.94786  0.65732  1.0000
  N   N53       1.0  0.89255  0.65640  0.68570  1.0000
  H   H1298     1.0  0.72619  0.55972  0.67766  1.0000
  C   C760      1.0  0.82280  0.89959  0.65746  1.0000
  H   H1299     1.0  0.58397  0.89283  0.68940  1.0000
  H   H1300     1.0  0.60784  0.90416  0.70961  1.0000
  N   N54       1.0  0.51469  0.67928  0.68965  1.0000
  H   H1301     1.0  0.48824  0.67752  0.71695  1.0000
  C   C761      1.0  0.94989  0.67349  0.68053  1.0000
  H   H1302     1.0  0.84572  0.63968  0.69658  1.0000
  H   H1303     1.0  0.85851  0.62819  0.66553  1.0000
  H   H1304     1.0  0.67504  0.87671  0.70846  1.0000
  C   C762      1.0  0.89866  0.68837  0.68133  1.0000
  C   C763      1.0  0.86691  0.64148  0.70213  1.0000
  H   H1305     1.0  0.66998  0.54205  0.72311  1.0000
  C   C764      1.0  0.62187  0.87697  0.66534  1.0000
  H   H1306     1.0  0.94824  0.66058  0.66700  1.0000
  C   C765      1.0  0.65136  0.95608  0.68605  1.0000
  H   H1307     1.0  0.90620  0.70147  0.69520  1.0000
  H   H1308     1.0  0.91618  0.63433  0.69805  1.0000
  H   H1309     1.0  0.67345  0.96046  0.69162  1.0000
  C   C766      1.0  0.51161  0.63685  0.66769  1.0000
  H   H1310     1.0  0.70003  0.56560  0.70459  1.0000
  C   C767      1.0  0.66670  0.52000  0.69489  1.0000
  N   N55       1.0  0.62867  0.89829  0.68219  1.0000
  H   H1311     1.0  0.63513  0.85338  0.70658  1.0000
  C   C768      1.0  0.68565  0.54182  0.71101  1.0000
  H   H1312     1.0  0.65672  0.91167  0.70818  1.0000
  H   H1313     1.0  0.95730  0.69749  0.67590  1.0000
  H   H1314     1.0  0.69580  0.56204  0.66696  1.0000
  H   H1315     1.0  0.96847  0.67402  0.68924  1.0000
  H   H1316     1.0  0.92514  0.66910  0.70890  1.0000
  N   N56       1.0  0.68451  0.51639  0.67738  1.0000
  C   C769      1.0  0.59480  0.87154  0.65274  1.0000
  H   H1317     1.0  0.65150  0.49780  0.70351  1.0000
  H   H1318     1.0  0.87547  0.60850  0.71940  1.0000
  C   C770      1.0  0.49518  0.68908  0.70132  1.0000
  H   H1319     1.0  0.85469  0.68645  0.68673  1.0000
  H   H1320     1.0  0.79811  0.56314  0.65813  1.0000
  H   H1321     1.0  0.53749  0.78269  0.66232  1.0000
  C   C771      1.0  0.71617  0.48967  0.67067  1.0000
  C   C772      1.0  0.63787  0.92921  0.67215  1.0000
  C   C773      1.0  0.49488  0.65051  0.67933  1.0000
  H   H1322     1.0  0.74077  0.50645  0.66796  1.0000
  C   C774      1.0  0.60138  0.88910  0.69671  1.0000
  C   C775      1.0  0.65523  0.90102  0.69348  1.0000
  C   C776      1.0  0.87161  0.69102  0.67396  1.0000
  H   H1323     1.0  0.64228  0.88543  0.65457  1.0000
  Fe  Fe112     1.0  0.49379  0.74726  0.74688  1.0000
  H   H1324     1.0  0.61819  0.92929  0.66532  1.0000
  H   H1325     1.0  0.54878  0.66705  0.69698  1.0000
  H   H1326     1.0  0.65502  0.93524  0.65917  1.0000
  H   H1327     1.0  0.63545  0.95291  0.69910  1.0000
  C   C777      1.0  0.70087  0.50097  0.68596  1.0000
  H   H1328     1.0  0.56286  0.68974  0.72950  1.0000
  H   H1329     1.0  0.71906  0.51634  0.69567  1.0000
  H   H1330     1.0  0.85249  0.59332  0.69763  1.0000
  H   H1331     1.0  0.56054  0.84861  0.70977  1.0000
  H   H1332     1.0  0.49475  0.61722  0.65963  1.0000
  H   H1333     1.0  0.75737  0.92701  0.67899  1.0000
  H   H1334     1.0  0.51672  0.65166  0.71491  1.0000
  C   C778      1.0  0.55134  0.69777  0.71896  1.0000
  H   H1335     1.0  0.52238  0.62789  0.67814  1.0000
  H   H1336     1.0  0.56950  0.71850  0.71035  1.0000
  H   H1337     1.0  0.53711  0.70377  0.72867  1.0000
  H   H1338     1.0  0.73480  0.88882  0.67253  1.0000
  H   H1339     1.0  0.64894  0.50915  0.65735  1.0000
  C   C779      1.0  0.53735  0.70448  0.67472  1.0000
  H   H1340     1.0  0.57331  0.86192  0.66239  1.0000
  H   H1341     1.0  0.82596  0.89020  0.67214  1.0000
  C   C780      1.0  0.80945  0.96837  0.65639  1.0000
  C   C781      1.0  0.82569  0.93083  0.66056  1.0000
  H   H1342     1.0  0.51013  0.72228  0.66087  1.0000
  C   C782      1.0  0.52446  0.71261  0.65622  1.0000
  S   S224      1.0  0.75186  0.49077  0.76769  1.0000
  C   C783      1.0  0.66191  0.49789  0.66223  1.0000
  C   C784      1.0  0.70675  0.54777  0.66790  1.0000
  H   H1343     1.0  0.55474  0.69914  0.66867  1.0000
  H   H1344     1.0  0.80037  0.88196  0.65295  1.0000
