data_image0
_chemical_formula_structural       H2SHSHFeS2FeS2FeSFeS4FeHFeS2FeSHSCHSCFeSFeNFeSHSH4C5H3C6H4CH3C2H4CH2FeH2SHC6H4C6H6CH3SH2C2HC3H2SHSH5CH2CHFeHCH4SC3H3FeH5C2H2CH2C2HCH2CSCH2CH2NH2NH4C2H5CH2C2H2CH5NH2C3H2C2H4CSH6CHC3HSCH3C2H2C2HC3SCH4CH6C2H3NHCH5C3HSH2CHSCSFeS2FeS2FeSFeS5H2SH2C2HFeHSHC2H5CHC7H8FeHC2H2CH2SH3C2HC2HCHFeH5FeH4CHSHCH4CHC2SHC2H4CH2CHCSCH3CH2C3HSC2NC6H6CHFeHNC7H5CH22NCHC4H5CH10C3FeCHNHC3H2CHCHCSCHC2H2CHC3FeC2H3SHSHFeS2FeS2FeSFeS4FeHFeHSFeSCSCHSHFeSFeCFeS2H4FeC4FeH3C6H4CH4C2H2CH2FeH3C8H4C6NH4CNC8H22SHNH2NHCH4C2HCH3CSH3CH3FeHCHCSC2SH2CH2SCHSHCHCHNH2CH5CFeNC2HCNH2CH4CHSH3C2HCH2SH2C2H2FeCH2C3H4C3SCHCH3CH2FeH6FeH5C3HCHSC2H2NSFeSHFeS2FeSFeS5HCSHFeH3FeCHC3H2CH2CHSC6H4CH2C5H3FeCH5C3H10CH2C2HC2HCHCH4SCHCH6CH8C2HCNC2H5CH9CS2CHC2NH2NHC2H4SC2H7FeCHCHC3H3CH7SCH4CFeC4H2SC3H2C3HSH8CH4SH4SH2CHNC3HC2H5CSH2S2HFeSFeSCFeSFeS3FeS2FeS2FeSFeS4HC6H3C5H2C8H4C3FeCH3CH2C7H4CHCH2CH4CSH3CHCH3CHCHCSH3CH4SH2CH5SHC2HCH5NCH3C2HCHNHCHNC5HC2H2CH12FeH2SH4SHCH2C2NH2CH8CH4C2HCH2CH3C4HSHCHCFeH2SH3CH4CSCH4CHNCHCFeHCH6C3HSCH8FeCH4CHCH9FeCHCH5CH4CSHFeS2FeS2FeSFeS4FeSFeS2FeSFeS3H2C3HC2NHC2H2C6H4CHCHC3H2CNCH2CHCHC6H9CHCHNHC2H4CFeCSH3C2HC2HSH2C2NH4C2HNH2CHC2H4CHC2HC2H6C2H6CSHCH3CHC2HCH4C2HC2NH2CH3CH5CNH5CH3C2H4FeCH3C2H5CHNCH2C2H4CH11CHC2HCH3SH4NH4CH2C2H3SHFeS2CFeSFeS2FeSFeS3FeS2FeS2FeSFeS4HC6H3C5H2CHC6H4CH2C3H3C2HC6H2CHCSHSCHC3HCHCSC3S2HCH6CH2C3SHCH3NCH4CH4C2NH2CHCNC8H14CH4CH4SHC2HCNH6CFeH4FeCHFeNCH2CH5CH7SCHCHNHC2HC2H2CHCH7CH5CH5C2SH4NCH5CH4CH5C2HC2HFeCH3CH3SCHCHCHCH7C3HCFeHCH2FeS2FeS2FeSFeS3CFeSFeS2FeSFeS3CH3CH2NH2CHCHC6H2CHC3HC2H3C3SH2CH10CH4CH3CH2NCH3C2H4SH2CH2C2HCH5CHCH2CH3CHC2H2FeCH3NH3CH4C4HCH2C2H5CHNH3C5H4C3H2CHCNC2H2CH3C2H2CHCHCHCH2C2H4CSH2CH7C2H2NC3H5CHCHCHSCS2FeS2FeS2FeSFeS4FeHFeS2FeSHSH2SFe2SFeHFeSCSH3C5H4C6H4CHC3H6CH2CH3C7H3C8H2CSNCH3CHSH2CH2CHNH8CSH2CHCH2SH2CH5CH9CHCFeHCH2NC5H8CHC2H2CH4CH3CHC3NHNCH4CH4CH2CHFeHCSH2S2HC2H6CH7CFeCHCH2C3H2CH5CHC3FeH2C3H2SFeSCFeS2FeSFeS5H5SH2FeCS2C2H2C2H4C6H5FeHC5SHSHCH4SHC2H4C3H2CHCHCH3CHCH7C6FeHCH4CHC2H2C2HCH5NH4C2HCFeH2CH3CHCFeH2SH6C2H2FeCH3CHCH4CH4NSHCH3S2H3CHC2H8CH7CH3C2NC2HCH2C2NHC5HCNC3HCSCH7CH3SHS2FeS2FeS2FeSFeS4FeSFeS2FeSHSHNSHFeSFeHFeSC3HC7H2C7H4FeH2C2H5CH3CHCHC6H4C7H3C2H6CH2CHFeSNC8H8SH8SH4CH4CH4SCH7NH2CH8CH2CH2CNH3SH3CSHCHNH4CHCHCHSCH2FeH3CH4C2H3C2H8CHCHCHCSC2FeCH2C3HCHCH4CH6C2H2CH3CHS2H3CH2SFeHCSFeSHFeS2FeSFeSHS3H8FeH2C2H3C2H4C6H5CH4C2H5CH3CHC4H2CH3CSCH4SHCHCH3NHC4H3FeH3SNH3C2H5SH2CSHCHCH2CSHC3H3CH5CFeH2NSHCH2CHCH2CH3CFeHCHC2HCHCHNC6HCH2CHCH3CH5CHC2HCH3C4H2C2HCHC2H6C2NFeH2CH3CHCHC2H2SCH2CH2SHCS2HFeSFeS2FeSFeHS2FeS2FeS2FeSFeS4C7H3C5H4C6H4C3HCSH4CHC6H5CHCH2CHC2H2CH4SH3FeHCH2CH2C2H2SH4CH3CHCHCH4C3H4CHC2H6CH2CHCHCH2CH5FeH7CH3CH5CH2SH5CFeH2C2H2NH6NC6H3CH7CNC4HCHC2H2C2H3NHSH2CHSH2SCNCHCHCHCHNFeCHC3H4SCH5C2H4N2SHCH3C3H2CH2C2H4CHCSHFeS2FeS2FeSFeS4FeSFeS2FeSFeS3CH3CH4CH4C6H2FeHC3H6C2NHCH3CH7C2HCHSH3C2H2CH5CH2CHC5HC4H3NC2H8CH6CHNH3CH2CH2CH2CHCH2NHC3HC3H4CHCHCHCH5CHCH12CH5CH2C2NCH4CSH2NH2C2H2Fe2C2HCH2CH2CHCH2CHSC2HCH3CH4FeH4C3HCS2HS2HFeSFeSHFeSFeS3FeS2FeS2FeSFeS4HC2HC3H3C5H2CHC6H4CH2CH8C6H4C5H7C2H2NHCH3NC6H15SHCHSH2NC2HSHCH2FeCHC3H2CH2CH2NC5H5CH2FeH5C3H2CH2FeCH4CHC2H7SH5CS2H2SH4C3H2CH2CH3CH4C3HCNHC3H3NHSHCH2CH4CHSH3CH2CH3C2H2CH2CHC4H3CFeS2FeS2FeSFeS4FeSFeS2FeSFeS3H2SC2HCHC2HC9H4CH2CH2CHSCH2C3H2CHCHCH6CHC2H13NH2NC2H5C3H3CHN3H5CH5CH5CH2CHC2HCH3C2H5CH5C2HC3H2FeHC3H3CHC2SCHCHCHNCH2CH5CHCH2CHCH3CH4FeHCH2CH2CNC2H2CH4CH2C3HCNH2CH2C2HC
_chemical_formula_sum              "H2304 S384 Fe192 C1344 N96"
_cell_length_a       46.9023
_cell_length_b       44.8378
_cell_length_c       38.6147
_cell_angle_alpha    91.2266
_cell_angle_beta     90.3096
_cell_angle_gamma    119.984

_space_group_name_H-M_alt    "P 1"
_space_group_IT_number       1

loop_
  _space_group_symop_operation_xyz
  'x, y, z'

loop_
  _atom_site_type_symbol
  _atom_site_label
  _atom_site_symmetry_multiplicity
  _atom_site_fract_x
  _atom_site_fract_y
  _atom_site_fract_z
  _atom_site_occupancy
  H   H1        1.0  0.16020  0.21406  0.20930  1.0000
  H   H2        1.0  0.08340  0.46047  0.27774  1.0000
  S   S1        1.0  0.03774  0.10100  0.33773  1.0000
  H   H3        1.0  0.21870  0.37393  0.08134  1.0000
  S   S2        1.0  0.00816  0.44269  0.29651  1.0000
  H   H4        1.0  0.98951  0.11576  0.45018  1.0000
  Fe  Fe1       1.0  0.16603  0.27038  0.30627  1.0000
  S   S3        1.0  0.15779  0.31067  0.33317  1.0000
  S   S4        1.0  0.20166  0.24910  0.30877  1.0000
  Fe  Fe2       1.0  0.12589  0.26833  0.24360  1.0000
  S   S5        1.0  0.11498  0.30811  0.26490  1.0000
  S   S6        1.0  0.11182  0.23848  0.19300  1.0000
  Fe  Fe3       1.0  0.16777  0.33792  0.28276  1.0000
  S   S7        1.0  0.19801  0.39515  0.26832  1.0000
  Fe  Fe4       1.0  0.10378  0.27919  0.31484  1.0000
  S   S8        1.0  0.05338  0.27450  0.32901  1.0000
  S   S9        1.0  0.17918  0.29983  0.25693  1.0000
  S   S10       1.0  0.11220  0.23745  0.29132  1.0000
  S   S11       1.0  0.05590  0.29233  0.07733  1.0000
  Fe  Fe5       1.0  0.19284  0.38440  0.42705  1.0000
  H   H5        1.0  0.98952  0.37324  0.42880  1.0000
  Fe  Fe6       1.0  0.12996  0.31234  0.41768  1.0000
  S   S12       1.0  0.09766  0.32867  0.44648  1.0000
  S   S13       1.0  0.11848  0.25691  0.40110  1.0000
  Fe  Fe7       1.0  0.12264  0.37781  0.41605  1.0000
  S   S14       1.0  0.09955  0.41120  0.39974  1.0000
  H   H6        1.0  0.05883  0.38874  0.47655  1.0000
  S   S15       1.0  0.15300  0.36077  0.38555  1.0000
  C   C1        1.0  0.06786  0.18212  0.46159  1.0000
  H   H7        1.0  0.13954  0.35285  0.15079  1.0000
  S   S16       1.0  0.03541  0.02910  0.36224  1.0000
  C   C2        1.0  0.03684  0.21257  0.25026  1.0000
  Fe  Fe8       1.0  0.04110  0.04811  0.45874  1.0000
  S   S17       1.0  0.06034  0.09004  0.42069  1.0000
  Fe  Fe9       1.0  0.01181  0.05724  0.39088  1.0000
  N   N1        1.0  0.03366  0.15861  0.47491  1.0000
  Fe  Fe10      1.0  0.08144  0.05982  0.39425  1.0000
  S   S18       1.0  0.13757  0.08325  0.38428  1.0000
  H   H8        1.0  0.00746  0.01100  0.12465  1.0000
  S   S19       1.0  0.06241  0.01840  0.43422  1.0000
  H   H9        1.0  0.02044  0.32682  0.45299  1.0000
  H   H10       1.0  0.99728  0.14906  0.39389  1.0000
  H   H11       1.0  0.07880  0.06083  0.22527  1.0000
  H   H12       1.0  0.19299  0.47505  0.46726  1.0000
  C   C3        1.0  0.19206  0.11768  0.29529  1.0000
  C   C4        1.0  0.16529  0.10304  0.31832  1.0000
  C   C5        1.0  0.17059  0.10097  0.35369  1.0000
  C   C6        1.0  0.20321  0.11284  0.36525  1.0000
  C   C7        1.0  0.98923  0.29280  0.03122  1.0000
  H   H13       1.0  0.14048  0.09345  0.30881  1.0000
  H   H14       1.0  0.20817  0.11135  0.39229  1.0000
  H   H15       1.0  0.09989  0.44869  0.45871  1.0000
  C   C8        1.0  0.09475  0.25274  0.16187  1.0000
  C   C9        1.0  0.08673  0.23649  0.12913  1.0000
  C   C10       1.0  0.07399  0.24819  0.10333  1.0000
  C   C11       1.0  0.06898  0.27588  0.11038  1.0000
  C   C12       1.0  0.07576  0.29130  0.14353  1.0000
  C   C13       1.0  0.08921  0.28007  0.16916  1.0000
  H   H16       1.0  0.09086  0.21521  0.12352  1.0000
  H   H17       1.0  0.06778  0.23556  0.07804  1.0000
  H   H18       1.0  0.07164  0.31259  0.14905  1.0000
  H   H19       1.0  0.09549  0.29270  0.19438  1.0000
  C   C14       1.0  0.20398  0.36645  0.14910  1.0000
  H   H20       1.0  0.04624  0.25829  0.40290  1.0000
  H   H21       1.0  0.18748  0.11952  0.26820  1.0000
  H   H22       1.0  0.12777  0.35257  0.08104  1.0000
  C   C15       1.0  0.21251  0.43185  0.29703  1.0000
  C   C16       1.0  0.21232  0.42903  0.33290  1.0000
  H   H23       1.0  0.11726  0.22306  0.47488  1.0000
  H   H24       1.0  0.02533  0.12923  0.42675  1.0000
  H   H25       1.0  0.20227  0.40390  0.34367  1.0000
  H   H26       1.0  0.16919  0.39664  0.14397  1.0000
  C   C17       1.0  0.22133  0.23340  0.33669  1.0000
  H   H27       1.0  0.03848  0.35507  0.04968  1.0000
  H   H28       1.0  0.13348  0.05300  0.46702  1.0000
  Fe  Fe11      1.0  0.07940  0.28862  0.02815  1.0000
  H   H29       1.0  0.00503  0.23609  0.13986  1.0000
  H   H30       1.0  0.18597  0.20741  0.44756  1.0000
  S   S20       1.0  0.05047  0.26929  0.97841  1.0000
  H   H31       1.0  0.11031  0.43231  0.27465  1.0000
  C   C18       1.0  0.05995  0.14558  0.35228  1.0000
  C   C19       1.0  0.04773  0.16834  0.34897  1.0000
  C   C20       1.0  0.06560  0.20259  0.36273  1.0000
  C   C21       1.0  0.09625  0.21513  0.37951  1.0000
  C   C22       1.0  0.10935  0.19306  0.38065  1.0000
  C   C23       1.0  0.09135  0.15874  0.36767  1.0000
  H   H32       1.0  0.02430  0.15970  0.33624  1.0000
  H   H33       1.0  0.05556  0.21925  0.36032  1.0000
  H   H34       1.0  0.13372  0.20264  0.39153  1.0000
  H   H35       1.0  0.10189  0.14221  0.36972  1.0000
  C   C24       1.0  0.03397  0.43437  0.32541  1.0000
  C   C25       1.0  0.05092  0.45570  0.35412  1.0000
  C   C26       1.0  0.07023  0.44791  0.37649  1.0000
  C   C27       1.0  0.07372  0.41879  0.37052  1.0000
  C   C28       1.0  0.05783  0.39793  0.34108  1.0000
  C   C29       1.0  0.03849  0.40588  0.31869  1.0000
  H   H36       1.0  0.21019  0.99145  0.31645  1.0000
  H   H37       1.0  0.08264  0.46485  0.39856  1.0000
  H   H38       1.0  0.06044  0.37566  0.33548  1.0000
  H   H39       1.0  0.02655  0.38956  0.29623  1.0000
  H   H40       1.0  0.19713  0.01858  0.37402  1.0000
  H   H41       1.0  0.17229  0.35461  0.19482  1.0000
  C   C30       1.0  0.19165  0.99777  0.30623  1.0000
  H   H42       1.0  0.14241  0.18824  0.44479  1.0000
  H   H43       1.0  0.05324  0.08972  0.24818  1.0000
  H   H44       1.0  0.03367  0.32039  0.41174  1.0000
  S   S21       1.0  0.17071  0.33626  0.45865  1.0000
  H   H45       1.0  0.01305  0.34770  0.98955  1.0000
  H   H46       1.0  0.17747  0.10341  0.44355  1.0000
  C   C31       1.0  0.16219  0.32268  0.10810  1.0000
  C   C32       1.0  0.06583  0.11389  0.23353  1.0000
  H   H47       1.0  0.02209  0.18718  0.41824  1.0000
  C   C33       1.0  0.20955  0.02321  0.46637  1.0000
  C   C34       1.0  0.13125  0.01098  0.29833  1.0000
  C   C35       1.0  0.21173  0.03607  0.29664  1.0000
  H   H48       1.0  0.99144  0.38888  0.18110  1.0000
  H   H49       1.0  0.14870  0.31883  0.08311  1.0000
  S   S22       1.0  0.99440  0.03016  0.19133  1.0000
  H   H50       1.0  0.16717  0.27898  0.09137  1.0000
  S   S23       1.0  0.16387  0.40468  0.45583  1.0000
  H   H51       1.0  0.04884  0.47818  0.35932  1.0000
  H   H52       1.0  0.01071  0.11444  0.10865  1.0000
  H   H53       1.0  0.02958  0.21099  0.17878  1.0000
  H   H54       1.0  0.20252  0.43073  0.10191  1.0000
  H   H55       1.0  0.14106  0.01611  0.27169  1.0000
  C   C36       1.0  0.18808  0.34592  0.18191  1.0000
  H   H56       1.0  0.22838  0.05202  0.31842  1.0000
  H   H57       1.0  0.00414  0.07422  0.12365  1.0000
  C   C37       1.0  0.00239  0.19920  0.17859  1.0000
  H   H58       1.0  0.00253  0.34646  0.23331  1.0000
  Fe  Fe12      1.0  0.14645  0.31144  0.99441  1.0000
  H   H59       1.0  0.12338  0.40996  0.30238  1.0000
  C   C38       1.0  0.22574  0.46492  0.28341  1.0000
  H   H60       1.0  0.06767  0.20063  0.44314  1.0000
  H   H61       1.0  0.06285  0.10574  0.20563  1.0000
  H   H62       1.0  0.05326  0.15425  0.22264  1.0000
  H   H63       1.0  0.19267  0.30163  0.12804  1.0000
  S   S24       1.0  0.19995  0.33654  0.01359  1.0000
  C   C39       1.0  0.10417  0.13835  0.28272  1.0000
  C   C40       1.0  0.22033  0.23544  0.37284  1.0000
  C   C41       1.0  0.13865  0.15831  0.29989  1.0000
  H   H64       1.0  0.04998  0.24078  0.25506  1.0000
  H   H65       1.0  0.09147  0.15225  0.29172  1.0000
  H   H66       1.0  0.09052  0.11297  0.29518  1.0000
  Fe  Fe13      1.0  0.99510  0.04680  0.31726  1.0000
  H   H67       1.0  0.11893  0.06698  0.23342  1.0000
  H   H68       1.0  0.02227  0.44457  0.47674  1.0000
  H   H69       1.0  0.14507  0.18531  0.30546  1.0000
  H   H70       1.0  0.15857  0.15801  0.28517  1.0000
  H   H71       1.0  0.13850  0.14673  0.32504  1.0000
  C   C42       1.0  0.16269  0.18742  0.45877  1.0000
  C   C43       1.0  0.13379  0.37187  0.10215  1.0000
  H   H72       1.0  0.21686  0.39397  0.15781  1.0000
  H   H73       1.0  0.10993  0.36628  0.11345  1.0000
  C   C44       1.0  0.22479  0.13055  0.30702  1.0000
  H   H74       1.0  0.15505  0.48630  0.24795  1.0000
  H   H75       1.0  0.16394  0.14850  0.42600  1.0000
  C   C45       1.0  0.14864  0.00938  0.38719  1.0000
  C   C46       1.0  0.15610  0.37069  0.13100  1.0000
  H   H76       1.0  0.14441  0.12749  0.23887  1.0000
  C   C47       1.0  0.01833  0.32960  0.42489  1.0000
  H   H77       1.0  0.20791  0.35084  0.20089  1.0000
  H   H78       1.0  0.14292  0.30722  0.12683  1.0000
  C   C48       1.0  0.14730  0.46465  0.31512  1.0000
  S   S25       1.0  0.01927  0.02611  0.28133  1.0000
  C   C49       1.0  0.10215  0.07693  0.24013  1.0000
  H   H79       1.0  0.02164  0.10332  0.03505  1.0000
  H   H80       1.0  0.19619  0.04694  0.28873  1.0000
  C   C50       1.0  0.04517  0.13167  0.23926  1.0000
  H   H81       1.0  0.16419  0.17670  0.20868  1.0000
  H   H82       1.0  0.22388  0.36126  0.14099  1.0000
  N   N2        1.0  0.18059  0.36023  0.11933  1.0000
  H   H83       1.0  0.23068  0.03587  0.44884  1.0000
  H   H84       1.0  0.15897  0.03174  0.40573  1.0000
  N   N3        1.0  0.99155  0.21086  0.21023  1.0000
  H   H85       1.0  0.01201  0.30081  0.01604  1.0000
  H   H86       1.0  0.22751  0.45578  0.38252  1.0000
  H   H87       1.0  0.99708  0.22351  0.43858  1.0000
  H   H88       1.0  0.18260  0.04105  0.34964  1.0000
  C   C51       1.0  0.13595  0.07756  0.47698  1.0000
  C   C52       1.0  0.00256  0.16016  0.42047  1.0000
  H   H89       1.0  0.11893  0.11565  0.20147  1.0000
  H   H90       1.0  0.16707  0.19985  0.24896  1.0000
  H   H91       1.0  0.14447  0.39809  0.09166  1.0000
  H   H92       1.0  0.22166  0.19386  0.47365  1.0000
  H   H93       1.0  0.04991  0.43456  0.45703  1.0000
  C   C53       1.0  0.22995  0.12725  0.34218  1.0000
  H   H94       1.0  0.00165  0.19749  0.12222  1.0000
  H   H95       1.0  0.03928  0.20106  0.27453  1.0000
  C   C54       1.0  0.99944  0.34881  0.01244  1.0000
  C   C55       1.0  0.19996  0.38096  0.08901  1.0000
  H   H96       1.0  0.04472  0.39370  0.03072  1.0000
  H   H97       1.0  0.14413  0.03465  0.31455  1.0000
  C   C56       1.0  0.99389  0.22567  0.41121  1.0000
  H   H98       1.0  0.16955  0.46477  0.32563  1.0000
  H   H99       1.0  0.13027  0.45744  0.33721  1.0000
  H   H100      1.0  0.10624  0.16601  0.20021  1.0000
  H   H101      1.0  0.15037  0.43603  0.26963  1.0000
  H   H102      1.0  0.03006  0.06885  0.03351  1.0000
  N   N4        1.0  0.10192  0.13455  0.24382  1.0000
  H   H103      1.0  0.10872  0.18589  0.24131  1.0000
  H   H104      1.0  0.01570  0.26195  0.26720  1.0000
  C   C57       1.0  0.02190  0.24547  0.39099  1.0000
  C   C58       1.0  0.01855  0.24834  0.35532  1.0000
  C   C59       1.0  0.99108  0.08813  0.11559  1.0000
  H   H105      1.0  0.00013  0.25913  0.18940  1.0000
  H   H106      1.0  0.18376  0.37491  0.06564  1.0000
  C   C60       1.0  0.00438  0.26658  0.24433  1.0000
  C   C61       1.0  0.13188  0.43439  0.28848  1.0000
  H   H107      1.0  0.10128  0.39979  0.47438  1.0000
  H   H108      1.0  0.01501  0.37529  0.06380  1.0000
  H   H109      1.0  0.20615  0.24580  0.38473  1.0000
  H   H110      1.0  0.09726  0.07313  0.26816  1.0000
  C   C62       1.0  0.02560  0.36883  0.04122  1.0000
  S   S26       1.0  0.11849  0.33847  0.00790  1.0000
  H   H111      1.0  0.07698  0.16713  0.44656  1.0000
  H   H112      1.0  0.13174  0.13279  0.45508  1.0000
  H   H113      1.0  0.01913  0.11301  0.23201  1.0000
  H   H114      1.0  0.17356  0.31772  0.17686  1.0000
  H   H115      1.0  0.20376  0.31913  0.08525  1.0000
  H   H116      1.0  0.03561  0.26086  0.20768  1.0000
  C   C63       1.0  0.18310  0.30514  0.10307  1.0000
  H   H117      1.0  0.04935  0.20610  0.22973  1.0000
  C   C64       1.0  0.11627  0.16917  0.22713  1.0000
  C   C65       1.0  0.22700  0.45871  0.35485  1.0000
  C   C66       1.0  0.11832  0.11515  0.23031  1.0000
  H   H118      1.0  0.01725  0.29493  0.24144  1.0000
  S   S27       1.0  0.10940  0.26287  0.01984  1.0000
  C   C67       1.0  0.00875  0.24966  0.21121  1.0000
  H   H119      1.0  0.03823  0.09342  0.07292  1.0000
  H   H120      1.0  0.23001  0.20075  0.98437  1.0000
  H   H121      1.0  0.02993  0.35731  0.41879  1.0000
  C   C68       1.0  0.01256  0.13928  0.44355  1.0000
  C   C69       1.0  0.15405  0.19048  0.22374  1.0000
  H   H122      1.0  0.21759  0.16423  0.43998  1.0000
  H   H123      1.0  0.04509  0.13924  0.26677  1.0000
  C   C70       1.0  0.15838  0.15117  0.45362  1.0000
  C   C71       1.0  0.02083  0.08239  0.05053  1.0000
  H   H124      1.0  0.12648  0.00798  0.37510  1.0000
  C   C72       1.0  0.17480  0.01533  0.36007  1.0000
  C   C73       1.0  0.21432  0.16646  0.46833  1.0000
  C   C74       1.0  0.99292  0.20793  0.14338  1.0000
  S   S28       1.0  0.99207  0.01720  0.43250  1.0000
  C   C75       1.0  0.21881  0.42045  0.09457  1.0000
  H   H125      1.0  0.98976  0.16933  0.23914  1.0000
  H   H126      1.0  0.99759  0.29841  0.05885  1.0000
  H   H127      1.0  0.22786  0.03872  0.27458  1.0000
  H   H128      1.0  0.12630  0.99275  0.46652  1.0000
  C   C76       1.0  0.17137  0.10645  0.47072  1.0000
  H   H129      1.0  0.99284  0.17095  0.17864  1.0000
  H   H130      1.0  0.99485  0.10791  0.16830  1.0000
  H   H131      1.0  0.11724  0.08068  0.46262  1.0000
  H   H132      1.0  0.10520  0.00502  0.29748  1.0000
  H   H133      1.0  0.22501  0.46746  0.25571  1.0000
  H   H134      1.0  0.18710  0.01313  0.44973  1.0000
  C   C77       1.0  0.99994  0.19752  0.24194  1.0000
  C   C78       1.0  0.10084  0.48789  0.27301  1.0000
  H   H135      1.0  0.23029  0.43238  0.06973  1.0000
  H   H136      1.0  0.23171  0.31793  0.35426  1.0000
  H   H137      1.0  0.98803  0.37468  0.36897  1.0000
  N   N5        1.0  0.17885  0.14287  0.47767  1.0000
  H   H138      1.0  0.98912  0.36551  0.00547  1.0000
  C   C79       1.0  0.23658  0.34916  0.99024  1.0000
  H   H139      1.0  0.98839  0.20133  0.26553  1.0000
  H   H140      1.0  0.02320  0.15903  0.83281  1.0000
  H   H141      1.0  0.07347  0.26215  0.71852  1.0000
  H   H142      1.0  0.21971  0.47116  0.55460  1.0000
  H   H143      1.0  0.16143  0.19424  0.48619  1.0000
  C   C80       1.0  0.17468  0.14869  0.51550  1.0000
  C   C81       1.0  0.20839  0.99293  0.48559  1.0000
  C   C82       1.0  0.07171  0.35861  0.80938  1.0000
  H   H144      1.0  0.04861  0.08774  0.63628  1.0000
  S   S29       1.0  0.99555  0.43969  0.69663  1.0000
  H   H145      1.0  0.01798  0.07725  0.66878  1.0000
  H   H146      1.0  0.03176  0.42520  0.83550  1.0000
  C   C83       1.0  0.00634  0.28038  0.66200  1.0000
  H   H147      1.0  0.11959  0.12254  0.50799  1.0000
  S   S30       1.0  0.06557  0.47617  0.74243  1.0000
  C   C84       1.0  0.03777  0.43277  0.48192  1.0000
  S   S31       1.0  0.12237  0.29453  0.94172  1.0000
  Fe  Fe14      1.0  0.19418  0.30967  0.80605  1.0000
  S   S32       1.0  0.16634  0.33002  0.83711  1.0000
  S   S33       1.0  0.20688  0.27179  0.83274  1.0000
  Fe  Fe15      1.0  0.18297  0.33899  0.73851  1.0000
  S   S34       1.0  0.15473  0.36087  0.76530  1.0000
  S   S35       1.0  0.19495  0.34165  0.68069  1.0000
  Fe  Fe16      1.0  0.19451  0.37909  0.80708  1.0000
  S   S36       1.0  0.21256  0.43118  0.83629  1.0000
  Fe  Fe17      1.0  0.12880  0.31055  0.79350  1.0000
  S   S37       1.0  0.07219  0.27600  0.79239  1.0000
  S   S38       1.0  0.14407  0.00100  0.68531  1.0000
  S   S39       1.0  0.15500  0.28776  0.76385  1.0000
  S   S40       1.0  0.12907  0.35935  0.54243  1.0000
  S   S41       1.0  0.05322  0.06375  0.51470  1.0000
  H   H148      1.0  0.02135  0.40534  0.48792  1.0000
  H   H149      1.0  0.20235  0.41187  0.68192  1.0000
  S   S42       1.0  0.03435  0.04514  0.74432  1.0000
  H   H150      1.0  0.05026  0.26267  0.58188  1.0000
  H   H151      1.0  0.00618  0.31119  0.77489  1.0000
  C   C85       1.0  0.22103  0.99564  0.84737  1.0000
  C   C86       1.0  0.03765  0.12196  0.95095  1.0000
  H   H152      1.0  0.11876  0.48869  0.59868  1.0000
  Fe  Fe18      1.0  0.03066  0.42373  0.71780  1.0000
  H   H153      1.0  0.02627  0.19044  0.80330  1.0000
  S   S43       1.0  0.00586  0.44092  0.59590  1.0000
  H   H154      1.0  0.19352  0.43719  0.72792  1.0000
  C   C87       1.0  0.03936  0.02717  0.53950  1.0000
  C   C88       1.0  0.05805  0.02821  0.56823  1.0000
  H   H155      1.0  0.00116  0.29091  0.68588  1.0000
  H   H156      1.0  0.01155  0.06613  0.95006  1.0000
  H   H157      1.0  0.10454  0.44461  0.58768  1.0000
  H   H158      1.0  0.16717  0.00789  0.75796  1.0000
  H   H159      1.0  0.08162  0.05093  0.57396  1.0000
  C   C89       1.0  0.03620  0.15211  0.95803  1.0000
  H   H160      1.0  0.18942  0.17664  0.52270  1.0000
  C   C90       1.0  0.11266  0.46633  0.48102  1.0000
  C   C91       1.0  0.17519  0.34523  0.64267  1.0000
  C   C92       1.0  0.18705  0.34253  0.61001  1.0000
  C   C93       1.0  0.17316  0.34652  0.57913  1.0000
  C   C94       1.0  0.14731  0.35357  0.58049  1.0000
  C   C95       1.0  0.13561  0.35658  0.61318  1.0000
  C   C96       1.0  0.14936  0.35236  0.64408  1.0000
  H   H161      1.0  0.20719  0.33731  0.60855  1.0000
  H   H162      1.0  0.18256  0.34425  0.55426  1.0000
  H   H163      1.0  0.11605  0.36267  0.61459  1.0000
  H   H164      1.0  0.14054  0.35542  0.66897  1.0000
  H   H165      1.0  0.06144  0.00034  0.61081  1.0000
  H   H166      1.0  0.00027  0.06565  0.60220  1.0000
  H   H167      1.0  0.09367  0.22781  0.88630  1.0000
  H   H168      1.0  0.01968  0.32103  0.91053  1.0000
  Fe  Fe19      1.0  0.02788  0.45434  0.64998  1.0000
  H   H169      1.0  0.13021  0.07449  0.50493  1.0000
  C   C97       1.0  0.04741  0.27443  0.85862  1.0000
  C   C98       1.0  0.04052  0.26418  0.82368  1.0000
  H   H170      1.0  0.14590  0.43949  0.75599  1.0000
  H   H171      1.0  0.07268  0.28996  0.86764  1.0000
  C   C99       1.0  0.08980  0.41856  0.52223  1.0000
  H   H172      1.0  0.21541  0.26492  0.95296  1.0000
  H   H173      1.0  0.15472  0.45039  0.91080  1.0000
  S   S44       1.0  0.08851  0.36170  0.93063  1.0000
  H   H174      1.0  0.20905  0.04228  0.48472  1.0000
  H   H175      1.0  0.06006  0.33161  0.81757  1.0000
  H   H176      1.0  0.22374  0.03385  0.78352  1.0000
  C   C100      1.0  0.04320  0.27518  0.60261  1.0000
  C   C101      1.0  0.01011  0.08906  0.95588  1.0000
  H   H177      1.0  0.02945  0.20443  0.47958  1.0000
  C   C102      1.0  0.18379  0.02108  0.70573  1.0000
  C   C103      1.0  0.18835  0.02025  0.74149  1.0000
  H   H178      1.0  0.04065  0.22187  0.73202  1.0000
  C   C104      1.0  0.01986  0.47616  0.56860  1.0000
  H   H179      1.0  0.03452  0.18895  0.51963  1.0000
  Fe  Fe20      1.0  0.08334  0.24665  0.96800  1.0000
  H   H180      1.0  0.04601  0.20417  0.84479  1.0000
  H   H181      1.0  0.04150  0.11952  0.83043  1.0000
  H   H182      1.0  0.99588  0.12054  0.53554  1.0000
  H   H183      1.0  0.13608  0.00566  0.51117  1.0000
  H   H184      1.0  0.03477  0.04944  0.66012  1.0000
  Fe  Fe21      1.0  0.09149  0.31847  0.95728  1.0000
  H   H185      1.0  0.16976  0.45153  0.86831  1.0000
  H   H186      1.0  0.04026  0.43548  0.95291  1.0000
  H   H187      1.0  0.04513  0.11843  0.48403  1.0000
  H   H188      1.0  0.22594  0.23405  0.93701  1.0000
  C   C105      1.0  0.00494  0.38686  0.92905  1.0000
  H   H189      1.0  0.13123  0.26498  0.87587  1.0000
  S   S45       1.0  0.01820  0.37533  0.74731  1.0000
  H   H190      1.0  0.19987  0.99438  0.83458  1.0000
  C   C106      1.0  0.23284  0.23267  0.85726  1.0000
  H   H191      1.0  0.23288  0.01428  0.97129  1.0000
  H   H192      1.0  0.02180  0.22964  0.63351  1.0000
  H   H193      1.0  0.04155  0.11229  0.87609  1.0000
  H   H194      1.0  0.14581  0.41880  0.81248  1.0000
  C   C107      1.0  0.20528  0.44958  0.64665  1.0000
  H   H195      1.0  0.01329  0.30135  0.64324  1.0000
  C   C108      1.0  0.13913  0.13600  0.52788  1.0000
  C   C109      1.0  0.12403  0.43371  0.77165  1.0000
  S   S46       1.0  0.07070  0.19268  0.94836  1.0000
  H   H196      1.0  0.00943  0.09019  0.53194  1.0000
  C   C110      1.0  0.02410  0.24832  0.69794  1.0000
  C   C111      1.0  0.99942  0.35435  0.91790  1.0000
  H   H197      1.0  0.07244  0.11192  0.84961  1.0000
  H   H198      1.0  0.00159  0.23567  0.78598  1.0000
  H   H199      1.0  0.06023  0.12408  0.94145  1.0000
  H   H200      1.0  0.05392  0.14724  0.52004  1.0000
  C   C112      1.0  0.00409  0.10757  0.51667  1.0000
  H   H201      1.0  0.06839  0.41769  0.79795  1.0000
  H   H202      1.0  0.11314  0.42147  0.53327  1.0000
  C   C113      1.0  0.00332  0.47258  0.53711  1.0000
  H   H203      1.0  0.06240  0.30278  0.60365  1.0000
  C   C114      1.0  0.04012  0.18513  0.82334  1.0000
  S   S47       1.0  0.22450  0.35991  0.77871  1.0000
  C   C115      1.0  0.05497  0.36915  0.93501  1.0000
  H   H204      1.0  0.01927  0.27247  0.59450  1.0000
  H   H205      1.0  0.22395  0.43603  0.75633  1.0000
  H   H206      1.0  0.06487  0.17211  0.87641  1.0000
  C   C116      1.0  0.03590  0.13353  0.49858  1.0000
  H   H207      1.0  0.20828  0.43004  0.53571  1.0000
  H   H208      1.0  0.05150  0.36223  0.79984  1.0000
  C   C117      1.0  0.98796  0.33216  0.73645  1.0000
  C   C118      1.0  0.11462  0.47844  0.54292  1.0000
  C   C119      1.0  0.02201  0.18028  0.49381  1.0000
  H   H209      1.0  0.10336  0.40898  0.76169  1.0000
  S   S48       1.0  0.06474  0.00478  0.67960  1.0000
  C   C120      1.0  0.22157  0.43199  0.66570  1.0000
  C   C121      1.0  0.00730  0.24400  0.81285  1.0000
  N   N6        1.0  0.10438  0.42037  0.83564  1.0000
  C   C122      1.0  0.11789  0.43850  0.87028  1.0000
  C   C123      1.0  0.07880  0.42921  0.82385  1.0000
  C   C124      1.0  0.13247  0.43347  0.81038  1.0000
  C   C125      1.0  0.22049  0.03492  0.75591  1.0000
  C   C126      1.0  0.04897  0.41807  0.84761  1.0000
  C   C127      1.0  0.09485  0.20450  0.48880  1.0000
  H   H210      1.0  0.09893  0.42730  0.89051  1.0000
  H   H211      1.0  0.09037  0.45755  0.82066  1.0000
  H   H212      1.0  0.15128  0.46078  0.81680  1.0000
  H   H213      1.0  0.00858  0.03157  0.60390  1.0000
  H   H214      1.0  0.10896  0.37595  0.84862  1.0000
  H   H215      1.0  0.07200  0.37367  0.86225  1.0000
  C   C128      1.0  0.00691  0.14898  0.97045  1.0000
  H   H216      1.0  0.99511  0.99635  0.50893  1.0000
  Fe  Fe22      1.0  0.14011  0.35548  0.48494  1.0000
  H   H217      1.0  0.07405  0.36684  0.50215  1.0000
  N   N7        1.0  0.03394  0.27315  0.66872  1.0000
  C   C129      1.0  0.06485  0.30668  0.67780  1.0000
  C   C130      1.0  0.04069  0.25735  0.63715  1.0000
  C   C131      1.0  0.05022  0.23916  0.70962  1.0000
  C   C132      1.0  0.21154  0.45577  0.53002  1.0000
  C   C133      1.0  0.06439  0.32529  0.71168  1.0000
  C   C134      1.0  0.14810  0.43748  0.88478  1.0000
  C   C135      1.0  0.08025  0.39230  0.49185  1.0000
  H   H218      1.0  0.05963  0.30932  0.73474  1.0000
  H   H219      1.0  0.08662  0.30304  0.67935  1.0000
  H   H220      1.0  0.07058  0.32551  0.65699  1.0000
  H   H221      1.0  0.18221  0.42941  0.63374  1.0000
  H   H222      1.0  0.06433  0.25742  0.64054  1.0000
  C   C136      1.0  0.02659  0.06627  0.64814  1.0000
  H   H223      1.0  0.05539  0.22510  0.68891  1.0000
  H   H224      1.0  0.22576  0.02623  0.54434  1.0000
  H   H225      1.0  0.07729  0.46216  0.58404  1.0000
  H   H226      1.0  0.04646  0.33446  0.71015  1.0000
  H   H227      1.0  0.13695  0.15799  0.53846  1.0000
  H   H228      1.0  0.08897  0.34856  0.71601  1.0000
  H   H229      1.0  0.08792  0.22018  0.50550  1.0000
  H   H230      1.0  0.20858  0.03800  0.65717  1.0000
  H   H231      1.0  0.20888  0.21733  0.86851  1.0000
  H   H232      1.0  0.00170  0.22347  0.69057  1.0000
  H   H233      1.0  0.01670  0.25796  0.72106  1.0000
  H   H234      1.0  0.11816  0.45439  0.76682  1.0000
  H   H235      1.0  0.06421  0.47814  0.51497  1.0000
  H   H236      1.0  0.22990  0.45243  0.47975  1.0000
  H   H237      1.0  0.21362  0.33282  0.93968  1.0000
  H   H238      1.0  0.14340  0.41095  0.88820  1.0000
  H   H239      1.0  0.13661  0.46690  0.48279  1.0000
  H   H240      1.0  0.02747  0.10465  0.73531  1.0000
  H   H241      1.0  0.08878  0.36151  0.78838  1.0000
  H   H242      1.0  0.10209  0.18899  0.50470  1.0000
  H   H243      1.0  0.05608  0.43158  0.87325  1.0000
  H   H244      1.0  0.04688  0.43917  0.53632  1.0000
  N   N8        1.0  0.09562  0.18545  0.83086  1.0000
  C   C137      1.0  0.11311  0.17000  0.81115  1.0000
  H   H245      1.0  0.08435  0.42012  0.95779  1.0000
  C   C138      1.0  0.12151  0.22090  0.84361  1.0000
  C   C139      1.0  0.07101  0.18732  0.80679  1.0000
  C   C140      1.0  0.13377  0.19064  0.78020  1.0000
  C   C141      1.0  0.05750  0.12461  0.85361  1.0000
  H   H246      1.0  0.18691  0.45128  0.52219  1.0000
  H   H247      1.0  0.03496  0.38981  0.85087  1.0000
  H   H248      1.0  0.12983  0.16615  0.82884  1.0000
  H   H249      1.0  0.09517  0.14400  0.80018  1.0000
  H   H250      1.0  0.13327  0.11780  0.54934  1.0000
  C   C142      1.0  0.21178  0.03718  0.68482  1.0000
  H   H251      1.0  0.14047  0.21936  0.85983  1.0000
  H   H252      1.0  0.13492  0.23750  0.82168  1.0000
  H   H253      1.0  0.08312  0.21161  0.79206  1.0000
  H   H254      1.0  0.06149  0.16621  0.78666  1.0000
  H   H255      1.0  0.14025  0.17407  0.76421  1.0000
  H   H256      1.0  0.12027  0.19919  0.76318  1.0000
  H   H257      1.0  0.15741  0.21324  0.78908  1.0000
  H   H258      1.0  0.22106  0.46601  0.62585  1.0000
  H   H259      1.0  0.00531  0.17191  0.97564  1.0000
  H   H260      1.0  0.18513  0.13629  0.53200  1.0000
  C   C143      1.0  0.03534  0.41008  0.94474  1.0000
  C   C144      1.0  0.00317  0.08324  0.74003  1.0000
  C   C145      1.0  0.00935  0.99739  0.53154  1.0000
  Fe  Fe23      1.0  0.03722  0.99694  0.72891  1.0000
  C   C146      1.0  0.10273  0.46736  0.58018  1.0000
  H   H261      1.0  0.02731  0.27325  0.90895  1.0000
  N   N9        1.0  0.09400  0.45334  0.51411  1.0000
  H   H262      1.0  0.09670  0.25120  0.84749  1.0000
  C   C147      1.0  0.23662  0.34456  0.95429  1.0000
  C   C148      1.0  0.10943  0.24182  0.86450  1.0000
  C   C149      1.0  0.02414  0.34557  0.92081  1.0000
  H   H263      1.0  0.19817  0.46443  0.66441  1.0000
  H   H264      1.0  0.22698  0.41771  0.64537  1.0000
  C   C150      1.0  0.06120  0.45192  0.51298  1.0000
  H   H265      1.0  0.09897  0.16618  0.88090  1.0000
  C   C151      1.0  0.08978  0.38226  0.84074  1.0000
  H   H266      1.0  0.07098  0.40586  0.54253  1.0000
  C   C152      1.0  0.07983  0.16347  0.86179  1.0000
  S   S49       1.0  0.05992  0.43415  0.66930  1.0000
  C   C153      1.0  0.02148  0.26502  0.88210  1.0000
  H   H267      1.0  0.12495  0.46617  0.86908  1.0000
  C   C154      1.0  0.06034  0.40135  0.94740  1.0000
  C   C155      1.0  0.23736  0.47202  0.50126  1.0000
  H   H268      1.0  0.21548  0.47031  0.75997  1.0000
  H   H269      1.0  0.18705  0.10022  0.48726  1.0000
  C   C156      1.0  0.99914  0.05033  0.74497  1.0000
  H   H270      1.0  0.09583  0.99378  0.49330  1.0000
  C   C157      1.0  0.99994  0.04631  0.61986  1.0000
  C   C158      1.0  0.21787  0.45276  0.74097  1.0000
  C   C159      1.0  0.04628  0.99985  0.58965  1.0000
  Fe  Fe24      1.0  0.09271  0.48743  0.69200  1.0000
  C   C160      1.0  0.23641  0.26130  0.94567  1.0000
  C   C161      1.0  0.98825  0.24577  0.87119  1.0000
  H   H271      1.0  0.14049  0.48371  0.54202  1.0000
  H   H272      1.0  0.21147  0.82932  0.01853  1.0000
  H   H273      1.0  0.06840  0.62388  0.02070  1.0000
  S   S50       1.0  0.03690  0.60348  0.32658  1.0000
  H   H274      1.0  0.18799  0.77443  0.47048  1.0000
  S   S51       1.0  0.01160  0.93863  0.30424  1.0000
  H   H275      1.0  0.04002  0.55684  0.11484  1.0000
  Fe  Fe25      1.0  0.17667  0.77730  0.33307  1.0000
  S   S52       1.0  0.17278  0.82112  0.35706  1.0000
  S   S53       1.0  0.19917  0.75287  0.36734  1.0000
  Fe  Fe26      1.0  0.14566  0.78181  0.26641  1.0000
  S   S54       1.0  0.13931  0.82569  0.28501  1.0000
  S   S55       1.0  0.12860  0.75374  0.21491  1.0000
  Fe  Fe27      1.0  0.19064  0.84854  0.30715  1.0000
  S   S56       1.0  0.22775  0.90569  0.29683  1.0000
  Fe  Fe28      1.0  0.12059  0.79606  0.33403  1.0000
  S   S57       1.0  0.07445  0.79695  0.35515  1.0000
  S   S58       1.0  0.19822  0.80601  0.28441  1.0000
  S   S59       1.0  0.12386  0.75060  0.31344  1.0000
  S   S60       1.0  0.12520  0.84576  0.09609  1.0000
  Fe  Fe29      1.0  0.18312  0.87781  0.44562  1.0000
  H   H276      1.0  0.99148  0.91247  0.18452  1.0000
  Fe  Fe30      1.0  0.12135  0.80595  0.43208  1.0000
  H   H277      1.0  0.23047  0.74762  0.30338  1.0000
  S   S61       1.0  0.10967  0.75216  0.40899  1.0000
  Fe  Fe31      1.0  0.11315  0.87057  0.43375  1.0000
  S   S62       1.0  0.09288  0.90593  0.41787  1.0000
  C   C162      1.0  0.02057  0.58811  0.99850  1.0000
  S   S63       1.0  0.14480  0.85640  0.40269  1.0000
  C   C163      1.0  0.11959  0.50228  0.47034  1.0000
  H   H278      1.0  0.14884  0.52365  0.37018  1.0000
  S   S64       1.0  0.03503  0.53226  0.34868  1.0000
  H   H279      1.0  0.03656  0.72334  0.33479  1.0000
  Fe  Fe32      1.0  0.04127  0.55283  0.44556  1.0000
  S   S65       1.0  0.06026  0.59353  0.40635  1.0000
  Fe  Fe33      1.0  0.01122  0.56074  0.37719  1.0000
  C   C164      1.0  0.18141  0.52618  0.32764  1.0000
  Fe  Fe34      1.0  0.08118  0.56269  0.38057  1.0000
  S   S66       1.0  0.13677  0.58311  0.36862  1.0000
  S   S67       1.0  0.06194  0.52225  0.42156  1.0000
  H   H280      1.0  0.00038  0.76944  0.21581  1.0000
  H   H281      1.0  0.11081  0.66036  0.43052  1.0000
  H   H282      1.0  0.13666  0.94543  0.36598  1.0000
  H   H283      1.0  0.11107  0.96653  0.33059  1.0000
  Fe  Fe35      1.0  0.11357  0.81596  0.04593  1.0000
  C   C165      1.0  0.19550  0.61971  0.28233  1.0000
  C   C166      1.0  0.16769  0.60561  0.30422  1.0000
  C   C167      1.0  0.17127  0.60250  0.33981  1.0000
  C   C168      1.0  0.20318  0.61308  0.35277  1.0000
  Fe  Fe36      1.0  0.07351  0.80193  0.98073  1.0000
  H   H284      1.0  0.14329  0.59625  0.29355  1.0000
  H   H285      1.0  0.20666  0.61054  0.38002  1.0000
  H   H286      1.0  0.19214  0.62192  0.25498  1.0000
  C   C169      1.0  0.12785  0.77958  0.18210  1.0000
  C   C170      1.0  0.11483  0.76469  0.14945  1.0000
  C   C171      1.0  0.11378  0.78499  0.12297  1.0000
  C   C172      1.0  0.12558  0.82012  0.12926  1.0000
  C   C173      1.0  0.13826  0.83492  0.16201  1.0000
  C   C174      1.0  0.13968  0.81469  0.18835  1.0000
  H   H287      1.0  0.10585  0.73758  0.14455  1.0000
  H   H288      1.0  0.10394  0.77347  0.09769  1.0000
  H   H289      1.0  0.14762  0.86214  0.16678  1.0000
  H   H290      1.0  0.15043  0.82644  0.21323  1.0000
  C   C175      1.0  0.03202  0.76420  0.35920  1.0000
  H   H291      1.0  0.01798  0.79898  0.38258  1.0000
  H   H292      1.0  0.13379  0.53263  0.30408  1.0000
  H   H293      1.0  0.06662  0.67077  0.10626  1.0000
  H   H294      1.0  0.13489  0.64196  0.38867  1.0000
  C   C176      1.0  0.22923  0.94117  0.35776  1.0000
  C   C177      1.0  0.04482  0.67421  0.10713  1.0000
  H   H295      1.0  0.00593  0.81120  0.22139  1.0000
  H   H296      1.0  0.21180  0.91632  0.36781  1.0000
  C   C178      1.0  0.01608  0.80437  0.28423  1.0000
  H   H297      1.0  0.02275  0.56560  0.00308  1.0000
  H   H298      1.0  0.01360  0.66952  0.98191  1.0000
  Fe  Fe37      1.0  0.08934  0.74718  0.00677  1.0000
  H   H299      1.0  0.01258  0.82673  0.27944  1.0000
  H   H300      1.0  0.14801  0.90271  0.34010  1.0000
  H   H301      1.0  0.05335  0.61655  0.11716  1.0000
  C   C179      1.0  0.23070  0.62609  0.33069  1.0000
  C   C180      1.0  0.13178  0.65820  0.44098  1.0000
  C   C181      1.0  0.05460  0.64383  0.35185  1.0000
  C   C182      1.0  0.03691  0.65891  0.36585  1.0000
  C   C183      1.0  0.05321  0.69124  0.38417  1.0000
  C   C184      1.0  0.08748  0.70978  0.38837  1.0000
  C   C185      1.0  0.10500  0.69461  0.37470  1.0000
  C   C186      1.0  0.08892  0.66226  0.35711  1.0000
  H   H302      1.0  0.01076  0.64639  0.36228  1.0000
  H   H303      1.0  0.03945  0.70260  0.39412  1.0000
  H   H304      1.0  0.13147  0.70858  0.37647  1.0000
  H   H305      1.0  0.10342  0.65158  0.34706  1.0000
  C   C187      1.0  0.03478  0.92993  0.33565  1.0000
  C   C188      1.0  0.05114  0.95220  0.36388  1.0000
  C   C189      1.0  0.06787  0.94379  0.38890  1.0000
  C   C190      1.0  0.07006  0.91372  0.38544  1.0000
  C   C191      1.0  0.05487  0.89187  0.35646  1.0000
  C   C192      1.0  0.03721  0.89987  0.33193  1.0000
  N   N10       1.0  0.16424  0.98787  0.33179  1.0000
  H   H306      1.0  0.07911  0.96084  0.41119  1.0000
  H   H307      1.0  0.05617  0.86853  0.35333  1.0000
  H   H308      1.0  0.02449  0.88222  0.31045  1.0000
  H   H309      1.0  0.04339  0.74839  0.21274  1.0000
  C   C193      1.0  0.02045  0.56251  0.12281  1.0000
  N   N11       1.0  0.10305  0.65016  0.24564  1.0000
  C   C194      1.0  0.12531  0.64771  0.27244  1.0000
  C   C195      1.0  0.07655  0.61393  0.23590  1.0000
  C   C196      1.0  0.08797  0.67001  0.26184  1.0000
  C   C197      1.0  0.12396  0.66891  0.21525  1.0000
  C   C198      1.0  0.15206  0.68212  0.28929  1.0000
  C   C199      1.0  0.08844  0.58975  0.22149  1.0000
  C   C200      1.0  0.05302  0.66090  0.24978  1.0000
  C   C201      1.0  0.10556  0.66892  0.18220  1.0000
  H   H310      1.0  0.11054  0.63063  0.29375  1.0000
  H   H311      1.0  0.13901  0.63582  0.26086  1.0000
  H   H312      1.0  0.05900  0.61375  0.21639  1.0000
  H   H313      1.0  0.06142  0.60130  0.25895  1.0000
  H   H314      1.0  0.08561  0.66629  0.29009  1.0000
  H   H315      1.0  0.10432  0.69813  0.25918  1.0000
  H   H316      1.0  0.14128  0.69641  0.22243  1.0000
  H   H317      1.0  0.14003  0.65822  0.20774  1.0000
  H   H318      1.0  0.16603  0.67650  0.30895  1.0000
  H   H319      1.0  0.17014  0.69918  0.27023  1.0000
  H   H320      1.0  0.14162  0.69620  0.30322  1.0000
  H   H321      1.0  0.10055  0.58277  0.24202  1.0000
  H   H322      1.0  0.06668  0.56526  0.21220  1.0000
  H   H323      1.0  0.10506  0.60076  0.19929  1.0000
  H   H324      1.0  0.05113  0.66395  0.22181  1.0000
  H   H325      1.0  0.04628  0.67847  0.26353  1.0000
  H   H326      1.0  0.03435  0.63445  0.25713  1.0000
  H   H327      1.0  0.08980  0.64262  0.17108  1.0000
  H   H328      1.0  0.12398  0.68397  0.16236  1.0000
  H   H329      1.0  0.09121  0.68200  0.18665  1.0000
  H   H330      1.0  0.00416  0.77404  0.46761  1.0000
  H   H331      1.0  0.99932  0.62961  0.42161  1.0000
  S   S68       1.0  0.12224  0.84612  0.99794  1.0000
  H   H332      1.0  0.08669  0.83075  0.23860  1.0000
  N   N12       1.0  0.15606  0.49989  0.30259  1.0000
  H   H333      1.0  0.05814  0.79788  0.18663  1.0000
  H   H334      1.0  0.08636  0.50131  0.27139  1.0000
  N   N13       1.0  0.03619  0.80031  0.25599  1.0000
  H   H335      1.0  0.01567  0.63607  0.06825  1.0000
  C   C202      1.0  0.07026  0.83136  0.25881  1.0000
  H   H336      1.0  0.19155  0.54419  0.38124  1.0000
  H   H337      1.0  0.17435  0.91013  0.03521  1.0000
  H   H338      1.0  0.16862  0.49824  0.37676  1.0000
  H   H339      1.0  0.20497  0.52595  0.32631  1.0000
  C   C203      1.0  0.99956  0.60388  0.46762  1.0000
  C   C204      1.0  0.04416  0.65080  0.00238  1.0000
  H   H340      1.0  0.09766  0.69817  0.47155  1.0000
  C   C205      1.0  0.17177  0.50561  0.26761  1.0000
  H   H341      1.0  0.16990  0.65110  0.41450  1.0000
  H   H342      1.0  0.16464  0.54901  0.25324  1.0000
  H   H343      1.0  0.05001  0.97548  0.36704  1.0000
  C   C206      1.0  0.00685  0.61771  0.15527  1.0000
  S   S69       1.0  0.00624  0.52604  0.27124  1.0000
  H   H344      1.0  0.01338  0.74517  0.26427  1.0000
  H   H345      1.0  0.99650  0.75413  0.01802  1.0000
  H   H346      1.0  0.02919  0.81010  0.30979  1.0000
  C   C207      1.0  0.22289  0.73323  0.35678  1.0000
  H   H347      1.0  0.03872  0.91029  0.47507  1.0000
  H   H348      1.0  0.06050  0.73798  0.24855  1.0000
  H   H349      1.0  0.19332  0.50171  0.26881  1.0000
  Fe  Fe38      1.0  0.98924  0.54817  0.31456  1.0000
  H   H350      1.0  0.21387  0.51588  0.42265  1.0000
  C   C208      1.0  0.00132  0.63523  0.45001  1.0000
  H   H351      1.0  0.12805  0.91517  0.30911  1.0000
  C   C209      1.0  0.04199  0.80917  0.18927  1.0000
  S   S70       1.0  0.16104  0.82803  0.47451  1.0000
  C   C210      1.0  0.01284  0.64103  0.09601  1.0000
  C   C211      1.0  0.02804  0.59740  0.10797  1.0000
  S   S71       1.0  0.08751  0.81982  0.46128  1.0000
  H   H352      1.0  0.19521  0.68478  0.46027  1.0000
  H   H353      1.0  0.12098  0.63173  0.45130  1.0000
  C   C212      1.0  0.02003  0.73026  0.34736  1.0000
  H   H354      1.0  0.12696  0.96171  0.29157  1.0000
  H   H355      1.0  0.12828  0.50674  0.44321  1.0000
  S   S72       1.0  0.13920  0.78788  0.02772  1.0000
  C   C213      1.0  0.12649  0.50489  0.30274  1.0000
  H   H356      1.0  0.04297  0.68391  0.13320  1.0000
  S   S73       1.0  0.07780  0.69172  0.01491  1.0000
  H   H357      1.0  0.18075  0.94207  0.98703  1.0000
  C   C214      1.0  0.15196  0.65974  0.40906  1.0000
  H   H358      1.0  0.06714  0.87428  0.28292  1.0000
  C   C215      1.0  0.22754  0.63040  0.29532  1.0000
  H   H359      1.0  0.05436  0.86669  0.23794  1.0000
  N   N14       1.0  0.22831  0.94469  0.98827  1.0000
  H   H360      1.0  0.19048  0.54119  0.22504  1.0000
  H   H361      1.0  0.99015  0.61350  0.30121  1.0000
  C   C216      1.0  0.04638  0.62119  0.00848  1.0000
  H   H362      1.0  0.20157  0.97164  0.46598  1.0000
  H   H363      1.0  0.20645  0.56144  0.26624  1.0000
  H   H364      1.0  0.16421  0.68545  0.39767  1.0000
  H   H365      1.0  0.22180  0.71669  0.40899  1.0000
  H   H366      1.0  0.02177  0.73320  0.44052  1.0000
  C   C217      1.0  0.20949  0.52462  0.44814  1.0000
  Fe  Fe39      1.0  0.01364  0.49353  0.39153  1.0000
  N   N15       1.0  0.00422  0.60963  0.11690  1.0000
  C   C218      1.0  0.99222  0.58431  0.98219  1.0000
  C   C219      1.0  0.13268  0.98032  0.31361  1.0000
  H   H367      1.0  0.09722  0.88659  0.24996  1.0000
  C   C220      1.0  0.01960  0.79679  0.22126  1.0000
  N   N16       1.0  0.14977  0.68512  0.46926  1.0000
  H   H368      1.0  0.02682  0.65656  0.45468  1.0000
  H   H369      1.0  0.17195  0.93053  0.30669  1.0000
  C   C221      1.0  0.01682  0.71137  0.45739  1.0000
  H   H370      1.0  0.03004  0.59540  0.07939  1.0000
  H   H371      1.0  0.03273  0.63531  0.16390  1.0000
  H   H372      1.0  0.99698  0.64876  0.19245  1.0000
  H   H373      1.0  0.05758  0.83760  0.18928  1.0000
  C   C222      1.0  0.16204  0.72039  0.45463  1.0000
  H   H374      1.0  0.01763  0.59820  0.45526  1.0000
  S   S74       1.0  0.06334  0.77316  0.03045  1.0000
  H   H375      1.0  0.14401  0.71930  0.43521  1.0000
  H   H376      1.0  0.99693  0.54088  0.11244  1.0000
  H   H377      1.0  0.18519  0.72879  0.44023  1.0000
  C   C223      1.0  0.23642  0.73564  0.32405  1.0000
  C   C224      1.0  0.19916  0.91767  0.04563  1.0000
  H   H378      1.0  0.18775  0.55258  0.32068  1.0000
  C   C225      1.0  0.00946  0.77262  0.37419  1.0000
  H   H379      1.0  0.03926  0.70915  0.45668  1.0000
  H   H380      1.0  0.22743  0.55230  0.45205  1.0000
  S   S75       1.0  0.99212  0.52189  0.42001  1.0000
  H   H381      1.0  0.20888  0.94183  0.06144  1.0000
  H   H382      1.0  0.17924  0.96018  0.36594  1.0000
  C   C226      1.0  0.15123  0.92456  0.32423  1.0000
  C   C227      1.0  0.18381  0.54146  0.25254  1.0000
  H   H383      1.0  0.02026  0.56264  0.15151  1.0000
  H   H384      1.0  0.08236  0.78036  0.23293  1.0000
  Fe  Fe40      1.0  0.98874  0.97436  0.30455  1.0000
  C   C228      1.0  0.05732  0.75883  0.23750  1.0000
  H   H385      1.0  0.08208  0.83147  0.28398  1.0000
  H   H386      1.0  0.04941  0.69479  0.08867  1.0000
  C   C229      1.0  0.17156  0.52236  0.36605  1.0000
  C   C230      1.0  0.07198  0.86659  0.25709  1.0000
  C   C231      1.0  0.15813  0.95520  0.34880  1.0000
  H   H387      1.0  0.04980  0.77109  0.28915  1.0000
  H   H388      1.0  0.21423  0.89384  0.00650  1.0000
  H   H389      1.0  0.18208  0.98243  0.28157  1.0000
  H   H390      1.0  0.18479  0.52203  0.44627  1.0000
  C   C232      1.0  0.03823  0.76846  0.26331  1.0000
  C   C233      1.0  0.01564  0.64699  0.98652  1.0000
  C   C234      1.0  0.23350  0.84191  0.00336  1.0000
  S   S76       1.0  0.15280  0.89587  0.47516  1.0000
  C   C235      1.0  0.23123  0.71785  0.38340  1.0000
  H   H391      1.0  0.14162  0.98613  0.40242  1.0000
  C   C236      1.0  0.20987  0.50165  0.47723  1.0000
  H   H392      1.0  0.19579  0.89716  0.06364  1.0000
  H   H393      1.0  0.22439  0.98223  0.02085  1.0000
  H   H394      1.0  0.07621  0.65182  0.47461  1.0000
  C   C237      1.0  0.22333  0.92041  0.01717  1.0000
  H   H395      1.0  0.23049  0.96909  0.40429  1.0000
  H   H396      1.0  0.03966  0.95095  0.47739  1.0000
  Fe  Fe41      1.0  0.01429  0.98951  0.40424  1.0000
  H   H397      1.0  0.99255  0.64707  0.09577  1.0000
  H   H398      1.0  0.11262  0.49518  0.32701  1.0000
  H   H399      1.0  0.99959  0.59412  0.17024  1.0000
  H   H400      1.0  0.02629  0.80156  0.16543  1.0000
  H   H401      1.0  0.09721  0.50461  0.47082  1.0000
  H   H402      1.0  0.11158  0.49068  0.24711  1.0000
  Fe  Fe42      1.0  0.14473  0.81503  0.97823  1.0000
  H   H403      1.0  0.98795  0.67632  0.41508  1.0000
  H   H404      1.0  0.09131  0.93485  0.47786  1.0000
  H   H405      1.0  0.99020  0.75175  0.70834  1.0000
  H   H406      1.0  0.08215  0.84570  0.90463  1.0000
  H   H407      1.0  0.14557  0.94634  0.87247  1.0000
  C   C238      1.0  0.20424  0.95282  0.54920  1.0000
  C   C239      1.0  0.07618  0.90095  0.54011  1.0000
  C   C240      1.0  0.11100  0.92172  0.79923  1.0000
  H   H408      1.0  0.20826  0.97211  0.56990  1.0000
  C   C241      1.0  0.02622  0.77810  0.85954  1.0000
  H   H409      1.0  0.07773  0.94040  0.87690  1.0000
  S   S77       1.0  0.14655  0.51513  0.67505  1.0000
  C   C242      1.0  0.05681  0.78720  0.73569  1.0000
  C   C243      1.0  0.99295  0.71271  0.75441  1.0000
  H   H410      1.0  0.01353  0.71878  0.48402  1.0000
  H   H411      1.0  0.12597  0.94673  0.50423  1.0000
  N   N17       1.0  0.03810  0.75506  0.71314  1.0000
  S   S78       1.0  0.09625  0.77288  0.95555  1.0000
  Fe  Fe43      1.0  0.18595  0.80491  0.82543  1.0000
  S   S79       1.0  0.15705  0.82438  0.85633  1.0000
  H   H412      1.0  0.10761  0.75344  0.88686  1.0000
  Fe  Fe44      1.0  0.16581  0.82379  0.75600  1.0000
  S   S80       1.0  0.13507  0.84266  0.78238  1.0000
  S   S81       1.0  0.17487  0.82208  0.69783  1.0000
  Fe  Fe45      1.0  0.17817  0.86966  0.82045  1.0000
  S   S82       1.0  0.19096  0.92607  0.83054  1.0000
  Fe  Fe46      1.0  0.11628  0.79645  0.81648  1.0000
  S   S83       1.0  0.06296  0.75301  0.82573  1.0000
  S   S84       1.0  0.20973  0.85223  0.79241  1.0000
  S   S85       1.0  0.14435  0.77575  0.78699  1.0000
  S   S86       1.0  0.11608  0.84732  0.55847  1.0000
  S   S87       1.0  0.05151  0.56939  0.50156  1.0000
  H   H413      1.0  0.11933  0.64970  0.91530  1.0000
  C   C244      1.0  0.17799  0.68078  0.48165  1.0000
  S   S88       1.0  0.02138  0.53441  0.73828  1.0000
  H   H414      1.0  0.10664  0.75098  0.68235  1.0000
  Fe  Fe47      1.0  0.02514  0.95156  0.66417  1.0000
  H   H415      1.0  0.99433  0.52832  0.66394  1.0000
  H   H416      1.0  0.09940  0.96929  0.61834  1.0000
  H   H417      1.0  0.99666  0.79696  0.88398  1.0000
  Fe  Fe48      1.0  0.02598  0.92336  0.73381  1.0000
  C   C245      1.0  0.01018  0.89648  0.95900  1.0000
  H   H418      1.0  0.04586  0.62642  0.90954  1.0000
  C   C246      1.0  0.19978  0.70532  0.51118  1.0000
  C   C247      1.0  0.04033  0.53300  0.52603  1.0000
  C   C248      1.0  0.05730  0.53632  0.55699  1.0000
  H   H419      1.0  0.00655  0.91409  0.49480  1.0000
  H   H420      1.0  0.09072  0.92658  0.60797  1.0000
  C   C249      1.0  0.04755  0.50775  0.57774  1.0000
  H   H421      1.0  0.18571  0.70381  0.53465  1.0000
  H   H422      1.0  0.07823  0.56094  0.56475  1.0000
  C   C250      1.0  0.02359  0.84136  0.96050  1.0000
  H   H423      1.0  0.03734  0.64430  0.81700  1.0000
  S   S89       1.0  0.00422  0.93209  0.95190  1.0000
  C   C251      1.0  0.15812  0.82945  0.65959  1.0000
  C   C252      1.0  0.16976  0.82569  0.62720  1.0000
  C   C253      1.0  0.15734  0.83117  0.59606  1.0000
  C   C254      1.0  0.13298  0.84047  0.59692  1.0000
  C   C255      1.0  0.12143  0.84443  0.62937  1.0000
  C   C256      1.0  0.13395  0.83905  0.66052  1.0000
  H   H424      1.0  0.18849  0.81834  0.62613  1.0000
  H   H425      1.0  0.16649  0.82803  0.57139  1.0000
  H   H426      1.0  0.10266  0.85172  0.63038  1.0000
  H   H427      1.0  0.12488  0.84225  0.68516  1.0000
  C   C257      1.0  0.23146  0.84985  0.96894  1.0000
  H   H428      1.0  0.00701  0.60938  0.49532  1.0000
  H   H429      1.0  0.03619  0.79055  0.78563  1.0000
  C   C258      1.0  0.17202  0.91966  0.72653  1.0000
  C   C259      1.0  0.21400  0.54804  0.67460  1.0000
  C   C260      1.0  0.22190  0.53705  0.74384  1.0000
  C   C261      1.0  0.19449  0.94331  0.93377  1.0000
  C   C262      1.0  0.02667  0.74974  0.84452  1.0000
  H   H430      1.0  0.20377  0.93057  0.56193  1.0000
  H   H431      1.0  0.04873  0.80246  0.86145  1.0000
  H   H432      1.0  0.01790  0.89103  0.84043  1.0000
  Fe  Fe49      1.0  0.09099  0.97982  0.70383  1.0000
  C   C263      1.0  0.10101  0.87934  0.85940  1.0000
  H   H433      1.0  0.11359  0.88949  0.91553  1.0000
  H   H434      1.0  0.17951  0.94263  0.53713  1.0000
  H   H435      1.0  0.07369  0.78429  0.75382  1.0000
  H   H436      1.0  0.07358  0.77732  0.67196  1.0000
  H   H437      1.0  0.18712  0.98401  0.50302  1.0000
  C   C264      1.0  0.10163  0.95992  0.56307  1.0000
  C   C265      1.0  0.18997  0.52462  0.72969  1.0000
  C   C266      1.0  0.18586  0.53006  0.69489  1.0000
  H   H438      1.0  0.19765  0.50555  0.50012  1.0000
  H   H439      1.0  0.22264  0.98252  0.71205  1.0000
  H   H440      1.0  0.99702  0.69546  0.83214  1.0000
  H   H441      1.0  0.99902  0.73150  0.67431  1.0000
  H   H442      1.0  0.17480  0.92947  0.75365  1.0000
  H   H443      1.0  0.09510  0.62803  0.87658  1.0000
  H   H444      1.0  0.10635  0.77291  0.72110  1.0000
  H   H445      1.0  0.98902  0.51955  0.57096  1.0000
  H   H446      1.0  0.21334  0.59506  0.77154  1.0000
  H   H447      1.0  0.01071  0.59233  0.73925  1.0000
  C   C267      1.0  0.08678  0.94766  0.59905  1.0000
  H   H448      1.0  0.21404  0.73220  0.50234  1.0000
  H   H449      1.0  0.04199  0.57856  0.61031  1.0000
  C   C268      1.0  0.05250  0.68930  0.90219  1.0000
  C   C269      1.0  0.99718  0.71774  0.84352  1.0000
  H   H450      1.0  0.13912  0.52302  0.48691  1.0000
  C   C270      1.0  0.00043  0.53528  0.63645  1.0000
  C   C271      1.0  0.05104  0.63928  0.83748  1.0000
  H   H451      1.0  0.06023  0.93914  0.59943  1.0000
  C   C272      1.0  0.03671  0.79844  0.75854  1.0000
  H   H452      1.0  0.99810  0.78440  0.65798  1.0000
  C   C273      1.0  0.02478  0.72313  0.73453  1.0000
  H   H453      1.0  0.00078  0.67400  0.90261  1.0000
  H   H454      1.0  0.22954  0.68576  0.75460  1.0000
  H   H455      1.0  0.00693  0.63821  0.90565  1.0000
  H   H456      1.0  0.02935  0.59107  0.64993  1.0000
  S   S90       1.0  0.06210  0.50816  0.66922  1.0000
  C   C274      1.0  0.19503  0.93299  0.97150  1.0000
  H   H457      1.0  0.11603  0.50380  0.53988  1.0000
  C   C275      1.0  0.05050  0.93686  0.52820  1.0000
  H   H458      1.0  0.16924  0.93750  0.92684  1.0000
  H   H459      1.0  0.06177  0.92869  0.97168  1.0000
  H   H460      1.0  0.12708  0.96390  0.56422  1.0000
  H   H461      1.0  0.20261  0.60074  0.72897  1.0000
  H   H462      1.0  0.20051  0.94427  0.65706  1.0000
  H   H463      1.0  0.04342  0.72564  0.75411  1.0000
  C   C276      1.0  0.01070  0.75464  0.69207  1.0000
  H   H464      1.0  0.03714  0.78871  0.64876  1.0000
  H   H465      1.0  0.17034  0.93791  0.70886  1.0000
  H   H466      1.0  0.01939  0.70024  0.71782  1.0000
  H   H467      1.0  0.03211  0.91984  0.54726  1.0000
  H   H468      1.0  0.22453  0.49003  0.87889  1.0000
  H   H469      1.0  0.03448  0.86747  0.50537  1.0000
  H   H470      1.0  0.00711  0.51641  0.62575  1.0000
  H   H471      1.0  0.21113  0.55255  0.64772  1.0000
  C   C277      1.0  0.98985  0.61393  0.97644  1.0000
  C   C278      1.0  0.06189  0.75381  0.68770  1.0000
  H   H472      1.0  0.06958  0.92465  0.81883  1.0000
  C   C279      1.0  0.09350  0.67654  0.48819  1.0000
  N   N18       1.0  0.07766  0.67908  0.89249  1.0000
  C   C280      1.0  0.10400  0.94991  0.50141  1.0000
  C   C281      1.0  0.01533  0.97093  0.58321  1.0000
  H   H473      1.0  0.07360  0.80967  0.72000  1.0000
  H   H474      1.0  0.05745  0.71325  0.88927  1.0000
  H   H475      1.0  0.10456  0.98600  0.56045  1.0000
  H   H476      1.0  0.16868  0.65389  0.49015  1.0000
  H   H477      1.0  0.03264  0.62138  0.85562  1.0000
  C   C282      1.0  0.09407  0.63299  0.90463  1.0000
  H   H478      1.0  0.06236  0.62550  0.82441  1.0000
  H   H479      1.0  0.08197  0.72630  0.71727  1.0000
  H   H480      1.0  0.16862  0.51100  0.74568  1.0000
  H   H481      1.0  0.03625  0.84673  0.84922  1.0000
  H   H482      1.0  0.14783  0.76186  0.89792  1.0000
  H   H483      1.0  0.07407  0.65434  0.94095  1.0000
  H   H484      1.0  0.13687  0.69580  0.52042  1.0000
  H   H485      1.0  0.13043  0.70124  0.90101  1.0000
  H   H486      1.0  0.07322  0.88018  0.97423  1.0000
  C   C283      1.0  0.01389  0.50089  0.51552  1.0000
  S   S91       1.0  0.06632  0.97541  0.75506  1.0000
  S   S92       1.0  0.20366  0.77044  0.85082  1.0000
  C   C284      1.0  0.99183  0.83534  0.95244  1.0000
  H   H487      1.0  0.11867  0.65172  0.50920  1.0000
  C   C285      1.0  0.04201  0.90253  0.96694  1.0000
  C   C286      1.0  0.03365  0.92735  0.49177  1.0000
  N   N19       1.0  0.08243  0.93659  0.53255  1.0000
  H   H488      1.0  0.01119  0.78848  0.74965  1.0000
  H   H489      1.0  0.99982  0.56267  0.57387  1.0000
  N   N20       1.0  0.08036  0.89642  0.85691  1.0000
  H   H490      1.0  0.03214  0.81080  0.68622  1.0000
  C   C287      1.0  0.19962  0.91193  0.71661  1.0000
  C   C288      1.0  0.12853  0.95576  0.87917  1.0000
  H   H491      1.0  0.02514  0.90165  0.88635  1.0000
  H   H492      1.0  0.00095  0.49811  0.49132  1.0000
  H   H493      1.0  0.01180  0.65954  0.86477  1.0000
  H   H494      1.0  0.08684  0.91930  0.90872  1.0000
  S   S93       1.0  0.99564  0.94490  0.71185  1.0000
  C   C289      1.0  0.99722  0.96930  0.55358  1.0000
  C   C290      1.0  0.09214  0.92720  0.88130  1.0000
  H   H495      1.0  0.99571  0.85921  0.87181  1.0000
  H   H496      1.0  0.04873  0.73180  0.66877  1.0000
  H   H497      1.0  0.23748  0.49200  0.70361  1.0000
  H   H498      1.0  0.05168  0.56874  0.65168  1.0000
  H   H499      1.0  0.19679  0.89111  0.73385  1.0000
  H   H500      1.0  0.06178  0.51027  0.60056  1.0000
  H   H501      1.0  0.00838  0.73301  0.97268  1.0000
  Fe  Fe50      1.0  0.03208  0.49285  0.71726  1.0000
  C   C291      1.0  0.12580  0.67732  0.49826  1.0000
  H   H502      1.0  0.05814  0.84907  0.51987  1.0000
  C   C292      1.0  0.11098  0.70824  0.90444  1.0000
  H   H503      1.0  0.13190  0.94400  0.81257  1.0000
  C   C293      1.0  0.05991  0.87335  0.51103  1.0000
  C   C294      1.0  0.11608  0.98779  0.49302  1.0000
  C   C295      1.0  0.01620  0.66327  0.89311  1.0000
  H   H504      1.0  0.08109  0.67815  0.51198  1.0000
  H   H505      1.0  0.12927  0.73977  0.85796  1.0000
  H   H506      1.0  0.06086  0.88312  0.80421  1.0000
  C   C296      1.0  0.04584  0.86995  0.86671  1.0000
  H   H507      1.0  0.13715  0.96859  0.90508  1.0000
  H   H508      1.0  0.12615  0.89600  0.85010  1.0000
  H   H509      1.0  0.11796  0.90199  0.79275  1.0000
  H   H510      1.0  0.99458  0.73352  0.77162  1.0000
  H   H511      1.0  0.20041  0.92766  0.91563  1.0000
  H   H512      1.0  0.98771  0.69067  0.77094  1.0000
  H   H513      1.0  0.14797  0.89538  0.72452  1.0000
  S   S94       1.0  0.05258  0.92649  0.68474  1.0000
  C   C297      1.0  0.07142  0.64797  0.91268  1.0000
  H   H514      1.0  0.04527  0.86084  0.89331  1.0000
  H   H515      1.0  0.21117  0.97097  0.92938  1.0000
  H   H516      1.0  0.21816  0.69784  0.51892  1.0000
  H   H517      1.0  0.05487  0.96321  0.53407  1.0000
  C   C298      1.0  0.09058  0.75074  0.70354  1.0000
  Fe  Fe51      1.0  0.12880  0.84504  0.50134  1.0000
  C   C299      1.0  0.07817  0.67395  0.85380  1.0000
  C   C300      1.0  0.07886  0.90615  0.81993  1.0000
  C   C301      1.0  0.10508  0.86831  0.89589  1.0000
  C   C302      1.0  0.02064  0.78667  0.67017  1.0000
  H   H518      1.0  0.07684  0.69493  0.84020  1.0000
  H   H519      1.0  0.12398  0.86029  0.89507  1.0000
  S   S95       1.0  0.19342  0.84114  0.94964  1.0000
  C   C303      1.0  0.12407  0.74246  0.88547  1.0000
  C   C304      1.0  0.23194  0.96699  0.52222  1.0000
  C   C305      1.0  0.02008  0.88169  0.86604  1.0000
  H   H520      1.0  0.10228  0.67675  0.84617  1.0000
  H   H521      1.0  0.09081  0.85617  0.84175  1.0000
  C   C306      1.0  0.99661  0.77482  0.87228  1.0000
  C   C307      1.0  0.22354  0.96564  0.84878  1.0000
  C   C308      1.0  0.03239  0.57066  0.63670  1.0000
  H   H522      1.0  0.21137  0.71660  0.88032  1.0000
  S   S96       1.0  0.00364  0.87614  0.76773  1.0000
  H   H523      1.0  0.17488  0.74753  0.50702  1.0000
  H   H524      1.0  0.08422  0.60788  0.91753  1.0000
  H   H525      1.0  0.04825  0.82694  0.75876  1.0000
  H   H526      1.0  0.10690  0.93091  0.77419  1.0000
  H   H527      1.0  0.99560  0.72454  0.92845  1.0000
  H   H528      1.0  0.05988  0.89024  0.56275  1.0000
  H   H529      1.0  0.05402  0.69521  0.93056  1.0000
  H   H530      1.0  0.22488  0.53265  0.77074  1.0000
  C   C309      1.0  0.21704  0.61490  0.75265  1.0000
  H   H531      1.0  0.11104  0.71393  0.93275  1.0000
  H   H532      1.0  0.20617  0.63009  0.76291  1.0000
  H   H533      1.0  0.09976  0.90201  0.54728  1.0000
  H   H534      1.0  0.13140  0.97549  0.86043  1.0000
  S   S97       1.0  0.03144  0.80655  0.95675  1.0000
  H   H535      1.0  0.07462  0.88017  0.48721  1.0000
  H   H536      1.0  0.19397  0.89995  0.69010  1.0000
  H   H537      1.0  0.00196  0.66588  0.50937  1.0000
  H   H538      1.0  0.22561  0.94621  0.50225  1.0000
  S   S98       1.0  0.99900  0.93692  0.61205  1.0000
  H   H539      1.0  0.23648  0.74729  0.94387  1.0000
  H   H540      1.0  0.22793  0.96469  0.76664  1.0000
  C   C310      1.0  0.23424  0.73350  0.86772  1.0000
  H   H541      1.0  0.14591  0.75327  0.48067  1.0000
  N   N21       1.0  0.23424  0.94209  0.71916  1.0000
  C   C311      1.0  0.16780  0.74986  0.48036  1.0000
  C   C312      1.0  0.22654  0.96482  0.66086  1.0000
  C   C313      1.0  0.23737  0.76234  0.85039  1.0000
  H   H542      1.0  0.18004  0.90432  0.97067  1.0000
  C   C314      1.0  0.04858  0.87509  0.96835  1.0000
  C   C315      1.0  0.23718  0.97210  0.69946  1.0000
  H   H543      1.0  0.23654  0.87872  0.72257  1.0000
  H   H544      1.0  0.23727  0.68770  0.80122  1.0000
  H   H545      1.0  0.23553  0.93035  0.77327  1.0000
  H   H546      1.0  0.98851  0.80871  0.50425  1.0000
  H   H547      1.0  0.22872  0.98853  0.64984  1.0000
  C   C316      1.0  0.41106  0.27912  0.02017  1.0000
  S   S99       1.0  0.44237  0.46237  0.26839  1.0000
  H   H548      1.0  0.46510  0.12560  0.19778  1.0000
  H   H549      1.0  0.43635  0.26658  0.98151  1.0000
  S   S100      1.0  0.36738  0.46024  0.31516  1.0000
  S   S101      1.0  0.43359  0.02838  0.30974  1.0000
  H   H550      1.0  0.27390  0.34670  0.36566  1.0000
  Fe  Fe52      1.0  0.34609  0.15446  0.45239  1.0000
  S   S102      1.0  0.35652  0.19654  0.41678  1.0000
  Fe  Fe53      1.0  0.31098  0.09952  0.39627  1.0000
  S   S103      1.0  0.31950  0.13919  0.35676  1.0000
  C   C317      1.0  0.28911  0.46871  0.21440  1.0000
  Fe  Fe54      1.0  0.37310  0.17015  0.37855  1.0000
  S   S104      1.0  0.42578  0.21759  0.36885  1.0000
  Fe  Fe55      1.0  0.30470  0.16571  0.39758  1.0000
  S   S105      1.0  0.27865  0.19748  0.40611  1.0000
  S   S106      1.0  0.36399  0.12820  0.41636  1.0000
  S   S107      1.0  0.29331  0.12426  0.43594  1.0000
  Fe  Fe56      1.0  0.31523  0.17913  0.27641  1.0000
  S   S108      1.0  0.34343  0.22233  0.23900  1.0000
  S   S109      1.0  0.25785  0.15088  0.27669  1.0000
  Fe  Fe57      1.0  0.37795  0.17575  0.29685  1.0000
  S   S110      1.0  0.41004  0.21925  0.26088  1.0000
  S   S111      1.0  0.38542  0.13404  0.32550  1.0000
  Fe  Fe58      1.0  0.38390  0.24720  0.28026  1.0000
  S   S112      1.0  0.40551  0.30634  0.28791  1.0000
  Fe  Fe59      1.0  0.36850  0.19323  0.22147  1.0000
  S   S113      1.0  0.38145  0.18318  0.16670  1.0000
  S   S114      1.0  0.35438  0.20647  0.31838  1.0000
  S   S115      1.0  0.33820  0.14880  0.25577  1.0000
  S   S116      1.0  0.33085  0.20051  0.01806  1.0000
  H   H551      1.0  0.47772  0.36309  0.39139  1.0000
  C   C318      1.0  0.40879  0.11542  0.34303  1.0000
  C   C319      1.0  0.44226  0.12838  0.33665  1.0000
  C   C320      1.0  0.45981  0.11330  0.35076  1.0000
  C   C321      1.0  0.44458  0.08439  0.37184  1.0000
  C   C322      1.0  0.41063  0.07069  0.37739  1.0000
  C   C323      1.0  0.39303  0.08580  0.36311  1.0000
  H   H552      1.0  0.45479  0.14933  0.31968  1.0000
  H   H553      1.0  0.39743  0.04773  0.39220  1.0000
  H   H554      1.0  0.36691  0.07432  0.36768  1.0000
  C   C324      1.0  0.42936  0.34104  0.31852  1.0000
  C   C325      1.0  0.43075  0.37290  0.31440  1.0000
  C   C326      1.0  0.44774  0.40063  0.33858  1.0000
  C   C327      1.0  0.46539  0.39791  0.36652  1.0000
  C   C328      1.0  0.44637  0.33786  0.34682  1.0000
  H   H555      1.0  0.41857  0.37643  0.29245  1.0000
  H   H556      1.0  0.44792  0.42455  0.33507  1.0000
  C   C329      1.0  0.26350  0.00392  0.36676  1.0000
  C   C330      1.0  0.30724  0.30585  0.41854  1.0000
  C   C331      1.0  0.36507  0.18639  0.12607  1.0000
  C   C332      1.0  0.36933  0.17025  0.09644  1.0000
  C   C333      1.0  0.35846  0.17370  0.06334  1.0000
  C   C334      1.0  0.34362  0.19386  0.05937  1.0000
  C   C335      1.0  0.33924  0.20989  0.08900  1.0000
  C   C336      1.0  0.34975  0.20611  0.12216  1.0000
  H   H557      1.0  0.38119  0.15500  0.09909  1.0000
  H   H558      1.0  0.36190  0.16108  0.04087  1.0000
  H   H559      1.0  0.32764  0.22539  0.08633  1.0000
  H   H560      1.0  0.34629  0.21870  0.14463  1.0000
  C   C337      1.0  0.46308  0.22354  0.34952  1.0000
  C   C338      1.0  0.25667  0.21087  0.37859  1.0000
  C   C339      1.0  0.44690  0.99832  0.17926  1.0000
  Fe  Fe60      1.0  0.48492  0.04680  0.33260  1.0000
  C   C340      1.0  0.46286  0.20902  0.31715  1.0000
  H   H561      1.0  0.26699  0.36809  0.03655  1.0000
  H   H562      1.0  0.43982  0.19296  0.30378  1.0000
  H   H563      1.0  0.44603  0.31380  0.35041  1.0000
  C   C341      1.0  0.39001  0.28133  0.44368  1.0000
  H   H564      1.0  0.29260  0.03102  0.32319  1.0000
  H   H565      1.0  0.41909  0.00737  0.14052  1.0000
  C   C342      1.0  0.33362  0.29672  0.42956  1.0000
  C   C343      1.0  0.33595  0.45079  0.34679  1.0000
  C   C344      1.0  0.34252  0.45955  0.38219  1.0000
  C   C345      1.0  0.31624  0.44957  0.40577  1.0000
  C   C346      1.0  0.28293  0.42999  0.39469  1.0000
  C   C347      1.0  0.27666  0.42092  0.35945  1.0000
  C   C348      1.0  0.30273  0.43218  0.33575  1.0000
  H   H566      1.0  0.43002  0.20171  0.98521  1.0000
  H   H567      1.0  0.32177  0.45669  0.43291  1.0000
  H   H568      1.0  0.25163  0.40499  0.35035  1.0000
  H   H569      1.0  0.29694  0.42583  0.30855  1.0000
  C   C349      1.0  0.25375  0.20101  0.98367  1.0000
  H   H570      1.0  0.26797  0.29815  0.98428  1.0000
  C   C350      1.0  0.30802  0.27428  0.00616  1.0000
  H   H571      1.0  0.40806  0.28749  0.46520  1.0000
  H   H572      1.0  0.41213  0.34896  0.13986  1.0000
  C   C351      1.0  0.45027  0.20710  0.00369  1.0000
  H   H573      1.0  0.45369  0.35314  0.24108  1.0000
  H   H574      1.0  0.29839  0.29796  0.39161  1.0000
  H   H575      1.0  0.46506  0.19696  0.99107  1.0000
  H   H576      1.0  0.24521  0.25601  0.99970  1.0000
  C   C352      1.0  0.25741  0.32645  0.34649  1.0000
  S   S117      1.0  0.43334  0.01439  0.21307  1.0000
  H   H577      1.0  0.35421  0.34805  0.20742  1.0000
  H   H578      1.0  0.36416  0.00554  0.30162  1.0000
  H   H579      1.0  0.36782  0.47396  0.39138  1.0000
  C   C353      1.0  0.44965  0.46983  0.10213  1.0000
  H   H580      1.0  0.36930  0.34681  0.16550  1.0000
  C   C354      1.0  0.43790  0.22948  0.45897  1.0000
  H   H581      1.0  0.34465  0.31908  0.03637  1.0000
  H   H582      1.0  0.37123  0.08189  0.19603  1.0000
  H   H583      1.0  0.33990  0.48785  0.22643  1.0000
  C   C355      1.0  0.33869  0.28264  0.34725  1.0000
  H   H584      1.0  0.24012  0.32383  0.29434  1.0000
  C   C356      1.0  0.27507  0.00611  0.33303  1.0000
  H   H585      1.0  0.41645  0.09145  0.27807  1.0000
  C   C357      1.0  0.46176  0.36008  0.13634  1.0000
  S   S118      1.0  0.40057  0.37611  0.98775  1.0000
  H   H586      1.0  0.27320  0.03460  0.99150  1.0000
  H   H587      1.0  0.36231  0.09186  0.26092  1.0000
  H   H588      1.0  0.32827  0.26814  0.00514  1.0000
  C   C358      1.0  0.48220  0.30154  0.03435  1.0000
  H   H589      1.0  0.42386  0.45824  0.19830  1.0000
  H   H590      1.0  0.25694  0.26390  0.25055  1.0000
  H   H591      1.0  0.47225  0.17634  0.22348  1.0000
  H   H592      1.0  0.25473  0.13677  0.35188  1.0000
  S   S119      1.0  0.27597  0.04064  0.39502  1.0000
  H   H593      1.0  0.32100  0.26816  0.43113  1.0000
  H   H594      1.0  0.46216  0.41141  0.23797  1.0000
  C   C359      1.0  0.41693  0.43329  0.14823  1.0000
  H   H595      1.0  0.47296  0.31575  0.05018  1.0000
  H   H596      1.0  0.42129  0.26590  0.18877  1.0000
  H   H597      1.0  0.46392  0.37167  0.11061  1.0000
  H   H598      1.0  0.41980  0.20541  0.44512  1.0000
  H   H599      1.0  0.47462  0.14042  0.26530  1.0000
  S   S120      1.0  0.46506  0.99446  0.35953  1.0000
  H   H600      1.0  0.31294  0.27385  0.35375  1.0000
  C   C360      1.0  0.36924  0.33946  0.19273  1.0000
  C   C361      1.0  0.40424  0.35709  0.20916  1.0000
  H   H601      1.0  0.47209  0.33722  0.45080  1.0000
  C   C362      1.0  0.25372  0.01045  0.97869  1.0000
  H   H602      1.0  0.39377  0.06026  0.18773  1.0000
  H   H603      1.0  0.45161  0.05054  0.46783  1.0000
  H   H604      1.0  0.34976  0.30719  0.33337  1.0000
  H   H605      1.0  0.43505  0.09226  0.45654  1.0000
  H   H606      1.0  0.27842  0.45336  0.23786  1.0000
  N   N22       1.0  0.41803  0.10363  0.22383  1.0000
  C   C363      1.0  0.42648  0.43725  0.11358  1.0000
  H   H607      1.0  0.44620  0.16748  0.18597  1.0000
  H   H608      1.0  0.39632  0.26812  0.04360  1.0000
  H   H609      1.0  0.48623  0.37498  0.14934  1.0000
  C   C364      1.0  0.43576  0.29414  0.19435  1.0000
  C   C365      1.0  0.42836  0.25913  0.00871  1.0000
  H   H610      1.0  0.39382  0.06546  0.46962  1.0000
  C   C366      1.0  0.48290  0.10305  0.06232  1.0000
  H   H611      1.0  0.27223  0.47708  0.20395  1.0000
  N   N23       1.0  0.45709  0.26373  0.03076  1.0000
  H   H612      1.0  0.45532  0.33309  0.13138  1.0000
  C   C367      1.0  0.47441  0.11876  0.25075  1.0000
  H   H613      1.0  0.32833  0.33087  0.00137  1.0000
  N   N24       1.0  0.29310  0.34552  0.29132  1.0000
  C   C368      1.0  0.32170  0.36202  0.31684  1.0000
  C   C369      1.0  0.26275  0.34075  0.30962  1.0000
  C   C370      1.0  0.30088  0.36941  0.26131  1.0000
  C   C371      1.0  0.28906  0.31126  0.27960  1.0000
  C   C372      1.0  0.35639  0.37488  0.30206  1.0000
  H   H614      1.0  0.25744  0.98985  0.45775  1.0000
  C   C373      1.0  0.27153  0.36755  0.24089  1.0000
  C   C374      1.0  0.26409  0.29154  0.24995  1.0000
  H   H615      1.0  0.32239  0.38447  0.33042  1.0000
  H   H616      1.0  0.31862  0.34375  0.33737  1.0000
  C   C375      1.0  0.47273  0.24610  0.01135  1.0000
  H   H617      1.0  0.26314  0.36560  0.31239  1.0000
  H   H618      1.0  0.31558  0.39684  0.27048  1.0000
  H   H619      1.0  0.31670  0.36563  0.24237  1.0000
  H   H620      1.0  0.31261  0.31447  0.26988  1.0000
  H   H621      1.0  0.28335  0.29355  0.30153  1.0000
  H   H622      1.0  0.35959  0.35361  0.29152  1.0000
  H   H623      1.0  0.36295  0.39468  0.28221  1.0000
  H   H624      1.0  0.37484  0.38761  0.32346  1.0000
  H   H625      1.0  0.42139  0.16171  0.47068  1.0000
  H   H626      1.0  0.29032  0.45114  0.19449  1.0000
  H   H627      1.0  0.25428  0.34164  0.23006  1.0000
  H   H628      1.0  0.28543  0.29199  0.43519  1.0000
  Fe  Fe61      1.0  0.42430  0.48770  0.30724  1.0000
  H   H629      1.0  0.27466  0.30178  0.22434  1.0000
  H   H630      1.0  0.46731  0.09707  0.26851  1.0000
  S   S121      1.0  0.47042  0.44769  0.00662  1.0000
  H   H631      1.0  0.45683  0.47325  0.07530  1.0000
  H   H632      1.0  0.35647  0.31100  0.19414  1.0000
  H   H633      1.0  0.44142  0.38984  0.15716  1.0000
  H   H634      1.0  0.46272  0.23812  0.07536  1.0000
  S   S122      1.0  0.46557  0.06347  0.39086  1.0000
  H   H635      1.0  0.27343  0.20064  0.33072  1.0000
  C   C376      1.0  0.36641  0.06959  0.26136  1.0000
  H   H636      1.0  0.43395  0.13682  0.41964  1.0000
  H   H637      1.0  0.39821  0.40847  0.15687  1.0000
  C   C377      1.0  0.44738  0.16806  0.46727  1.0000
  C   C378      1.0  0.32162  0.31124  0.02127  1.0000
  N   N25       1.0  0.36417  0.31009  0.40781  1.0000
  H   H638      1.0  0.29192  0.25706  0.02655  1.0000
  H   H639      1.0  0.39659  0.26868  0.42267  1.0000
  C   C379      1.0  0.25825  0.20970  0.34258  1.0000
  H   H640      1.0  0.40315  0.05544  0.24949  1.0000
  H   H641      1.0  0.38691  0.39733  0.40569  1.0000
  H   H642      1.0  0.24059  0.29129  0.25293  1.0000
  H   H643      1.0  0.39728  0.29798  0.16728  1.0000
  H   H644      1.0  0.44564  0.29753  0.22128  1.0000
  H   H645      1.0  0.34890  0.04907  0.24307  1.0000
  H   H646      1.0  0.31961  0.38708  0.00624  1.0000
  H   H647      1.0  0.34009  0.30623  0.45695  1.0000
  C   C380      1.0  0.42462  0.04089  0.46719  1.0000
  H   H648      1.0  0.36029  0.05915  0.28783  1.0000
  H   H649      1.0  0.47924  0.10049  0.03364  1.0000
  H   H650      1.0  0.42414  0.14382  0.26069  1.0000
  H   H651      1.0  0.41227  0.38408  0.42720  1.0000
  C   C381      1.0  0.41265  0.30931  0.19127  1.0000
  C   C382      1.0  0.47639  0.40389  0.22056  1.0000
  H   H652      1.0  0.26109  0.30404  0.34804  1.0000
  C   C383      1.0  0.35946  0.28442  0.37907  1.0000
  H   H653      1.0  0.36519  0.26312  0.45343  1.0000
  H   H654      1.0  0.39303  0.27582  0.99953  1.0000
  C   C384      1.0  0.40239  0.07974  0.25362  1.0000
  H   H655      1.0  0.33782  0.26306  0.32848  1.0000
  H   H656      1.0  0.43121  0.25176  0.11750  1.0000
  H   H657      1.0  0.30341  0.31262  0.03854  1.0000
  C   C385      1.0  0.46423  0.36603  0.37042  1.0000
  C   C386      1.0  0.43473  0.36232  0.15651  1.0000
  C   C387      1.0  0.42005  0.13773  0.23234  1.0000
  C   C388      1.0  0.39242  0.31471  0.43066  1.0000
  H   H658      1.0  0.40131  0.35033  0.23697  1.0000
  S   S123      1.0  0.25039  0.41767  0.42571  1.0000
  H   H659      1.0  0.44112  0.25098  0.44263  1.0000
  C   C389      1.0  0.39652  0.08626  0.19220  1.0000
  H   H660      1.0  0.38369  0.28987  0.36879  1.0000
  C   C390      1.0  0.37412  0.34451  0.39257  1.0000
  Fe  Fe62      1.0  0.42035  0.41702  0.02970  1.0000
  H   H661      1.0  0.47686  0.16674  0.42294  1.0000
  H   H662      1.0  0.40856  0.23163  0.00709  1.0000
  S   S124      1.0  0.40993  0.40108  0.08522  1.0000
  H   H663      1.0  0.35375  0.34371  0.37732  1.0000
  H   H664      1.0  0.46160  0.07936  0.07251  1.0000
  H   H665      1.0  0.39526  0.29760  0.21300  1.0000
  C   C391      1.0  0.44590  0.24696  0.06537  1.0000
  H   H666      1.0  0.48166  0.23268  0.43789  1.0000
  H   H667      1.0  0.41702  0.03330  0.43973  1.0000
  H   H668      1.0  0.44451  0.19237  0.22134  1.0000
  H   H669      1.0  0.43352  0.11427  0.15189  1.0000
  C   C392      1.0  0.26673  0.36442  0.00875  1.0000
  S   S125      1.0  0.39943  0.44708  0.00571  1.0000
  C   C393      1.0  0.43150  0.46145  0.17173  1.0000
  H   H670      1.0  0.29187  0.48792  0.28594  1.0000
  H   H671      1.0  0.48002  0.28981  0.30612  1.0000
  H   H672      1.0  0.42805  0.28035  0.08853  1.0000
  H   H673      1.0  0.41356  0.38531  0.20878  1.0000
  C   C394      1.0  0.44317  0.26873  0.09528  1.0000
  H   H674      1.0  0.39621  0.13645  0.22623  1.0000
  N   N26       1.0  0.42824  0.34822  0.19254  1.0000
  C   C395      1.0  0.24052  0.22058  0.32180  1.0000
  H   H675      1.0  0.45236  0.12692  0.06717  1.0000
  C   C396      1.0  0.40754  0.10548  0.15796  1.0000
  Fe  Fe63      1.0  0.44844  0.00636  0.26581  1.0000
  H   H676      1.0  0.28121  0.38500  0.21866  1.0000
  C   C397      1.0  0.38651  0.37521  0.41865  1.0000
  H   H677      1.0  0.31598  0.33371  0.42231  1.0000
  H   H678      1.0  0.41616  0.32874  0.41686  1.0000
  H   H679      1.0  0.34803  0.25775  0.38891  1.0000
  H   H680      1.0  0.44884  0.08245  0.20885  1.0000
  H   H681      1.0  0.42161  0.22319  0.06242  1.0000
  H   H682      1.0  0.25767  0.37679  0.25680  1.0000
  C   C398      1.0  0.45145  0.10725  0.21839  1.0000
  C   C399      1.0  0.44730  0.16984  0.21448  1.0000
  C   C400      1.0  0.45227  0.16343  0.42839  1.0000
  H   H683      1.0  0.39404  0.35121  0.37372  1.0000
  S   S126      1.0  0.48734  0.43244  0.39822  1.0000
  C   C401      1.0  0.45915  0.36445  0.21488  1.0000
  H   H684      1.0  0.42799  0.30723  0.02342  1.0000
  H   H685      1.0  0.45640  0.30514  0.17617  1.0000
  H   H686      1.0  0.39519  0.33089  0.45409  1.0000
  H   H687      1.0  0.26326  0.20241  0.01035  1.0000
  H   H688      1.0  0.39230  0.08769  0.13642  1.0000
  H   H689      1.0  0.37063  0.36899  0.44160  1.0000
  H   H690      1.0  0.40263  0.12727  0.15781  1.0000
  H   H691      1.0  0.44786  0.18072  0.41202  1.0000
  Fe  Fe64      1.0  0.48758  0.47899  0.30287  1.0000
  C   C402      1.0  0.47142  0.23143  0.46395  1.0000
  H   H692      1.0  0.48156  0.41796  0.19606  1.0000
  H   H693      1.0  0.44002  0.19247  0.02759  1.0000
  H   H694      1.0  0.46781  0.28919  0.10461  1.0000
  H   H695      1.0  0.47797  0.35888  0.20430  1.0000
  C   C403      1.0  0.29662  0.37516  0.99162  1.0000
  H   H696      1.0  0.36390  0.99070  0.45472  1.0000
  C   C404      1.0  0.43582  0.99785  0.14545  1.0000
  H   H697      1.0  0.48513  0.12448  0.34453  1.0000
  H   H698      1.0  0.23990  0.13711  0.47687  1.0000
  H   H699      1.0  0.48364  0.14173  0.10026  1.0000
  H   H700      1.0  0.29220  0.48697  0.46443  1.0000
  H   H701      1.0  0.23917  0.42905  0.11389  1.0000
  H   H702      1.0  0.24168  0.21880  0.29392  1.0000
  H   H703      1.0  0.27376  0.03394  0.46751  1.0000
  H   H704      1.0  0.48405  0.10602  0.13746  1.0000
  H   H705      1.0  0.47198  0.04425  0.03210  1.0000
  Fe  Fe65      1.0  0.44836  0.47594  0.97921  1.0000
  C   C405      1.0  0.41955  0.07178  0.47477  1.0000
  H   H706      1.0  0.46503  0.38585  0.47364  1.0000
  C   C406      1.0  0.47829  0.13391  0.07258  1.0000
  H   H707      1.0  0.48263  0.25867  0.98616  1.0000
  H   H708      1.0  0.32881  0.48671  0.28360  1.0000
  H   H709      1.0  0.31846  0.02653  0.47686  1.0000
  H   H710      1.0  0.32678  0.99128  0.27802  1.0000
  H   H711      1.0  0.48692  0.31366  0.00867  1.0000
  C   C407      1.0  0.23819  0.22457  0.39357  1.0000
  H   H712      1.0  0.23791  0.22705  0.42137  1.0000
  H   H713      1.0  0.48507  0.48305  0.65674  1.0000
  H   H714      1.0  0.29623  0.07067  0.51737  1.0000
  H   H715      1.0  0.34126  0.43818  0.84450  1.0000
  C   C408      1.0  0.25731  0.22344  0.86239  1.0000
  S   S127      1.0  0.33396  0.38471  0.93320  1.0000
  H   H716      1.0  0.30604  0.42115  0.89595  1.0000
  Fe  Fe66      1.0  0.33698  0.09027  0.72569  1.0000
  S   S128      1.0  0.34544  0.11741  0.67575  1.0000
  S   S129      1.0  0.28826  0.06748  0.75418  1.0000
  Fe  Fe67      1.0  0.40858  0.10502  0.72993  1.0000
  S   S130      1.0  0.42231  0.13403  0.68035  1.0000
  S   S131      1.0  0.44689  0.09901  0.76099  1.0000
  Fe  Fe68      1.0  0.39351  0.15864  0.69958  1.0000
  S   S132      1.0  0.40578  0.21286  0.68524  1.0000
  Fe  Fe69      1.0  0.37367  0.09097  0.66069  1.0000
  S   S133      1.0  0.36963  0.06813  0.60708  1.0000
  S   S134      1.0  0.38334  0.13315  0.75121  1.0000
  S   S135      1.0  0.36143  0.06006  0.70897  1.0000
  S   S136      1.0  0.36462  0.17372  0.50641  1.0000
  Fe  Fe70      1.0  0.33834  0.18256  0.96458  1.0000
  S   S137      1.0  0.36195  0.15138  0.94984  1.0000
  Fe  Fe71      1.0  0.32999  0.19682  0.88861  1.0000
  S   S138      1.0  0.35349  0.16606  0.86855  1.0000
  S   S139      1.0  0.32084  0.23317  0.85429  1.0000
  Fe  Fe72      1.0  0.32239  0.12642  0.90783  1.0000
  S   S140      1.0  0.30397  0.06801  0.90131  1.0000
  Fe  Fe73      1.0  0.39127  0.19227  0.91131  1.0000
  S   S141      1.0  0.44737  0.21562  0.91287  1.0000
  S   S142      1.0  0.29658  0.15553  0.92524  1.0000
  S   S143      1.0  0.37009  0.22504  0.92893  1.0000
  H   H717      1.0  0.24313  0.05004  0.86103  1.0000
  H   H718      1.0  0.36662  0.06257  0.92501  1.0000
  C   C409      1.0  0.29358  0.45347  0.94202  1.0000
  C   C410      1.0  0.26264  0.12875  0.78280  1.0000
  C   C411      1.0  0.24558  0.47500  0.83716  1.0000
  H   H719      1.0  0.39348  0.01100  0.83648  1.0000
  C   C412      1.0  0.24830  0.02782  0.53316  1.0000
  C   C413      1.0  0.35302  0.05053  0.81411  1.0000
  N   N27       1.0  0.25191  0.45494  0.68747  1.0000
  H   H720      1.0  0.25460  0.42000  0.90347  1.0000
  C   C414      1.0  0.29447  0.27136  0.82807  1.0000
  C   C415      1.0  0.26621  0.00901  0.47974  1.0000
  H   H721      1.0  0.31818  0.28635  0.81627  1.0000
  H   H722      1.0  0.45467  0.18262  0.57143  1.0000
  C   C416      1.0  0.37206  0.09847  0.57767  1.0000
  C   C417      1.0  0.36554  0.08996  0.54228  1.0000
  C   C418      1.0  0.36386  0.11323  0.51969  1.0000
  C   C419      1.0  0.36882  0.14490  0.53271  1.0000
  C   C420      1.0  0.37729  0.15409  0.56759  1.0000
  C   C421      1.0  0.37907  0.13100  0.58996  1.0000
  H   H723      1.0  0.36103  0.06517  0.53260  1.0000
  H   H724      1.0  0.27520  0.30270  0.80773  1.0000
  H   H725      1.0  0.38177  0.17883  0.57760  1.0000
  H   H726      1.0  0.38544  0.13836  0.61688  1.0000
  C   C422      1.0  0.46061  0.07155  0.74322  1.0000
  H   H727      1.0  0.40199  0.11261  0.90616  1.0000
  C   C423      1.0  0.28800  0.16038  0.69787  1.0000
  H   H728      1.0  0.30927  0.13920  0.73235  1.0000
  C   C424      1.0  0.45723  0.03016  0.69928  1.0000
  C   C425      1.0  0.45010  0.03930  0.53859  1.0000
  C   C426      1.0  0.24558  0.02735  0.86242  1.0000
  H   H729      1.0  0.45204  0.08976  0.96706  1.0000
  H   H730      1.0  0.38729  0.31018  0.81111  1.0000
  C   C427      1.0  0.43448  0.25312  0.70471  1.0000
  N   N28       1.0  0.42882  0.35976  0.82742  1.0000
  C   C428      1.0  0.24034  0.16069  0.48699  1.0000
  H   H731      1.0  0.36400  0.44666  0.88405  1.0000
  H   H732      1.0  0.30418  0.48648  0.67776  1.0000
  C   C429      1.0  0.45157  0.25582  0.73550  1.0000
  H   H733      1.0  0.42737  0.05443  0.69920  1.0000
  C   C430      1.0  0.25946  0.43950  0.92428  1.0000
  H   H734      1.0  0.44721  0.23275  0.74836  1.0000
  C   C431      1.0  0.28007  0.47950  0.66525  1.0000
  C   C432      1.0  0.27002  0.28064  0.82298  1.0000
  C   C433      1.0  0.44480  0.04917  0.84423  1.0000
  C   C434      1.0  0.26657  0.35522  0.93713  1.0000
  C   C435      1.0  0.37634  0.35284  0.85610  1.0000
  C   C436      1.0  0.26223  0.43214  0.70551  1.0000
  H   H735      1.0  0.26073  0.17048  0.75993  1.0000
  H   H736      1.0  0.25778  0.11363  0.75827  1.0000
  H   H737      1.0  0.26631  0.35152  0.90930  1.0000
  H   H738      1.0  0.31359  0.25916  0.73313  1.0000
  H   H739      1.0  0.47644  0.15791  0.84360  1.0000
  H   H740      1.0  0.40821  0.04725  0.80968  1.0000
  H   H741      1.0  0.23843  0.11992  0.79504  1.0000
  H   H742      1.0  0.44004  0.10362  0.86948  1.0000
  H   H743      1.0  0.30112  0.22619  0.96041  1.0000
  C   C437      1.0  0.47452  0.28857  0.74959  1.0000
  H   H744      1.0  0.46830  0.33908  0.68902  1.0000
  C   C438      1.0  0.33539  0.18126  0.78558  1.0000
  H   H745      1.0  0.34206  0.26866  0.93057  1.0000
  N   N29       1.0  0.32309  0.47199  0.91907  1.0000
  H   H746      1.0  0.27951  0.46699  0.63981  1.0000
  C   C439      1.0  0.48566  0.06851  0.76017  1.0000
  C   C440      1.0  0.31020  0.28983  0.94413  1.0000
  H   H747      1.0  0.29896  0.18256  0.68033  1.0000
  H   H748      1.0  0.33178  0.18905  0.81190  1.0000
  H   H749      1.0  0.47656  0.22807  0.66156  1.0000
  H   H750      1.0  0.47142  0.31453  0.92071  1.0000
  C   C441      1.0  0.30007  0.23153  0.73983  1.0000
  Fe  Fe74      1.0  0.44907  0.40854  0.96229  1.0000
  C   C442      1.0  0.24387  0.05200  0.69925  1.0000
  S   S144      1.0  0.47157  0.47880  0.73806  1.0000
  H   H751      1.0  0.33473  0.23679  0.77839  1.0000
  H   H752      1.0  0.36222  0.01380  0.49074  1.0000
  H   H753      1.0  0.38170  0.23128  0.78153  1.0000
  C   C443      1.0  0.27260  0.48682  0.81526  1.0000
  C   C444      1.0  0.46366  0.31605  0.70218  1.0000
  H   H754      1.0  0.32659  0.04279  0.81134  1.0000
  C   C445      1.0  0.35301  0.47854  0.94012  1.0000
  C   C446      1.0  0.39730  0.04455  0.89763  1.0000
  H   H755      1.0  0.34512  0.01315  0.85277  1.0000
  S   S145      1.0  0.43061  0.43905  0.93282  1.0000
  H   H756      1.0  0.27400  0.46918  0.79677  1.0000
  H   H757      1.0  0.47516  0.23018  0.53213  1.0000
  C   C447      1.0  0.32494  0.22146  0.75369  1.0000
  C   C448      1.0  0.48091  0.31882  0.73282  1.0000
  N   N30       1.0  0.23912  0.00011  0.50533  1.0000
  H   H758      1.0  0.24845  0.17572  0.97234  1.0000
  H   H759      1.0  0.26021  0.39927  0.66058  1.0000
  H   H760      1.0  0.39788  0.30152  0.87364  1.0000
  H   H761      1.0  0.44488  0.99787  0.48088  1.0000
  C   C449      1.0  0.27928  0.22978  0.96098  1.0000
  C   C450      1.0  0.46335  0.37472  0.49939  1.0000
  H   H762      1.0  0.42732  0.28151  0.66453  1.0000
  N   N31       1.0  0.31234  0.18373  0.75980  1.0000
  H   H763      1.0  0.29346  0.43113  0.95420  1.0000
  H   H764      1.0  0.41841  0.14297  0.87270  1.0000
  C   C451      1.0  0.41488  0.09406  0.85878  1.0000
  H   H765      1.0  0.45214  0.04547  0.56685  1.0000
  C   C452      1.0  0.41337  0.02015  0.52756  1.0000
  C   C453      1.0  0.37260  0.20327  0.77850  1.0000
  H   H766      1.0  0.43571  0.38732  0.74179  1.0000
  H   H767      1.0  0.33007  0.15420  0.78758  1.0000
  H   H768      1.0  0.28084  0.44695  0.72643  1.0000
  H   H769      1.0  0.44498  0.21600  0.83661  1.0000
  C   C454      1.0  0.40877  0.03966  0.83676  1.0000
  H   H770      1.0  0.26064  0.47493  0.51223  1.0000
  C   C455      1.0  0.27694  0.41485  0.68227  1.0000
  C   C456      1.0  0.44660  0.05237  0.71260  1.0000
  H   H771      1.0  0.45131  0.03392  0.82621  1.0000
  C   C457      1.0  0.24501  0.47461  0.71516  1.0000
  C   C458      1.0  0.34432  0.29331  0.93964  1.0000
  H   H772      1.0  0.41955  0.35881  0.88245  1.0000
  H   H773      1.0  0.27739  0.12269  0.80086  1.0000
  H   H774      1.0  0.44268  0.15097  0.53754  1.0000
  H   H775      1.0  0.36851  0.36115  0.87978  1.0000
  H   H776      1.0  0.41819  0.10163  0.83116  1.0000
  H   H777      1.0  0.37693  0.10876  0.86841  1.0000
  C   C459      1.0  0.24840  0.05057  0.73489  1.0000
  C   C460      1.0  0.37098  0.04054  0.92387  1.0000
  H   H778      1.0  0.39688  0.36050  0.78702  1.0000
  H   H779      1.0  0.30437  0.02308  0.52066  1.0000
  H   H780      1.0  0.38656  0.19716  0.79767  1.0000
  H   H781      1.0  0.42515  0.39616  0.86225  1.0000
  H   H782      1.0  0.26413  0.15622  0.70728  1.0000
  H   H783      1.0  0.39596  0.01898  0.89703  1.0000
  C   C461      1.0  0.28855  0.24304  0.84825  1.0000
  S   S146      1.0  0.46678  0.37535  0.93425  1.0000
  H   H784      1.0  0.34601  0.23180  0.73558  1.0000
  C   C462      1.0  0.27536  0.99938  0.88089  1.0000
  H   H785      1.0  0.40023  0.27234  0.84353  1.0000
  H   H786      1.0  0.36283  0.32431  0.85537  1.0000
  H   H787      1.0  0.46171  0.02327  0.53416  1.0000
  C   C463      1.0  0.41392  0.36780  0.85816  1.0000
  H   H788      1.0  0.26504  0.06403  0.68273  1.0000
  C   C464      1.0  0.27878  0.16753  0.77592  1.0000
  C   C465      1.0  0.31263  0.16507  0.72696  1.0000
  H   H789      1.0  0.41488  0.48692  0.73811  1.0000
  C   C466      1.0  0.44045  0.28337  0.68835  1.0000
  H   H790      1.0  0.29749  0.28097  0.91839  1.0000
  H   H791      1.0  0.29453  0.47053  0.96389  1.0000
  H   H792      1.0  0.44028  0.35215  0.75583  1.0000
  H   H793      1.0  0.35769  0.31234  0.91944  1.0000
  C   C467      1.0  0.27290  0.02944  0.87963  1.0000
  C   C468      1.0  0.40181  0.11523  0.87776  1.0000
  H   H794      1.0  0.25183  0.20094  0.87700  1.0000
  C   C469      1.0  0.41315  0.32139  0.82078  1.0000
  C   C470      1.0  0.47043  0.22784  0.84512  1.0000
  N   N32       1.0  0.39475  0.05545  0.86137  1.0000
  H   H795      1.0  0.42616  0.31582  0.79978  1.0000
  H   H796      1.0  0.34719  0.05140  0.86865  1.0000
  C   C471      1.0  0.44367  0.37759  0.76391  1.0000
  H   H797      1.0  0.33732  0.17864  0.71504  1.0000
  H   H798      1.0  0.26938  0.22417  0.93400  1.0000
  H   H799      1.0  0.27351  0.08307  0.54484  1.0000
  C   C472      1.0  0.35926  0.04172  0.85082  1.0000
  H   H800      1.0  0.45814  0.39064  0.51788  1.0000
  H   H801      1.0  0.37883  0.19764  0.75258  1.0000
  H   H802      1.0  0.36877  0.36253  0.83373  1.0000
  H   H803      1.0  0.35000  0.45380  0.94936  1.0000
  H   H804      1.0  0.42748  0.08272  0.50138  1.0000
  C   C473      1.0  0.25991  0.27081  0.97729  1.0000
  N   N33       1.0  0.47107  0.20268  0.48372  1.0000
  H   H805      1.0  0.24854  0.27847  0.92369  1.0000
  H   H806      1.0  0.23790  0.15998  0.51550  1.0000
  H   H807      1.0  0.44595  0.01524  0.67572  1.0000
  H   H808      1.0  0.28004  0.18097  0.80099  1.0000
  H   H809      1.0  0.28226  0.22890  0.76007  1.0000
  C   C474      1.0  0.42312  0.37541  0.79576  1.0000
  H   H810      1.0  0.35789  0.10635  0.49253  1.0000
  H   H811      1.0  0.42745  0.40181  0.80155  1.0000
  H   H812      1.0  0.42316  0.48412  0.62940  1.0000
  C   C475      1.0  0.46502  0.37425  0.83487  1.0000
  C   C476      1.0  0.46129  0.17787  0.54510  1.0000
  H   H813      1.0  0.30122  0.43380  0.67197  1.0000
  H   H814      1.0  0.28174  0.13660  0.68243  1.0000
  H   H815      1.0  0.29593  0.00027  0.89444  1.0000
  H   H816      1.0  0.42748  0.23188  0.48383  1.0000
  Fe  Fe75      1.0  0.38345  0.40863  0.96174  1.0000
  C   C477      1.0  0.27106  0.06555  0.52280  1.0000
  H   H817      1.0  0.43746  0.30700  0.86133  1.0000
  H   H818      1.0  0.35819  0.03626  0.79363  1.0000
  H   H819      1.0  0.43462  0.19860  0.52028  1.0000
  C   C478      1.0  0.46041  0.20390  0.52021  1.0000
  C   C479      1.0  0.41244  0.29993  0.85190  1.0000
  H   H820      1.0  0.26128  0.02387  0.55535  1.0000
  H   H821      1.0  0.46216  0.07669  0.83928  1.0000
  H   H822      1.0  0.25609  0.46039  0.91388  1.0000
  H   H823      1.0  0.40265  0.03634  0.53596  1.0000
  H   H824      1.0  0.43085  0.46924  0.57465  1.0000
  C   C480      1.0  0.29775  0.01101  0.49436  1.0000
  H   H825      1.0  0.42176  0.06259  0.90971  1.0000
  N   N34       1.0  0.40635  0.01015  0.48968  1.0000
  C   C481      1.0  0.29670  0.37065  0.95570  1.0000
  H   H826      1.0  0.47023  0.39614  0.76850  1.0000
  H   H827      1.0  0.44216  0.34800  0.49885  1.0000
  C   C482      1.0  0.46047  0.47156  0.64400  1.0000
  C   C483      1.0  0.23898  0.26147  0.83775  1.0000
  H   H828      1.0  0.36706  0.07851  0.80941  1.0000
  H   H829      1.0  0.28094  0.39684  0.69816  1.0000
  H   H830      1.0  0.40097  0.99689  0.54372  1.0000
  H   H831      1.0  0.46878  0.36305  0.85868  1.0000
  C   C484      1.0  0.47598  0.09323  0.96095  1.0000
  H   H832      1.0  0.34736  0.01660  0.91804  1.0000
  H   H833      1.0  0.46441  0.06410  0.52539  1.0000
  H   H834      1.0  0.26300  0.99387  0.70011  1.0000
  H   H835      1.0  0.28758  0.00361  0.75111  1.0000
  H   H836      1.0  0.45432  0.48878  0.53726  1.0000
  H   H837      1.0  0.44317  0.45055  0.66081  1.0000
  H   H838      1.0  0.28667  0.21675  0.71621  1.0000
  H   H839      1.0  0.31372  0.31602  0.94787  1.0000
  H   H840      1.0  0.47645  0.42822  0.82638  1.0000
  H   H841      1.0  0.44878  0.04312  0.87092  1.0000
  H   H842      1.0  0.46089  0.45942  0.61884  1.0000
  C   C485      1.0  0.47814  0.23097  0.88055  1.0000
  H   H843      1.0  0.36460  0.48156  0.86059  1.0000
  C   C486      1.0  0.47944  0.06418  0.95462  1.0000
  C   C487      1.0  0.31813  0.44854  0.88809  1.0000
  H   H844      1.0  0.26545  0.00763  0.95512  1.0000
  C   C488      1.0  0.34908  0.45466  0.86848  1.0000
  H   H845      1.0  0.30098  0.44958  0.86867  1.0000
  H   H846      1.0  0.35980  0.30291  0.96351  1.0000
  H   H847      1.0  0.26192  0.07316  0.50017  1.0000
  S   S147      1.0  0.44387  0.02265  0.95344  1.0000
  H   H848      1.0  0.26525  0.18243  0.48136  1.0000
  H   H849      1.0  0.44921  0.14735  0.48050  1.0000
  H   H850      1.0  0.47683  0.36649  0.81438  1.0000
  H   H851      1.0  0.24096  0.41070  0.71852  1.0000
  N   N35       1.0  0.28933  0.26620  0.97216  1.0000
  H   H852      1.0  0.37562  0.48940  0.92454  1.0000
  H   H853      1.0  0.37907  0.03791  0.95018  1.0000
  H   H854      1.0  0.48594  0.18035  0.54726  1.0000
  H   H855      1.0  0.48287  0.31600  0.48173  1.0000
  C   C489      1.0  0.48226  0.02703  0.71607  1.0000
  H   H856      1.0  0.48721  0.35381  0.52917  1.0000
  H   H857      1.0  0.47625  0.25764  0.63193  1.0000
  C   C490      1.0  0.37002  0.99503  0.48288  1.0000
  C   C491      1.0  0.48563  0.41371  0.84105  1.0000
  H   H858      1.0  0.48653  0.42055  0.86904  1.0000
  H   H859      1.0  0.24007  0.42628  0.94382  1.0000
  H   H860      1.0  0.47162  0.68051  0.23137  1.0000
  S   S148      1.0  0.43074  0.95450  0.28812  1.0000
  H   H861      1.0  0.43242  0.71353  0.05790  1.0000
  Fe  Fe76      1.0  0.41606  0.97644  0.33372  1.0000
  S   S149      1.0  0.36545  0.93768  0.35729  1.0000
  S   S150      1.0  0.45262  0.54030  0.28328  1.0000
  C   C492      1.0  0.40608  0.96638  0.44471  1.0000
  Fe  Fe77      1.0  0.32671  0.64149  0.43384  1.0000
  S   S151      1.0  0.35567  0.68476  0.39865  1.0000
  Fe  Fe78      1.0  0.29706  0.58725  0.37513  1.0000
  S   S152      1.0  0.32545  0.62640  0.33523  1.0000
  S   S153      1.0  0.26210  0.52845  0.37033  1.0000
  Fe  Fe79      1.0  0.36998  0.64960  0.37202  1.0000
  S   S154      1.0  0.42620  0.67175  0.37412  1.0000
  Fe  Fe80      1.0  0.31041  0.66109  0.36465  1.0000
  S   S155      1.0  0.30139  0.70210  0.34019  1.0000
  S   S156      1.0  0.34245  0.60663  0.40937  1.0000
  S   S157      1.0  0.27974  0.62028  0.40280  1.0000
  Fe  Fe81      1.0  0.31983  0.67904  0.26519  1.0000
  S   S158      1.0  0.34340  0.73062  0.23902  1.0000
  S   S159      1.0  0.26175  0.64573  0.26578  1.0000
  Fe  Fe82      1.0  0.38674  0.67956  0.26740  1.0000
  S   S160      1.0  0.41389  0.73170  0.24223  1.0000
  S   S161      1.0  0.41106  0.64506  0.27107  1.0000
  Fe  Fe83      1.0  0.38617  0.74932  0.27702  1.0000
  S   S162      1.0  0.40577  0.80626  0.29528  1.0000
  Fe  Fe84      1.0  0.37050  0.71188  0.20531  1.0000
  S   S163      1.0  0.38546  0.73176  0.15006  1.0000
  S   S164      1.0  0.36231  0.69914  0.30492  1.0000
  S   S165      1.0  0.34468  0.65922  0.22821  1.0000
  S   S166      1.0  0.32876  0.65638  0.00249  1.0000
  H   H862      1.0  0.26769  0.75624  0.01026  1.0000
  C   C493      1.0  0.42735  0.62725  0.30200  1.0000
  C   C494      1.0  0.45926  0.63261  0.29760  1.0000
  C   C495      1.0  0.47203  0.61630  0.31847  1.0000
  C   C496      1.0  0.45305  0.59300  0.34391  1.0000
  C   C497      1.0  0.42079  0.58732  0.34813  1.0000
  C   C498      1.0  0.40827  0.60447  0.32778  1.0000
  H   H863      1.0  0.47498  0.65067  0.27881  1.0000
  H   H864      1.0  0.40511  0.56930  0.36704  1.0000
  H   H865      1.0  0.38390  0.60034  0.33226  1.0000
  C   C499      1.0  0.42971  0.84046  0.32624  1.0000
  C   C500      1.0  0.43232  0.87281  0.32182  1.0000
  C   C501      1.0  0.45095  0.90077  0.34520  1.0000
  C   C502      1.0  0.46799  0.89741  0.37324  1.0000
  C   C503      1.0  0.44551  0.83641  0.35517  1.0000
  H   H866      1.0  0.41975  0.87644  0.30024  1.0000
  H   H867      1.0  0.45239  0.92517  0.34141  1.0000
  C   C504      1.0  0.39794  0.85196  0.21416  1.0000
  H   H868      1.0  0.35780  0.79793  0.20735  1.0000
  C   C505      1.0  0.36824  0.71049  0.10945  1.0000
  C   C506      1.0  0.34519  0.67532  0.10664  1.0000
  C   C507      1.0  0.33345  0.65928  0.07373  1.0000
  C   C508      1.0  0.34464  0.67807  0.04320  1.0000
  C   C509      1.0  0.36726  0.71338  0.04600  1.0000
  C   C510      1.0  0.37884  0.72948  0.07895  1.0000
  H   H869      1.0  0.33632  0.66043  0.12980  1.0000
  H   H870      1.0  0.31558  0.63206  0.07190  1.0000
  H   H871      1.0  0.37544  0.72826  0.02280  1.0000
  H   H872      1.0  0.39583  0.75687  0.08083  1.0000
  C   C511      1.0  0.46017  0.69493  0.34600  1.0000
  H   H873      1.0  0.43499  0.75973  0.03208  1.0000
  H   H874      1.0  0.32916  0.98202  0.21337  1.0000
  C   C512      1.0  0.34137  0.98219  0.29231  1.0000
  C   C513      1.0  0.45944  0.71464  0.31867  1.0000
  C   C514      1.0  0.46404  0.49810  0.12559  1.0000
  H   H875      1.0  0.43708  0.71518  0.31320  1.0000
  H   H876      1.0  0.44342  0.81165  0.35927  1.0000
  H   H877      1.0  0.34629  0.82617  0.22800  1.0000
  C   C515      1.0  0.29677  0.93147  0.23640  1.0000
  C   C516      1.0  0.25923  0.72423  0.31873  1.0000
  H   H878      1.0  0.27062  0.72726  0.29377  1.0000
  C   C517      1.0  0.32954  0.93374  0.37839  1.0000
  C   C518      1.0  0.32880  0.96160  0.39454  1.0000
  C   C519      1.0  0.30084  0.95634  0.41342  1.0000
  C   C520      1.0  0.27263  0.92334  0.41575  1.0000
  C   C521      1.0  0.27285  0.89578  0.39819  1.0000
  C   C522      1.0  0.30104  0.90099  0.37993  1.0000
  H   H879      1.0  0.47719  0.98639  0.21174  1.0000
  H   H880      1.0  0.36377  0.95014  0.19551  1.0000
  C   C523      1.0  0.29215  0.77946  0.00605  1.0000
  H   H881      1.0  0.30051  0.87941  0.36655  1.0000
  C   C524      1.0  0.32417  0.49948  0.22132  1.0000
  S   S167      1.0  0.47981  0.96124  0.98958  1.0000
  H   H882      1.0  0.30688  0.54505  0.21465  1.0000
  S   S168      1.0  0.41907  0.88983  0.02164  1.0000
  C   C525      1.0  0.44206  0.74878  0.44207  1.0000
  H   H883      1.0  0.27635  0.90659  0.22588  1.0000
  C   C526      1.0  0.48650  0.75030  0.06204  1.0000
  C   C527      1.0  0.45924  0.74702  0.99204  1.0000
  C   C528      1.0  0.38932  0.54420  0.25410  1.0000
  H   H884      1.0  0.31050  0.52221  0.43614  1.0000
  C   C529      1.0  0.46961  0.61869  0.45136  1.0000
  H   H885      1.0  0.42482  0.61896  0.20995  1.0000
  C   C530      1.0  0.26411  0.51368  0.45603  1.0000
  S   S169      1.0  0.23919  0.91770  0.44293  1.0000
  C   C531      1.0  0.35063  0.96014  0.26878  1.0000
  C   C532      1.0  0.29657  0.51336  0.46054  1.0000
  C   C533      1.0  0.33464  0.90770  0.23183  1.0000
  S   S170      1.0  0.46677  0.53382  0.98522  1.0000
  S   S171      1.0  0.33064  0.87478  0.01937  1.0000
  H   H886      1.0  0.26522  0.84361  0.04490  1.0000
  C   C534      1.0  0.33187  0.52568  0.31817  1.0000
  H   H887      1.0  0.45327  0.78067  0.08903  1.0000
  H   H888      1.0  0.35994  0.76742  0.41280  1.0000
  H   H889      1.0  0.36710  0.56900  0.22690  1.0000
  H   H890      1.0  0.48622  0.58037  0.45345  1.0000
  H   H891      1.0  0.28827  0.85178  0.26281  1.0000
  H   H892      1.0  0.25011  0.49436  0.43487  1.0000
  C   C535      1.0  0.31498  0.78291  0.03672  1.0000
  H   H893      1.0  0.26964  0.85360  0.30234  1.0000
  H   H894      1.0  0.44779  0.72880  0.10144  1.0000
  C   C536      1.0  0.27914  0.86676  0.27746  1.0000
  C   C537      1.0  0.29325  0.86710  0.99938  1.0000
  C   C538      1.0  0.38286  0.53784  0.45264  1.0000
  S   S172      1.0  0.47987  0.95482  0.09023  1.0000
  H   H895      1.0  0.38773  0.94177  0.22614  1.0000
  C   C539      1.0  0.40113  0.64708  0.15484  1.0000
  H   H896      1.0  0.26021  0.69490  0.39887  1.0000
  H   H897      1.0  0.28594  0.93502  0.99540  1.0000
  H   H898      1.0  0.45570  0.69812  0.07972  1.0000
  N   N36       1.0  0.43472  0.59742  0.46351  1.0000
  C   C540      1.0  0.24013  0.49472  0.30542  1.0000
  H   H899      1.0  0.40317  0.79564  0.19679  1.0000
  H   H900      1.0  0.36930  0.54284  0.43199  1.0000
  H   H901      1.0  0.25890  0.78467  0.42148  1.0000
  H   H902      1.0  0.45459  0.64625  0.12425  1.0000
  C   C541      1.0  0.45317  0.81607  0.18143  1.0000
  H   H903      1.0  0.38725  0.62083  0.16531  1.0000
  H   H904      1.0  0.38429  0.65779  0.15562  1.0000
  H   H905      1.0  0.38502  0.50747  0.98386  1.0000
  H   H906      1.0  0.41790  0.95058  0.43994  1.0000
  C   C542      1.0  0.47168  0.89226  0.22993  1.0000
  C   C543      1.0  0.45469  0.88396  0.19386  1.0000
  N   N37       1.0  0.48589  0.78148  0.04916  1.0000
  H   H907      1.0  0.34990  0.98718  0.39281  1.0000
  H   H908      1.0  0.39213  0.53232  0.22982  1.0000
  C   C544      1.0  0.44589  0.98457  0.11800  1.0000
  H   H909      1.0  0.32264  0.76328  0.03606  1.0000
  C   C545      1.0  0.30882  0.95598  0.20582  1.0000
  N   N38       1.0  0.33500  0.82365  0.37955  1.0000
  C   C546      1.0  0.34185  0.83921  0.34413  1.0000
  C   C547      1.0  0.35256  0.85263  0.40598  1.0000
  C   C548      1.0  0.29841  0.80694  0.38484  1.0000
  C   C549      1.0  0.34612  0.79725  0.38039  1.0000
  C   C550      1.0  0.32329  0.81407  0.31344  1.0000
  C   C551      1.0  0.38968  0.87609  0.40042  1.0000
  C   C552      1.0  0.28554  0.79295  0.42095  1.0000
  C   C553      1.0  0.35657  0.79020  0.41586  1.0000
  H   H910      1.0  0.33631  0.86061  0.34318  1.0000
  H   H911      1.0  0.36838  0.85097  0.33814  1.0000
  H   H912      1.0  0.34990  0.84284  0.43256  1.0000
  H   H913      1.0  0.34139  0.86953  0.40644  1.0000
  H   H914      1.0  0.28946  0.82506  0.37881  1.0000
  H   H915      1.0  0.28504  0.78480  0.36654  1.0000
  H   H916      1.0  0.32657  0.77200  0.36945  1.0000
  H   H917      1.0  0.36747  0.80443  0.36318  1.0000
  H   H918      1.0  0.32637  0.79106  0.31336  1.0000
  H   H919      1.0  0.29672  0.80593  0.31311  1.0000
  H   H920      1.0  0.33350  0.82743  0.28889  1.0000
  H   H921      1.0  0.40178  0.86104  0.39374  1.0000
  H   H922      1.0  0.39421  0.89469  0.37972  1.0000
  H   H923      1.0  0.40156  0.89145  0.42442  1.0000
  C   C554      1.0  0.42696  0.65054  0.45980  1.0000
  H   H924      1.0  0.29732  0.81248  0.44215  1.0000
  H   H925      1.0  0.38353  0.86066  0.11954  1.0000
  H   H926      1.0  0.33532  0.55177  0.31803  1.0000
  H   H927      1.0  0.33807  0.78413  0.43605  1.0000
  C   C555      1.0  0.46849  0.98597  0.18561  1.0000
  H   H928      1.0  0.44649  0.80898  0.15369  1.0000
  H   H929      1.0  0.42470  0.56206  0.42027  1.0000
  H   H930      1.0  0.25450  0.63257  0.34099  1.0000
  H   H931      1.0  0.28816  0.80176  0.00964  1.0000
  S   S173      1.0  0.41532  0.96038  0.02526  1.0000
  H   H932      1.0  0.45244  0.74624  0.38841  1.0000
  C   C556      1.0  0.46383  0.76519  0.41051  1.0000
  C   C557      1.0  0.47308  0.66560  0.14289  1.0000
  H   H933      1.0  0.29896  0.97965  0.98621  1.0000
  C   C558      1.0  0.47879  0.83221  0.07100  1.0000
  N   N39       1.0  0.45861  0.66115  0.17850  1.0000
  H   H934      1.0  0.28715  0.76960  0.42584  1.0000
  H   H935      1.0  0.38499  0.52699  0.27605  1.0000
  H   H936      1.0  0.38915  0.81909  0.14827  1.0000
  H   H937      1.0  0.35219  0.82840  0.18234  1.0000
  H   H938      1.0  0.42660  0.89245  0.12451  1.0000
  H   H939      1.0  0.26359  0.98679  0.02200  1.0000
  C   C559      1.0  0.47897  0.97317  0.15798  1.0000
  Fe  Fe85      1.0  0.48195  0.97700  0.31240  1.0000
  H   H940      1.0  0.45077  0.58318  0.20732  1.0000
  H   H941      1.0  0.38053  0.81199  0.42506  1.0000
  H   H942      1.0  0.40694  0.64581  0.12726  1.0000
  H   H943      1.0  0.45616  0.89448  0.25022  1.0000
  Fe  Fe86      1.0  0.47029  0.51488  0.24602  1.0000
  C   C560      1.0  0.44283  0.62403  0.18906  1.0000
  H   H944      1.0  0.47643  0.86126  0.40050  1.0000
  Fe  Fe87      1.0  0.45213  0.94456  0.03935  1.0000
  N   N40       1.0  0.32233  0.92643  0.25498  1.0000
  C   C561      1.0  0.30625  0.90419  0.28574  1.0000
  H   H945      1.0  0.45786  0.87640  0.45550  1.0000
  H   H946      1.0  0.35503  0.52676  0.32672  1.0000
  C   C562      1.0  0.24198  0.49188  0.34128  1.0000
  H   H947      1.0  0.32494  0.90249  0.30202  1.0000
  H   H948      1.0  0.29466  0.91532  0.30276  1.0000
  H   H949      1.0  0.40808  0.65711  0.45144  1.0000
  H   H950      1.0  0.43261  0.54777  0.45907  1.0000
  H   H951      1.0  0.34201  0.89196  0.24753  1.0000
  C   C563      1.0  0.26801  0.70957  0.34571  1.0000
  H   H952      1.0  0.48115  0.72068  0.41469  1.0000
  H   H953      1.0  0.48319  0.73345  0.20462  1.0000
  H   H954      1.0  0.31402  0.51182  0.33890  1.0000
  H   H955      1.0  0.36789  0.91286  0.19019  1.0000
  H   H956      1.0  0.39960  0.87760  0.21390  1.0000
  H   H957      1.0  0.46097  0.78744  0.40327  1.0000
  H   H958      1.0  0.48222  0.52317  0.11669  1.0000
  S   S174      1.0  0.46755  0.56953  0.37002  1.0000
  C   C564      1.0  0.45356  0.72138  0.07593  1.0000
  H   H959      1.0  0.31458  0.88899  0.21400  1.0000
  C   C565      1.0  0.43206  0.67091  0.17708  1.0000
  H   H960      1.0  0.24689  0.92782  0.03097  1.0000
  N   N41       1.0  0.32751  0.52412  0.25048  1.0000
  H   H961      1.0  0.45085  0.90592  0.18799  1.0000
  C   C566      1.0  0.40464  0.87285  0.13824  1.0000
  C   C567      1.0  0.45999  0.77165  0.02107  1.0000
  H   H962      1.0  0.25799  0.86566  0.26343  1.0000
  C   C568      1.0  0.26413  0.85029  0.01835  1.0000
  C   C569      1.0  0.30436  0.53736  0.24224  1.0000
  H   H963      1.0  0.30091  0.97820  0.42587  1.0000
  H   H964      1.0  0.30166  0.77985  0.06128  1.0000
  C   C570      1.0  0.41527  0.61286  0.44867  1.0000
  H   H965      1.0  0.47855  0.69058  0.13188  1.0000
  C   C571      1.0  0.36506  0.92971  0.20969  1.0000
  H   H966      1.0  0.27176  0.97821  0.28553  1.0000
  H   H967      1.0  0.45058  0.72067  0.00127  1.0000
  H   H968      1.0  0.41313  0.56818  0.25921  1.0000
  H   H969      1.0  0.47797  0.83913  0.18423  1.0000
  H   H970      1.0  0.33316  0.59183  0.26140  1.0000
  H   H971      1.0  0.38912  0.59809  0.45642  1.0000
  H   H972      1.0  0.36524  0.97719  0.24765  1.0000
  C   C572      1.0  0.42668  0.82039  0.20072  1.0000
  H   H973      1.0  0.41685  0.74385  0.43605  1.0000
  H   H974      1.0  0.27841  0.51680  0.24490  1.0000
  H   H975      1.0  0.42846  0.60632  0.16702  1.0000
  H   H976      1.0  0.43712  0.98419  0.09211  1.0000
  H   H977      1.0  0.42333  0.67207  0.20359  1.0000
  C   C573      1.0  0.46735  0.97206  0.12418  1.0000
  H   H978      1.0  0.43234  0.82175  0.22886  1.0000
  H   H979      1.0  0.24947  0.51986  0.29478  1.0000
  H   H980      1.0  0.44175  0.69722  0.16687  1.0000
  H   H981      1.0  0.28500  0.94114  0.25487  1.0000
  H   H982      1.0  0.36823  0.95534  0.28368  1.0000
  C   C574      1.0  0.46419  0.86457  0.37857  1.0000
  C   C575      1.0  0.36230  0.55379  0.25078  1.0000
  S   S175      1.0  0.46597  0.49902  0.34372  1.0000
  H   H983      1.0  0.33711  0.80906  0.03813  1.0000
  H   H984      1.0  0.47264  0.88538  0.17431  1.0000
  H   H985      1.0  0.43952  0.72338  0.44742  1.0000
  H   H986      1.0  0.46308  0.79495  0.00798  1.0000
  N   N42       1.0  0.42265  0.85038  0.19040  1.0000
  C   C576      1.0  0.30842  0.56875  0.26359  1.0000
  H   H987      1.0  0.27077  0.53916  0.44557  1.0000
  H   H988      1.0  0.41498  0.61149  0.41973  1.0000
  H   H989      1.0  0.30231  0.56279  0.29105  1.0000
  H   H990      1.0  0.37640  0.51049  0.44935  1.0000
  H   H991      1.0  0.29068  0.57622  0.25352  1.0000
  C   C577      1.0  0.42029  0.56133  0.44848  1.0000
  H   H992      1.0  0.36664  0.57217  0.27237  1.0000
  H   H993      1.0  0.40347  0.84926  0.24159  1.0000
  H   H994      1.0  0.47682  0.62341  0.22838  1.0000
  H   H995      1.0  0.43003  0.84463  0.13597  1.0000
  C   C578      1.0  0.25330  0.70570  0.37785  1.0000
  H   H996      1.0  0.45465  0.79432  0.19284  1.0000
  H   H997      1.0  0.44993  0.66849  0.44660  1.0000
  H   H998      1.0  0.46991  0.61976  0.42251  1.0000
  H   H999      1.0  0.29473  0.71268  0.00308  1.0000
  H   H1000     1.0  0.28812  0.95914  0.19622  1.0000
  C   C579      1.0  0.36162  0.82437  0.20718  1.0000
  C   C580      1.0  0.24094  0.94315  0.32426  1.0000
  H   H1001     1.0  0.39813  0.88648  0.15804  1.0000
  C   C581      1.0  0.41123  0.84502  0.15307  1.0000
  C   C582      1.0  0.26346  0.97596  0.31183  1.0000
  H   H1002     1.0  0.41364  0.98469  0.42321  1.0000
  Fe  Fe88      1.0  0.38410  0.90691  0.00289  1.0000
  C   C583      1.0  0.31886  0.50461  0.28383  1.0000
  H   H1003     1.0  0.35465  0.79584  0.98621  1.0000
  H   H1004     1.0  0.32827  0.96887  0.31587  1.0000
  H   H1005     1.0  0.33305  0.51338  0.19659  1.0000
  C   C584      1.0  0.24266  0.98054  0.00388  1.0000
  H   H1006     1.0  0.31613  0.94508  0.18392  1.0000
  H   H1007     1.0  0.45090  0.76580  0.46552  1.0000
  H   H1008     1.0  0.47281  0.84210  0.09484  1.0000
  S   S176      1.0  0.47475  0.52919  0.18982  1.0000
  C   C585      1.0  0.24022  0.97131  0.37863  1.0000
  H   H1009     1.0  0.46002  0.82825  0.05104  1.0000
  C   C586      1.0  0.47822  0.79831  0.07907  1.0000
  H   H1010     1.0  0.25139  0.87030  0.39904  1.0000
  C   C587      1.0  0.48348  0.68453  0.20565  1.0000
  H   H1011     1.0  0.33525  0.74096  0.98611  1.0000
  C   C588      1.0  0.46567  0.61127  0.20293  1.0000
  H   H1012     1.0  0.47876  0.87313  0.23760  1.0000
  H   H1013     1.0  0.37905  0.94875  0.44318  1.0000
  H   H1014     1.0  0.48082  0.64585  0.46084  1.0000
  H   H1015     1.0  0.44851  0.90951  0.46843  1.0000
  H   H1016     1.0  0.48501  0.61453  0.18478  1.0000
  H   H1017     1.0  0.48343  0.75661  0.97976  1.0000
  H   H1018     1.0  0.48665  0.74847  0.27729  1.0000
  C   C589      1.0  0.44853  0.88602  0.47673  1.0000
  C   C590      1.0  0.45541  0.49383  0.16056  1.0000
  C   C591      1.0  0.30892  0.72413  0.97932  1.0000
  H   H1019     1.0  0.34259  0.49140  0.99236  1.0000
  C   C592      1.0  0.25747  0.93154  0.70379  1.0000
  Fe  Fe89      1.0  0.44038  0.97348  0.97390  1.0000
  H   H1020     1.0  0.31065  0.64199  0.76512  1.0000
  C   C593      1.0  0.44911  0.59905  0.84367  1.0000
  H   H1021     1.0  0.29850  0.81989  0.94862  1.0000
  H   H1022     1.0  0.42244  0.86598  0.48043  1.0000
  Fe  Fe90      1.0  0.33923  0.59733  0.71512  1.0000
  S   S177      1.0  0.34638  0.62627  0.66650  1.0000
  S   S178      1.0  0.28965  0.56983  0.74225  1.0000
  Fe  Fe91      1.0  0.41147  0.61406  0.71727  1.0000
  S   S179      1.0  0.42355  0.64456  0.66870  1.0000
  S   S180      1.0  0.45508  0.61177  0.74045  1.0000
  Fe  Fe92      1.0  0.39442  0.66759  0.69071  1.0000
  S   S181      1.0  0.40755  0.72314  0.68097  1.0000
  Fe  Fe93      1.0  0.37531  0.60134  0.64897  1.0000
  S   S182      1.0  0.37123  0.57736  0.59611  1.0000
  S   S183      1.0  0.38541  0.64032  0.74119  1.0000
  S   S184      1.0  0.36492  0.56907  0.69585  1.0000
  C   C594      1.0  0.25000  0.55496  0.72342  1.0000
  Fe  Fe94      1.0  0.34577  0.67221  0.94707  1.0000
  S   S185      1.0  0.37731  0.65371  0.92141  1.0000
  Fe  Fe95      1.0  0.33845  0.70441  0.88090  1.0000
  S   S186      1.0  0.36955  0.68783  0.85048  1.0000
  S   S187      1.0  0.32433  0.74068  0.85391  1.0000
  Fe  Fe96      1.0  0.34112  0.63662  0.87664  1.0000
  S   S188      1.0  0.33119  0.58835  0.84469  1.0000
  Fe  Fe97      1.0  0.40364  0.70555  0.89677  1.0000
  S   S189      1.0  0.46005  0.73702  0.89914  1.0000
  S   S190      1.0  0.30745  0.65189  0.90350  1.0000
  S   S191      1.0  0.37465  0.72544  0.92598  1.0000
  C   C595      1.0  0.29715  0.54527  0.84145  1.0000
  H   H1023     1.0  0.26703  0.72528  0.96009  1.0000
  H   H1024     1.0  0.25344  0.94508  0.86697  1.0000
  H   H1025     1.0  0.46029  0.88213  0.78031  1.0000
  C   C596      1.0  0.26973  0.61669  0.81541  1.0000
  H   H1026     1.0  0.28672  0.70701  0.74193  1.0000
  H   H1027     1.0  0.42303  0.58051  0.84999  1.0000
  N   N43       1.0  0.47045  0.52926  0.61970  1.0000
  H   H1028     1.0  0.45945  0.73113  0.82293  1.0000
  H   H1029     1.0  0.42135  0.76586  0.83025  1.0000
  C   C597      1.0  0.29139  0.87544  0.96502  1.0000
  H   H1030     1.0  0.39075  0.72606  0.78408  1.0000
  C   C598      1.0  0.26026  0.90323  0.72288  1.0000
  H   H1031     1.0  0.43650  0.57598  0.55045  1.0000
  C   C599      1.0  0.36350  0.60094  0.56558  1.0000
  C   C600      1.0  0.36673  0.63276  0.57493  1.0000
  C   C601      1.0  0.35812  0.65027  0.55123  1.0000
  C   C602      1.0  0.34720  0.63655  0.51776  1.0000
  C   C603      1.0  0.34562  0.60555  0.50779  1.0000
  C   C604      1.0  0.35323  0.58748  0.53193  1.0000
  H   H1032     1.0  0.37558  0.64387  0.60052  1.0000
  H   H1033     1.0  0.35951  0.67431  0.55904  1.0000
  C   C605      1.0  0.28762  0.79153  0.94524  1.0000
  H   H1034     1.0  0.35086  0.56291  0.52483  1.0000
  C   C606      1.0  0.45936  0.57463  0.73890  1.0000
  C   C607      1.0  0.27946  0.69662  0.76831  1.0000
  C   C608      1.0  0.34065  0.80264  0.96791  1.0000
  H   H1035     1.0  0.30186  0.52787  0.63785  1.0000
  C   C609      1.0  0.43625  0.51249  0.73817  1.0000
  C   C610      1.0  0.43195  0.54143  0.73813  1.0000
  H   H1036     1.0  0.24284  0.78217  0.97337  1.0000
  H   H1037     1.0  0.47817  0.72918  0.66716  1.0000
  H   H1038     1.0  0.40745  0.53807  0.73816  1.0000
  C   C611      1.0  0.44154  0.76275  0.69604  1.0000
  C   C612      1.0  0.45355  0.55006  0.61525  1.0000
  C   C613      1.0  0.26058  0.86649  0.94981  1.0000
  S   S192      1.0  0.40669  0.92021  0.95030  1.0000
  H   H1039     1.0  0.24392  0.52519  0.53941  1.0000
  H   H1040     1.0  0.36966  0.74937  0.79347  1.0000
  C   C614      1.0  0.26036  0.72632  0.86906  1.0000
  H   H1041     1.0  0.25445  0.72571  0.77685  1.0000
  H   H1042     1.0  0.45577  0.74164  0.73781  1.0000
  H   H1043     1.0  0.28282  0.53557  0.52500  1.0000
  H   H1044     1.0  0.28270  0.95424  0.70202  1.0000
  H   H1045     1.0  0.45442  0.89614  0.53207  1.0000
  H   H1046     1.0  0.37859  0.53177  0.89701  1.0000
  H   H1047     1.0  0.25977  0.59689  0.79423  1.0000
  H   H1048     1.0  0.25449  0.65103  0.71924  1.0000
  H   H1049     1.0  0.28184  0.58760  0.52817  1.0000
  H   H1050     1.0  0.45646  0.56703  0.51567  1.0000
  C   C615      1.0  0.48606  0.79725  0.73726  1.0000
  H   H1051     1.0  0.25927  0.87263  0.92310  1.0000
  H   H1052     1.0  0.46330  0.80849  0.93511  1.0000
  H   H1053     1.0  0.30354  0.49879  0.89035  1.0000
  H   H1054     1.0  0.44075  0.82153  0.75566  1.0000
  C   C616      1.0  0.42315  0.77786  0.80477  1.0000
  H   H1055     1.0  0.29478  0.98484  0.49499  1.0000
  H   H1056     1.0  0.37725  0.80075  0.81807  1.0000
  H   H1057     1.0  0.35989  0.55710  0.89344  1.0000
  C   C617      1.0  0.24252  0.95299  0.75680  1.0000
  H   H1058     1.0  0.38288  0.82269  0.93446  1.0000
  H   H1059     1.0  0.41222  0.54456  0.51811  1.0000
  N   N44       1.0  0.46087  0.63261  0.86359  1.0000
  C   C618      1.0  0.43351  0.59861  0.50260  1.0000
  H   H1060     1.0  0.47290  0.80203  0.85481  1.0000
  H   H1061     1.0  0.33476  0.71091  0.72956  1.0000
  H   H1062     1.0  0.35234  0.77967  0.92289  1.0000
  C   C619      1.0  0.43471  0.86403  0.77135  1.0000
  C   C620      1.0  0.46901  0.82430  0.85897  1.0000
  H   H1063     1.0  0.31054  0.66927  0.70742  1.0000
  H   H1064     1.0  0.47022  0.58174  0.66403  1.0000
  H   H1065     1.0  0.26718  0.57457  0.67280  1.0000
  H   H1066     1.0  0.43215  0.60393  0.90738  1.0000
  S   S193      1.0  0.33280  0.65696  0.49026  1.0000
  H   H1067     1.0  0.32826  0.68323  0.78597  1.0000
  H   H1068     1.0  0.39957  0.81088  0.76352  1.0000
  C   C621      1.0  0.41755  0.98476  0.48058  1.0000
  H   H1069     1.0  0.47402  0.61467  0.90954  1.0000
  H   H1070     1.0  0.29565  0.62370  0.82079  1.0000
  C   C622      1.0  0.46596  0.65529  0.92695  1.0000
  C   C623      1.0  0.46791  0.51634  0.73807  1.0000
  H   H1071     1.0  0.28320  0.66939  0.82638  1.0000
  C   C624      1.0  0.39271  0.75176  0.78317  1.0000
  H   H1072     1.0  0.42918  0.54450  0.66527  1.0000
  H   H1073     1.0  0.26152  0.61863  0.73452  1.0000
  H   H1074     1.0  0.46213  0.64597  0.95389  1.0000
  H   H1075     1.0  0.39513  0.75834  0.75539  1.0000
  H   H1076     1.0  0.32420  0.94606  0.48598  1.0000
  C   C625      1.0  0.34692  0.96174  0.50200  1.0000
  H   H1077     1.0  0.31617  0.79378  0.82308  1.0000
  C   C626      1.0  0.24585  0.56055  0.68875  1.0000
  H   H1078     1.0  0.25573  0.60485  0.83916  1.0000
  H   H1079     1.0  0.32120  0.51892  0.93002  1.0000
  C   C627      1.0  0.36143  0.50291  0.97209  1.0000
  H   H1080     1.0  0.35745  0.94485  0.50606  1.0000
  H   H1081     1.0  0.33690  0.59472  0.48212  1.0000
  H   H1082     1.0  0.44499  0.77897  0.79237  1.0000
  C   C628      1.0  0.27018  0.53345  0.86334  1.0000
  H   H1083     1.0  0.34954  0.68142  0.72691  1.0000
  C   C629      1.0  0.29808  0.52168  0.81736  1.0000
  C   C630      1.0  0.35592  0.80488  0.93212  1.0000
  H   H1084     1.0  0.41448  0.84494  0.87928  1.0000
  H   H1085     1.0  0.24278  0.95842  0.64554  1.0000
  Fe  Fe98      1.0  0.44433  0.90687  0.97081  1.0000
  C   C631      1.0  0.46083  0.76486  0.72473  1.0000
  H   H1086     1.0  0.29184  0.53164  0.68153  1.0000
  H   H1087     1.0  0.24194  0.64282  0.81271  1.0000
  H   H1088     1.0  0.44857  0.60220  0.81536  1.0000
  N   N45       1.0  0.27698  0.66185  0.77067  1.0000
  H   H1089     1.0  0.46595  0.57033  0.87573  1.0000
  H   H1090     1.0  0.25406  0.97009  0.53626  1.0000
  H   H1091     1.0  0.26914  0.55102  0.88225  1.0000
  C   C632      1.0  0.47675  0.51906  0.58436  1.0000
  H   H1092     1.0  0.23955  0.91478  0.95216  1.0000
  H   H1093     1.0  0.45940  0.94830  0.51701  1.0000
  H   H1094     1.0  0.34654  0.81561  0.91239  1.0000
  H   H1095     1.0  0.24976  0.92141  0.67676  1.0000
  C   C633      1.0  0.42516  0.82596  0.77419  1.0000
  C   C634      1.0  0.27882  0.97959  0.76545  1.0000
  C   C635      1.0  0.40733  0.84489  0.85182  1.0000
  C   C636      1.0  0.42768  0.64516  0.81752  1.0000
  H   H1096     1.0  0.46050  0.55877  0.83072  1.0000
  C   C637      1.0  0.46931  0.58093  0.84943  1.0000
  H   H1097     1.0  0.26915  0.91075  0.75003  1.0000
  H   H1098     1.0  0.43657  0.58137  0.64194  1.0000
  C   C638      1.0  0.29023  0.74809  0.85319  1.0000
  C   C639      1.0  0.28306  0.51469  0.65797  1.0000
  H   H1099     1.0  0.29556  0.96925  0.76079  1.0000
  H   H1100     1.0  0.46604  0.86648  0.51640  1.0000
  H   H1101     1.0  0.41558  0.63396  0.87030  1.0000
  H   H1102     1.0  0.42575  0.86914  0.84026  1.0000
  H   H1103     1.0  0.43338  0.79191  0.65752  1.0000
  C   C640      1.0  0.43885  0.64730  0.85551  1.0000
  H   H1104     1.0  0.31354  0.88811  0.94998  1.0000
  N   N46       1.0  0.42772  0.81359  0.80951  1.0000
  H   H1105     1.0  0.39614  0.79259  0.85360  1.0000
  H   H1106     1.0  0.43373  0.86944  0.74354  1.0000
  H   H1107     1.0  0.46750  0.86314  0.82939  1.0000
  C   C641      1.0  0.25087  0.94171  0.96249  1.0000
  C   C642      1.0  0.25114  0.96785  0.86537  1.0000
  C   C643      1.0  0.46802  0.89169  0.51092  1.0000
  C   C644      1.0  0.26739  0.64891  0.80691  1.0000
  C   C645      1.0  0.26712  0.78384  0.83416  1.0000
  H   H1108     1.0  0.27006  0.80614  0.82079  1.0000
  H   H1109     1.0  0.47831  0.84888  0.67933  1.0000
  H   H1110     1.0  0.41058  0.59769  0.51120  1.0000
  H   H1111     1.0  0.29203  0.78716  0.91780  1.0000
  C   C646      1.0  0.35561  0.53066  0.88836  1.0000
  C   C647      1.0  0.46187  0.83631  0.82458  1.0000
  C   C648      1.0  0.25364  0.63712  0.74311  1.0000
  H   H1112     1.0  0.29922  0.71564  0.78614  1.0000
  H   H1113     1.0  0.45361  0.62368  0.51333  1.0000
  C   C649      1.0  0.31096  0.66698  0.76468  1.0000
  H   H1114     1.0  0.41543  0.66076  0.81499  1.0000
  C   C650      1.0  0.40097  0.81132  0.83279  1.0000
  N   N47       1.0  0.24285  0.50577  0.48749  1.0000
  C   C651      1.0  0.26439  0.56891  0.50847  1.0000
  C   C652      1.0  0.29331  0.77675  0.83561  1.0000
  H   H1115     1.0  0.29898  0.74045  0.93067  1.0000
  H   H1116     1.0  0.35211  0.52530  0.85998  1.0000
  C   C653      1.0  0.44869  0.49797  0.64036  1.0000
  H   H1117     1.0  0.45082  0.67482  0.86394  1.0000
  H   H1118     1.0  0.30048  0.95150  0.95381  1.0000
  H   H1119     1.0  0.31873  0.53053  0.80016  1.0000
  C   C654      1.0  0.44604  0.49433  0.56228  1.0000
  C   C655      1.0  0.45764  0.62468  0.90168  1.0000
  H   H1120     1.0  0.43069  0.50591  0.55585  1.0000
  H   H1121     1.0  0.25403  0.95689  0.93922  1.0000
  C   C656      1.0  0.32688  0.68313  0.73004  1.0000
  H   H1122     1.0  0.25731  0.70395  0.88236  1.0000
  C   C657      1.0  0.43497  0.56978  0.52230  1.0000
  H   H1123     1.0  0.40909  0.61830  0.80963  1.0000
  C   C658      1.0  0.24805  0.69826  0.77585  1.0000
  H   H1124     1.0  0.44626  0.50570  0.66721  1.0000
  C   C659      1.0  0.44831  0.79327  0.67962  1.0000
  H   H1125     1.0  0.30813  0.70306  0.96294  1.0000
  H   H1126     1.0  0.26789  0.49174  0.73060  1.0000
  C   C660      1.0  0.48617  0.96577  0.52131  1.0000
  C   C661      1.0  0.44737  0.56508  0.64880  1.0000
  H   H1127     1.0  0.44823  0.65527  0.79923  1.0000
  H   H1128     1.0  0.27820  0.89799  0.70935  1.0000
  H   H1129     1.0  0.44913  0.81756  0.87782  1.0000
  H   H1130     1.0  0.41682  0.86952  0.78445  1.0000
  C   C662      1.0  0.29414  0.74228  0.95856  1.0000
  S   S194      1.0  0.45494  0.86763  0.94363  1.0000
  H   H1131     1.0  0.43011  0.65498  0.48825  1.0000
  H   H1132     1.0  0.44985  0.66646  0.92286  1.0000
  C   C663      1.0  0.47385  0.82561  0.69184  1.0000
  H   H1133     1.0  0.41012  0.96471  0.50039  1.0000
  H   H1134     1.0  0.34004  0.96793  0.52754  1.0000
  H   H1135     1.0  0.38392  0.84543  0.85272  1.0000
  H   H1136     1.0  0.42890  0.53415  0.60267  1.0000
  H   H1137     1.0  0.48070  0.83844  0.80573  1.0000
  H   H1138     1.0  0.46758  0.57172  0.59757  1.0000
  H   H1139     1.0  0.34691  0.82928  0.97607  1.0000
  C   C664      1.0  0.25914  0.53295  0.51583  1.0000
  C   C665      1.0  0.32471  0.50481  0.90787  1.0000
  H   H1140     1.0  0.26001  0.51305  0.64881  1.0000
  H   H1141     1.0  0.44156  0.74467  0.97144  1.0000
  N   N48       1.0  0.30397  0.77859  0.96986  1.0000
  C   C666      1.0  0.48662  0.82987  0.94415  1.0000
  C   C667      1.0  0.24473  0.49866  0.86122  1.0000
  C   C668      1.0  0.48462  0.74265  0.83234  1.0000
  H   H1142     1.0  0.24104  0.56949  0.51001  1.0000
  H   H1143     1.0  0.27617  0.57869  0.48329  1.0000
  H   H1144     1.0  0.36512  0.52846  0.96518  1.0000
  H   H1145     1.0  0.31214  0.53090  0.48175  1.0000
  H   H1146     1.0  0.24113  0.78646  0.92791  1.0000
  C   C669      1.0  0.24992  0.77557  0.94823  1.0000
  H   H1147     1.0  0.28091  0.98668  0.79346  1.0000
  C   C670      1.0  0.28592  0.95276  0.97583  1.0000
  H   H1148     1.0  0.37427  0.54129  0.47827  1.0000
  C   C671      1.0  0.71772  0.03546  0.46473  1.0000
  H   H1149     1.0  0.66516  0.14646  0.44946  1.0000
  S   S195      1.0  0.52938  0.10457  0.33945  1.0000
  C   C672      1.0  0.72653  0.24380  0.14548  1.0000
  S   S196      1.0  0.51514  0.44740  0.30250  1.0000
  S   S197      1.0  0.69788  0.30480  0.01871  1.0000
  Fe  Fe99      1.0  0.68227  0.27858  0.32963  1.0000
  S   S198      1.0  0.65279  0.30405  0.34440  1.0000
  S   S199      1.0  0.70629  0.26407  0.37289  1.0000
  Fe  Fe100     1.0  0.66956  0.28176  0.25396  1.0000
  S   S200      1.0  0.64097  0.30870  0.26252  1.0000
  S   S201      1.0  0.67719  0.26624  0.20073  1.0000
  Fe  Fe101     1.0  0.68017  0.34178  0.30240  1.0000
  S   S202      1.0  0.70034  0.40026  0.29667  1.0000
  Fe  Fe102     1.0  0.61522  0.26992  0.30376  1.0000
  S   S203      1.0  0.55871  0.24043  0.29673  1.0000
  S   S204      1.0  0.71131  0.31762  0.28970  1.0000
  S   S205      1.0  0.64248  0.24114  0.29270  1.0000
  S   S206      1.0  0.55839  0.23000  0.09727  1.0000
  Fe  Fe103     1.0  0.68636  0.37512  0.43265  1.0000
  H   H1150     1.0  0.57220  0.29727  0.25068  1.0000
  Fe  Fe104     1.0  0.61747  0.30849  0.43139  1.0000
  S   S207      1.0  0.59459  0.33553  0.46041  1.0000
  S   S208      1.0  0.58366  0.24860  0.42832  1.0000
  Fe  Fe105     1.0  0.62231  0.38061  0.42562  1.0000
  S   S209      1.0  0.60550  0.41893  0.40870  1.0000
  H   H1151     1.0  0.67703  0.09433  0.44449  1.0000
  S   S210      1.0  0.64310  0.35322  0.39441  1.0000
  H   H1152     1.0  0.58064  0.31087  0.30535  1.0000
  H   H1153     1.0  0.71438  0.09548  0.45654  1.0000
  S   S211      1.0  0.53867  0.03371  0.36019  1.0000
  Fe  Fe106     1.0  0.57887  0.24721  0.04410  1.0000
  Fe  Fe107     1.0  0.54927  0.05028  0.45852  1.0000
  S   S212      1.0  0.56300  0.09203  0.42094  1.0000
  Fe  Fe108     1.0  0.51368  0.05769  0.39374  1.0000
  H   H1154     1.0  0.50558  0.39488  0.43815  1.0000
  Fe  Fe109     1.0  0.58565  0.06487  0.39115  1.0000
  S   S213      1.0  0.64156  0.09581  0.37871  1.0000
  C   C673      1.0  0.54192  0.35190  0.23385  1.0000
  S   S214      1.0  0.57135  0.02298  0.43010  1.0000
  H   H1155     1.0  0.56339  0.48967  0.35813  1.0000
  H   H1156     1.0  0.56008  0.39375  0.19766  1.0000
  H   H1157     1.0  0.49096  0.06151  0.10600  1.0000
  C   C674      1.0  0.53852  0.43652  0.47199  1.0000
  C   C675      1.0  0.69330  0.09774  0.29131  1.0000
  C   C676      1.0  0.66741  0.08814  0.31530  1.0000
  C   C677      1.0  0.67345  0.10499  0.34780  1.0000
  C   C678      1.0  0.70615  0.13022  0.35634  1.0000
  H   H1158     1.0  0.71025  0.00882  0.39815  1.0000
  H   H1159     1.0  0.64276  0.06775  0.30868  1.0000
  H   H1160     1.0  0.71166  0.14337  0.38137  1.0000
  H   H1161     1.0  0.68807  0.08491  0.26614  1.0000
  C   C679      1.0  0.64376  0.25595  0.17262  1.0000
  C   C680      1.0  0.64914  0.26012  0.13704  1.0000
  C   C681      1.0  0.62302  0.25267  0.11412  1.0000
  C   C682      1.0  0.59112  0.23990  0.12643  1.0000
  C   C683      1.0  0.58552  0.23502  0.16204  1.0000
  C   C684      1.0  0.61191  0.24347  0.18521  1.0000
  H   H1162     1.0  0.67373  0.27018  0.12718  1.0000
  H   H1163     1.0  0.62787  0.25730  0.08692  1.0000
  H   H1164     1.0  0.56093  0.22522  0.17179  1.0000
  H   H1165     1.0  0.60760  0.24017  0.21274  1.0000
  C   C685      1.0  0.52288  0.23422  0.31907  1.0000
  H   H1166     1.0  0.54718  0.26728  0.36358  1.0000
  C   C686      1.0  0.69224  0.08213  0.43945  1.0000
  C   C687      1.0  0.64570  0.44108  0.30929  1.0000
  C   C688      1.0  0.72053  0.43806  0.32424  1.0000
  H   H1167     1.0  0.72123  0.21788  0.27045  1.0000
  H   H1168     1.0  0.55223  0.45538  0.45172  1.0000
  H   H1169     1.0  0.63027  0.09574  0.19196  1.0000
  H   H1170     1.0  0.53088  0.30565  0.03099  1.0000
  H   H1171     1.0  0.59754  0.47778  0.39822  1.0000
  H   H1172     1.0  0.72798  0.26844  0.15329  1.0000
  C   C689      1.0  0.66004  0.47417  0.33226  1.0000
  H   H1173     1.0  0.53002  0.33809  0.05754  1.0000
  H   H1174     1.0  0.53420  0.08546  0.11165  1.0000
  C   C690      1.0  0.67174  0.04346  0.44682  1.0000
  H   H1175     1.0  0.70054  0.21566  0.18961  1.0000
  H   H1176     1.0  0.73741  0.06170  0.45798  1.0000
  H   H1177     1.0  0.52601  0.28457  0.28538  1.0000
  C   C691      1.0  0.54408  0.14465  0.36459  1.0000
  C   C692      1.0  0.53435  0.14598  0.39867  1.0000
  C   C693      1.0  0.54628  0.17770  0.41711  1.0000
  C   C694      1.0  0.56863  0.20931  0.40245  1.0000
  C   C695      1.0  0.57885  0.20825  0.36866  1.0000
  C   C696      1.0  0.56657  0.17640  0.34994  1.0000
  C   C697      1.0  0.52568  0.40002  0.45663  1.0000
  H   H1178     1.0  0.53842  0.17738  0.44333  1.0000
  H   H1179     1.0  0.59593  0.23202  0.35667  1.0000
  H   H1180     1.0  0.57420  0.17674  0.32362  1.0000
  C   C698      1.0  0.53885  0.43923  0.33400  1.0000
  C   C699      1.0  0.56087  0.46449  0.35773  1.0000
  C   C700      1.0  0.58065  0.45768  0.38036  1.0000
  C   C701      1.0  0.57912  0.42552  0.37972  1.0000
  C   C702      1.0  0.55703  0.40009  0.35629  1.0000
  C   C703      1.0  0.53753  0.40708  0.33326  1.0000
  C   C704      1.0  0.73519  0.33464  0.99885  1.0000
  C   C705      1.0  0.49410  0.24603  0.36522  1.0000
  H   H1181     1.0  0.55488  0.37501  0.35616  1.0000
  H   H1182     1.0  0.52062  0.38722  0.31527  1.0000
  C   C706      1.0  0.70080  0.02669  0.40351  1.0000
  S   S215      1.0  0.61407  0.30227  0.03300  1.0000
  N   N49       1.0  0.51520  0.10528  0.07255  1.0000
  C   C707      1.0  0.52305  0.08602  0.04518  1.0000
  H   H1183     1.0  0.69950  0.08665  0.41198  1.0000
  H   H1184     1.0  0.66446  0.04185  0.47436  1.0000
  H   H1185     1.0  0.54964  0.02781  0.21731  1.0000
  C   C708      1.0  0.49657  0.04782  0.03859  1.0000
  H   H1186     1.0  0.67131  0.11855  0.20921  1.0000
  S   S216      1.0  0.49970  0.02720  0.28546  1.0000
  H   H1187     1.0  0.54387  0.15422  0.04778  1.0000
  H   H1188     1.0  0.49410  0.24833  0.02620  1.0000
  C   C709      1.0  0.72593  0.12361  0.29971  1.0000
  H   H1189     1.0  0.59168  0.19409  0.46847  1.0000
  H   H1190     1.0  0.59885  0.46433  0.29671  1.0000
  C   C710      1.0  0.56756  0.31482  0.23480  1.0000
  H   H1191     1.0  0.71794  0.17671  0.26771  1.0000
  N   N50       1.0  0.64086  0.20175  0.46713  1.0000
  H   H1192     1.0  0.59247  0.15650  0.45761  1.0000
  H   H1193     1.0  0.63252  0.45504  0.47628  1.0000
  H   H1194     1.0  0.50389  0.03754  0.01603  1.0000
  H   H1195     1.0  0.49465  0.03164  0.06079  1.0000
  H   H1196     1.0  0.52166  0.34838  0.41472  1.0000
  H   H1197     1.0  0.52123  0.33516  0.21570  1.0000
  H   H1198     1.0  0.66336  0.48713  0.26213  1.0000
  H   H1199     1.0  0.68821  0.02539  0.34916  1.0000
  C   C711      1.0  0.64714  0.11756  0.20938  1.0000
  S   S217      1.0  0.61000  0.22842  0.01907  1.0000
  H   H1200     1.0  0.51339  0.29525  0.07359  1.0000
  H   H1201     1.0  0.54602  0.08577  0.05188  1.0000
  C   C712      1.0  0.73204  0.13887  0.33282  1.0000
  H   H1202     1.0  0.52959  0.32299  0.44497  1.0000
  C   C713      1.0  0.57443  0.14796  0.24897  1.0000
  H   H1203     1.0  0.56831  0.39453  0.99318  1.0000
  H   H1204     1.0  0.50237  0.28589  0.25060  1.0000
  S   S218      1.0  0.66143  0.32983  0.46831  1.0000
  H   H1205     1.0  0.56255  0.37499  0.47684  1.0000
  H   H1206     1.0  0.50001  0.12737  0.24281  1.0000
  C   C714      1.0  0.50154  0.31332  0.29608  1.0000
  H   H1207     1.0  0.59942  0.37212  0.27234  1.0000
  H   H1208     1.0  0.49153  0.32793  0.28287  1.0000
  H   H1209     1.0  0.56730  0.33222  0.33598  1.0000
  H   H1210     1.0  0.51410  0.21063  0.45596  1.0000
  H   H1211     1.0  0.65114  0.14204  0.19865  1.0000
  C   C715      1.0  0.73289  0.46781  0.38072  1.0000
  H   H1212     1.0  0.72603  0.23171  0.42384  1.0000
  H   H1213     1.0  0.58713  0.13952  0.05995  1.0000
  H   H1214     1.0  0.73021  0.23219  0.99671  1.0000
  H   H1215     1.0  0.56990  0.99199  0.35575  1.0000
  H   H1216     1.0  0.69541  0.18716  0.23745  1.0000
  H   H1217     1.0  0.55496  0.13248  0.22929  1.0000
  H   H1218     1.0  0.56355  0.28437  0.18868  1.0000
  H   H1219     1.0  0.62348  0.13388  0.45906  1.0000
  H   H1220     1.0  0.72204  0.05280  0.39954  1.0000
  C   C716      1.0  0.52375  0.25076  0.35061  1.0000
  H   H1221     1.0  0.54254  0.30793  0.18380  1.0000
  C   C717      1.0  0.52040  0.30220  0.27125  1.0000
  Fe  Fe110     1.0  0.64353  0.28327  0.00389  1.0000
  H   H1222     1.0  0.61063  0.47705  0.46769  1.0000
  C   C718      1.0  0.73434  0.01320  0.46608  1.0000
  H   H1223     1.0  0.52526  0.26948  0.20961  1.0000
  H   H1224     1.0  0.51802  0.12258  0.41143  1.0000
  N   N51       1.0  0.60229  0.11086  0.25242  1.0000
  C   C719      1.0  0.59342  0.10298  0.28992  1.0000
  C   C720      1.0  0.57550  0.08274  0.23004  1.0000
  C   C721      1.0  0.63484  0.11260  0.24695  1.0000
  C   C722      1.0  0.61368  0.13249  0.31652  1.0000
  C   C723      1.0  0.57130  0.04648  0.23331  1.0000
  H   H1225     1.0  0.56706  0.09428  0.29377  1.0000
  H   H1226     1.0  0.59607  0.08083  0.29814  1.0000
  H   H1227     1.0  0.55115  0.07994  0.23637  1.0000
  H   H1228     1.0  0.65451  0.13384  0.26306  1.0000
  H   H1229     1.0  0.63389  0.08879  0.25599  1.0000
  H   H1230     1.0  0.61075  0.15521  0.31284  1.0000
  H   H1231     1.0  0.60438  0.12325  0.34280  1.0000
  H   H1232     1.0  0.64016  0.14044  0.31661  1.0000
  C   C724      1.0  0.51228  0.08827  0.10667  1.0000
  H   H1233     1.0  0.56635  0.03740  0.26029  1.0000
  C   C725      1.0  0.51586  0.31024  0.05022  1.0000
  C   C726      1.0  0.54275  0.14234  0.07323  1.0000
  H   H1234     1.0  0.52768  0.09917  0.01993  1.0000
  H   H1235     1.0  0.67217  0.22311  0.42364  1.0000
  C   C727      1.0  0.49369  0.33756  0.46336  1.0000
  H   H1236     1.0  0.68993  0.27434  0.45193  1.0000
  H   H1237     1.0  0.68671  0.20126  0.47009  1.0000
  H   H1238     1.0  0.59244  0.33478  0.22639  1.0000
  H   H1239     1.0  0.59016  0.39938  0.22950  1.0000
  C   C728      1.0  0.64893  0.14823  0.46930  1.0000
  H   H1240     1.0  0.63697  0.18906  0.37640  1.0000
  H   H1241     1.0  0.57896  0.13751  0.10620  1.0000
  H   H1242     1.0  0.53244  0.36570  0.25022  1.0000
  C   C729      1.0  0.51062  0.32823  0.43442  1.0000
  H   H1243     1.0  0.68202  0.47554  0.34502  1.0000
  C   C730      1.0  0.71813  0.43703  0.36030  1.0000
  C   C731      1.0  0.60539  0.14486  0.24310  1.0000
  C   C732      1.0  0.58278  0.33569  0.31313  1.0000
  N   N52       1.0  0.68863  0.02284  0.44013  1.0000
  H   H1244     1.0  0.61095  0.15002  0.21522  1.0000
  N   N53       1.0  0.55127  0.33068  0.25592  1.0000
  C   C733      1.0  0.54817  0.29311  0.20249  1.0000
  H   H1245     1.0  0.54537  0.40126  0.43998  1.0000
  H   H1246     1.0  0.57910  0.08945  0.20222  1.0000
  H   H1247     1.0  0.51662  0.32815  0.31897  1.0000
  H   H1248     1.0  0.70379  0.22942  0.12924  1.0000
  C   C734      1.0  0.56995  0.37987  0.21260  1.0000
  H   H1249     1.0  0.64258  0.46949  0.35357  1.0000
  H   H1250     1.0  0.60860  0.35246  0.32247  1.0000
  H   H1251     1.0  0.63606  0.22650  0.42158  1.0000
  H   H1252     1.0  0.63772  0.41870  0.32635  1.0000
  C   C735      1.0  0.60473  0.17981  0.47451  1.0000
  H   H1253     1.0  0.62659  0.16670  0.25715  1.0000
  H   H1254     1.0  0.56617  0.37003  0.29613  1.0000
  C   C736      1.0  0.50760  0.10602  0.13891  1.0000
  H   H1255     1.0  0.58092  0.17528  0.24623  1.0000
  Fe  Fe111     1.0  0.58423  0.29223  0.98376  1.0000
  H   H1256     1.0  0.50633  0.09113  0.16209  1.0000
  C   C737      1.0  0.57531  0.35388  0.28378  1.0000
  S   S219      1.0  0.54652  0.23776  0.99727  1.0000
  H   H1257     1.0  0.49132  0.20220  0.27743  1.0000
  H   H1258     1.0  0.70473  0.41247  0.37254  1.0000
  S   S220      1.0  0.66663  0.40505  0.46168  1.0000
  S   S221      1.0  0.49984  0.01741  0.43457  1.0000
  H   H1259     1.0  0.62423  0.43639  0.29340  1.0000
  C   C738      1.0  0.64564  0.20918  0.42906  1.0000
  C   C739      1.0  0.57762  0.14874  0.08141  1.0000
  H   H1260     1.0  0.58002  0.36886  0.19354  1.0000
  H   H1261     1.0  0.59287  0.04521  0.22359  1.0000
  H   H1262     1.0  0.53838  0.15812  0.09263  1.0000
  H   H1263     1.0  0.72027  0.19670  0.16663  1.0000
  H   H1264     1.0  0.66339  0.03504  0.37657  1.0000
  H   H1265     1.0  0.64819  0.03267  0.43168  1.0000
  C   C740      1.0  0.63072  0.17860  0.40286  1.0000
  H   H1266     1.0  0.52846  0.13257  0.14345  1.0000
  H   H1267     1.0  0.49189  0.30436  0.42060  1.0000
  H   H1268     1.0  0.66473  0.44132  0.29215  1.0000
  H   H1269     1.0  0.56415  0.14022  0.27508  1.0000
  H   H1270     1.0  0.60360  0.16387  0.40335  1.0000
  H   H1271     1.0  0.64120  0.16150  0.40535  1.0000
  H   H1272     1.0  0.59468  0.17701  0.08415  1.0000
  C   C741      1.0  0.49230  0.21421  0.30219  1.0000
  Fe  Fe112     1.0  0.52218  0.99287  0.40142  1.0000
  C   C742      1.0  0.67533  0.01913  0.37431  1.0000
  H   H1273     1.0  0.72721  0.25868  0.23350  1.0000
  C   C743      1.0  0.71898  0.19766  0.25196  1.0000
  H   H1274     1.0  0.52523  0.40950  0.97956  1.0000
  H   H1275     1.0  0.49536  0.25999  0.38870  1.0000
  C   C744      1.0  0.73530  0.99807  0.32163  1.0000
  C   C745      1.0  0.72403  0.22184  0.17689  1.0000
  C   C746      1.0  0.73727  0.23102  0.39977  1.0000
  H   H1276     1.0  0.50048  0.41286  0.23387  1.0000
  H   H1277     1.0  0.73026  0.46628  0.40851  1.0000
  C   C747      1.0  0.73074  0.24408  0.36979  1.0000
  H   H1278     1.0  0.65660  0.99137  0.37260  1.0000
  H   H1279     1.0  0.49402  0.15661  0.05670  1.0000
  H   H1280     1.0  0.48797  0.25679  0.47683  1.0000
  H   H1281     1.0  0.62284  0.42525  0.88464  1.0000
  H   H1282     1.0  0.70184  0.19966  0.85861  1.0000
  C   C748      1.0  0.69442  0.46505  0.73418  1.0000
  H   H1283     1.0  0.57464  0.22868  0.84157  1.0000
  C   C749      1.0  0.65592  0.09499  0.59195  1.0000
  C   C750      1.0  0.73264  0.00404  0.84213  1.0000
  C   C751      1.0  0.50096  0.16314  0.85302  1.0000
  Fe  Fe113     1.0  0.58038  0.22243  0.97123  1.0000
  H   H1284     1.0  0.56091  0.10612  0.93513  1.0000
  H   H1285     1.0  0.53622  0.26342  0.49343  1.0000
  C   C752      1.0  0.53391  0.13167  0.94932  1.0000
  C   C753      1.0  0.58934  0.03160  0.52699  1.0000
  C   C754      1.0  0.60025  0.38962  0.82782  1.0000
  H   H1286     1.0  0.68963  0.10208  0.63356  1.0000
  H   H1287     1.0  0.52757  0.31880  0.50812  1.0000
  S   S222      1.0  0.61616  0.27635  0.95348  1.0000
  Fe  Fe114     1.0  0.68079  0.29386  0.81103  1.0000
  S   S223      1.0  0.65437  0.31597  0.84215  1.0000
  C   C755      1.0  0.72649  0.48505  0.85469  1.0000
  Fe  Fe115     1.0  0.66953  0.32113  0.74281  1.0000
  S   S224      1.0  0.64293  0.34510  0.76877  1.0000
  S   S225      1.0  0.67618  0.31532  0.68489  1.0000
  Fe  Fe116     1.0  0.68275  0.36367  0.81026  1.0000
  S   S226      1.0  0.69610  0.41674  0.83371  1.0000
  Fe  Fe117     1.0  0.61630  0.29662  0.79916  1.0000
  S   S227      1.0  0.55976  0.27001  0.79854  1.0000
  S   S228      1.0  0.71165  0.34275  0.78208  1.0000
  S   S229      1.0  0.64043  0.27133  0.77021  1.0000
  S   S230      1.0  0.63414  0.36814  0.55222  1.0000
  S   S231      1.0  0.55360  0.06385  0.51542  1.0000
  H   H1288     1.0  0.66401  0.18874  0.50832  1.0000
  H   H1289     1.0  0.59698  0.29167  0.67294  1.0000
  H   H1290     1.0  0.67720  0.04374  0.62395  1.0000
  H   H1291     1.0  0.60387  0.18909  0.53091  1.0000
  H   H1292     1.0  0.56620  0.33828  0.89712  1.0000
  S   S232      1.0  0.64872  0.02585  0.76266  1.0000
  H   H1293     1.0  0.57511  0.20615  0.78323  1.0000
  H   H1294     1.0  0.73529  0.18711  0.74310  1.0000
  Fe  Fe118     1.0  0.52684  0.40985  0.72300  1.0000
  C   C756      1.0  0.55988  0.23345  0.71046  1.0000
  S   S233      1.0  0.58632  0.01727  0.68849  1.0000
  S   S234      1.0  0.49466  0.42200  0.69037  1.0000
  C   C757      1.0  0.56791  0.04187  0.54063  1.0000
  C   C758      1.0  0.55678  0.03351  0.57450  1.0000
  H   H1295     1.0  0.52707  0.23772  0.53189  1.0000
  H   H1296     1.0  0.71368  0.33536  0.94975  1.0000
  C   C759      1.0  0.61022  0.21776  0.86349  1.0000
  C   C760      1.0  0.73518  0.43797  0.70305  1.0000
  H   H1297     1.0  0.55190  0.23753  0.63095  1.0000
  H   H1298     1.0  0.49754  0.14077  0.86788  1.0000
  H   H1299     1.0  0.52893  0.30379  0.65031  1.0000
  H   H1300     1.0  0.48945  0.23690  0.79325  1.0000
  C   C761      1.0  0.66537  0.33143  0.64849  1.0000
  C   C762      1.0  0.66824  0.32011  0.61510  1.0000
  C   C763      1.0  0.65921  0.33141  0.58537  1.0000
  C   C764      1.0  0.64716  0.35423  0.58872  1.0000
  C   C765      1.0  0.64461  0.36585  0.62212  1.0000
  C   C766      1.0  0.65379  0.35466  0.65188  1.0000
  H   H1301     1.0  0.67734  0.30230  0.61222  1.0000
  H   H1302     1.0  0.66136  0.32231  0.55988  1.0000
  H   H1303     1.0  0.63538  0.38357  0.62498  1.0000
  H   H1304     1.0  0.65166  0.36376  0.67737  1.0000
  H   H1305     1.0  0.57989  0.30128  0.72766  1.0000
  Fe  Fe119     1.0  0.58559  0.48365  0.71843  1.0000
  H   H1306     1.0  0.60982  0.44238  0.82027  1.0000
  C   C767      1.0  0.49576  0.23975  0.82056  1.0000
  C   C768      1.0  0.56602  0.01382  0.59433  1.0000
  C   C769      1.0  0.70941  0.08912  0.54983  1.0000
  C   C770      1.0  0.53679  0.25837  0.86643  1.0000
  C   C771      1.0  0.52909  0.25526  0.83099  1.0000
  S   S235      1.0  0.51094  0.35945  0.75049  1.0000
  H   H1307     1.0  0.56220  0.26997  0.87508  1.0000
  S   S236      1.0  0.54433  0.45755  0.75664  1.0000
  H   H1308     1.0  0.70653  0.13322  0.60161  1.0000
  C   C772      1.0  0.49661  0.04651  0.74659  1.0000
  H   H1309     1.0  0.70803  0.00036  0.84309  1.0000
  H   H1310     1.0  0.59232  0.36662  0.81040  1.0000
  H   H1311     1.0  0.53925  0.29287  0.73512  1.0000
  H   H1312     1.0  0.57698  0.32935  0.85575  1.0000
  S   S237      1.0  0.56735  0.17306  0.94070  1.0000
  H   H1313     1.0  0.54140  0.38714  0.84212  1.0000
  C   C773      1.0  0.68514  0.03237  0.70465  1.0000
  C   C774      1.0  0.68581  0.03902  0.74023  1.0000
  H   H1314     1.0  0.55525  0.44254  0.49465  1.0000
  H   H1315     1.0  0.55716  0.12960  0.77603  1.0000
  H   H1316     1.0  0.66180  0.01888  0.69074  1.0000
  H   H1317     1.0  0.55616  0.00630  0.61993  1.0000
  C   C775      1.0  0.49213  0.33174  0.93728  1.0000
  C   C776      1.0  0.72548  0.40935  0.72947  1.0000
  C   C777      1.0  0.58707  0.00312  0.58062  1.0000
  H   H1318     1.0  0.53786  0.33389  0.80876  1.0000
  H   H1319     1.0  0.50005  0.14895  0.96315  1.0000
  C   C778      1.0  0.71639  0.05608  0.75800  1.0000
  H   H1320     1.0  0.69911  0.24830  0.95767  1.0000
  C   C779      1.0  0.51146  0.24620  0.89096  1.0000
  H   H1321     1.0  0.62689  0.47835  0.51096  1.0000
  C   C780      1.0  0.73107  0.45869  0.84017  1.0000
  H   H1322     1.0  0.63719  0.07105  0.60424  1.0000
  H   H1323     1.0  0.58991  0.13422  0.87140  1.0000
  H   H1324     1.0  0.68029  0.43671  0.72997  1.0000
  C   C781      1.0  0.51616  0.32278  0.94573  1.0000
  H   H1325     1.0  0.60709  0.16030  0.83482  1.0000
  C   C782      1.0  0.69091  0.10515  0.60490  1.0000
  H   H1326     1.0  0.59828  0.03835  0.50098  1.0000
  H   H1327     1.0  0.71364  0.03594  0.65996  1.0000
  H   H1328     1.0  0.51383  0.29903  0.93552  1.0000
  H   H1329     1.0  0.50238  0.44580  0.53491  1.0000
  H   H1330     1.0  0.54738  0.20667  0.71984  1.0000
  H   H1331     1.0  0.55653  0.42120  0.89967  1.0000
  H   H1332     1.0  0.61651  0.33508  0.89976  1.0000
  C   C783      1.0  0.58383  0.35020  0.87572  1.0000
  C   C784      1.0  0.53735  0.10264  0.94302  1.0000
  C   C785      1.0  0.53213  0.23877  0.50383  1.0000
  C   C786      1.0  0.57023  0.33976  0.70868  1.0000
  C   C787      1.0  0.56829  0.26526  0.62662  1.0000
  C   C788      1.0  0.69373  0.02199  0.58355  1.0000
  Fe  Fe120     1.0  0.53881  0.45125  0.65740  1.0000
  H   H1333     1.0  0.50102  0.32998  0.82642  1.0000
  C   C789      1.0  0.51906  0.47185  0.54367  1.0000
  H   H1334     1.0  0.70212  0.47920  0.86237  1.0000
  H   H1335     1.0  0.52008  0.22143  0.67584  1.0000
  H   H1336     1.0  0.56912  0.15087  0.51370  1.0000
  H   H1337     1.0  0.70328  0.21929  0.92725  1.0000
  C   C790      1.0  0.72920  0.24997  0.83669  1.0000
  H   H1338     1.0  0.52117  0.31127  0.84864  1.0000
  C   C791      1.0  0.65270  0.23586  0.48626  1.0000
  C   C792      1.0  0.51041  0.06906  0.94620  1.0000
  H   H1339     1.0  0.61490  0.00368  0.53631  1.0000
  H   H1340     1.0  0.71709  0.06071  0.78570  1.0000
  C   C793      1.0  0.59851  0.41715  0.80627  1.0000
  C   C794      1.0  0.50319  0.12682  0.95892  1.0000
  H   H1341     1.0  0.50346  0.24119  0.62453  1.0000
  C   C795      1.0  0.68260  0.04756  0.59580  1.0000
  H   H1342     1.0  0.70916  0.40977  0.74986  1.0000
  H   H1343     1.0  0.64962  0.13411  0.49228  1.0000
  H   H1344     1.0  0.52436  0.19169  0.80756  1.0000
  H   H1345     1.0  0.57888  0.11503  0.82903  1.0000
  H   H1346     1.0  0.53247  0.36302  0.88014  1.0000
  N   N54       1.0  0.58118  0.37970  0.86103  1.0000
  H   H1347     1.0  0.50454  0.28552  0.68702  1.0000
  H   H1348     1.0  0.62643  0.22460  0.84097  1.0000
  H   H1349     1.0  0.69756  0.12535  0.52471  1.0000
  H   H1350     1.0  0.57690  0.35402  0.73405  1.0000
  C   C796      1.0  0.59628  0.16743  0.51197  1.0000
  C   C797      1.0  0.58132  0.43378  0.88795  1.0000
  H   H1351     1.0  0.51575  0.04422  0.75989  1.0000
  C   C798      1.0  0.61810  0.35895  0.88987  1.0000
  Fe  Fe121     1.0  0.60108  0.99447  0.73145  1.0000
  H   H1352     1.0  0.51112  0.42314  0.83205  1.0000
  H   H1353     1.0  0.65171  0.23263  0.51476  1.0000
  C   C799      1.0  0.52227  0.38510  0.97048  1.0000
  H   H1354     1.0  0.61211  0.19857  0.87944  1.0000
  H   H1355     1.0  0.63688  0.36851  0.86953  1.0000
  H   H1356     1.0  0.63628  0.24657  0.48032  1.0000
  C   C800      1.0  0.55866  0.30148  0.71508  1.0000
  H   H1357     1.0  0.53327  0.11971  0.83198  1.0000
  C   C801      1.0  0.59564  0.40929  0.88741  1.0000
  Fe  Fe122     1.0  0.51451  0.47155  0.72155  1.0000
  H   H1358     1.0  0.68219  0.47115  0.75554  1.0000
  H   H1359     1.0  0.71179  0.38402  0.71561  1.0000
  S   S238      1.0  0.69375  0.25474  0.83352  1.0000
  H   H1360     1.0  0.57646  0.16163  0.74416  1.0000
  H   H1361     1.0  0.62686  0.39967  0.83318  1.0000
  H   H1362     1.0  0.71281  0.43224  0.68756  1.0000
  H   H1363     1.0  0.55065  0.34349  0.69695  1.0000
  H   H1364     1.0  0.69467  0.28711  0.49647  1.0000
  H   H1365     1.0  0.71433  0.12726  0.79256  1.0000
  C   C802      1.0  0.50521  0.20737  0.48304  1.0000
  C   C803      1.0  0.59887  0.01220  0.54699  1.0000
  H   H1366     1.0  0.54621  0.14197  0.87228  1.0000
  H   H1367     1.0  0.51779  0.24838  0.91826  1.0000
  Fe  Fe123     1.0  0.63980  0.35881  0.49479  1.0000
  C   C804      1.0  0.73063  0.47818  0.74500  1.0000
  H   H1368     1.0  0.71084  0.03827  0.49158  1.0000
  H   H1369     1.0  0.55583  0.23900  0.50118  1.0000
  H   H1370     1.0  0.59186  0.39943  0.91428  1.0000
  C   C805      1.0  0.55973  0.15397  0.76659  1.0000
  H   H1371     1.0  0.55833  0.27351  0.60500  1.0000
  C   C806      1.0  0.58428  0.13848  0.84455  1.0000
  H   H1372     1.0  0.69219  0.47775  0.71088  1.0000
  H   H1373     1.0  0.72775  0.08201  0.54058  1.0000
  H   H1374     1.0  0.65835  0.03836  0.58288  1.0000
  H   H1375     1.0  0.61311  0.42121  0.78248  1.0000
  C   C807      1.0  0.51880  0.28082  0.66694  1.0000
  H   H1376     1.0  0.71438  0.02416  0.59961  1.0000
  H   H1377     1.0  0.73014  0.46492  0.76911  1.0000
  H   H1378     1.0  0.50873  0.14663  0.80381  1.0000
  H   H1379     1.0  0.57709  0.23500  0.69004  1.0000
  N   N55       1.0  0.70561  0.08512  0.58858  1.0000
  S   S239      1.0  0.56980  0.43477  0.68721  1.0000
  H   H1380     1.0  0.51512  0.23565  0.71705  1.0000
  C   C808      1.0  0.49514  0.36305  0.94943  1.0000
  H   H1381     1.0  0.51051  0.39852  0.52765  1.0000
  H   H1382     1.0  0.59738  0.45678  0.90462  1.0000
  H   H1383     1.0  0.60694  0.15126  0.51949  1.0000
  S   S240      1.0  0.57772  0.33854  0.97231  1.0000
  S   S241      1.0  0.52910  0.44244  0.59978  1.0000
  H   H1384     1.0  0.56139  0.20162  0.87788  1.0000
  H   H1385     1.0  0.56464  0.34877  0.53038  1.0000
  H   H1386     1.0  0.57962  0.44300  0.86216  1.0000
  C   C809      1.0  0.54558  0.37371  0.49755  1.0000
  H   H1387     1.0  0.70046  0.02480  0.55589  1.0000
  C   C810      1.0  0.71053  0.24645  0.93322  1.0000
  C   C811      1.0  0.55374  0.14322  0.84484  1.0000
  H   H1388     1.0  0.69017  0.14135  0.77024  1.0000
  H   H1389     1.0  0.57410  0.25039  0.73271  1.0000
  H   H1390     1.0  0.59203  0.26764  0.61849  1.0000
  H   H1391     1.0  0.57311  0.40912  0.79738  1.0000
  H   H1392     1.0  0.69962  0.25457  0.91239  1.0000
  H   H1393     1.0  0.51330  0.04696  0.94065  1.0000
  H   H1394     1.0  0.50524  0.18397  0.49209  1.0000
  H   H1395     1.0  0.58233  0.31428  0.64938  1.0000
  C   C812      1.0  0.53515  0.47795  0.57581  1.0000
  H   H1396     1.0  0.51024  0.18597  0.87059  1.0000
  H   H1397     1.0  0.53564  0.14935  0.75645  1.0000
  H   H1398     1.0  0.65300  0.09150  0.56341  1.0000
  H   H1399     1.0  0.54013  0.04135  0.58510  1.0000
  H   H1400     1.0  0.68575  0.07080  0.53632  1.0000
  H   H1401     1.0  0.70801  0.12059  0.74599  1.0000
  H   H1402     1.0  0.62668  0.37771  0.91204  1.0000
  C   C813      1.0  0.71460  0.04261  0.68708  1.0000
  H   H1403     1.0  0.60083  0.19085  0.79739  1.0000
  H   H1404     1.0  0.73046  0.43220  0.49777  1.0000
  H   H1405     1.0  0.65026  0.11544  0.59972  1.0000
  C   C814      1.0  0.53356  0.24137  0.69637  1.0000
  C   C815      1.0  0.57444  0.20607  0.85301  1.0000
  N   N56       1.0  0.51497  0.37157  0.48216  1.0000
  C   C816      1.0  0.71938  0.12499  0.53550  1.0000
  C   C817      1.0  0.72587  0.21965  0.85077  1.0000
  H   H1406     1.0  0.56002  0.39814  0.51298  1.0000
  C   C818      1.0  0.54391  0.34542  0.96579  1.0000
  H   H1407     1.0  0.61994  0.24151  0.88009  1.0000
  H   H1408     1.0  0.52687  0.34403  0.54531  1.0000
  C   C819      1.0  0.71243  0.13872  0.76805  1.0000
  C   C820      1.0  0.49269  0.24994  0.64494  1.0000
  N   N57       1.0  0.54626  0.27740  0.68363  1.0000
  H   H1409     1.0  0.73299  0.14701  0.55381  1.0000
  C   C821      1.0  0.52563  0.33373  0.83327  1.0000
  C   C822      1.0  0.54018  0.34434  0.52158  1.0000
  C   C823      1.0  0.66111  0.18632  0.47957  1.0000
  C   C824      1.0  0.54672  0.37655  0.97811  1.0000
  C   C825      1.0  0.54513  0.36741  0.85488  1.0000
  H   H1410     1.0  0.59260  0.35200  0.69270  1.0000
  C   C826      1.0  0.57451  0.28824  0.65924  1.0000
  N   N58       1.0  0.55710  0.17513  0.82867  1.0000
  C   C827      1.0  0.52300  0.16945  0.82137  1.0000
  C   C828      1.0  0.57457  0.18318  0.79451  1.0000
  C   C829      1.0  0.63155  0.47877  0.48284  1.0000
  H   H1411     1.0  0.70668  0.25678  0.48270  1.0000
  C   C830      1.0  0.49526  0.37525  0.51087  1.0000
  S   S242      1.0  0.49345  0.99757  0.69801  1.0000
  C   C831      1.0  0.73635  0.34437  0.96447  1.0000
  H   H1412     1.0  0.67291  0.99530  0.58647  1.0000
  H   H1413     1.0  0.49199  0.99148  0.51211  1.0000
  H   H1414     1.0  0.73475  0.09097  0.63457  1.0000
  H   H1415     1.0  0.73592  0.12986  0.51321  1.0000
  H   H1416     1.0  0.73417  0.47301  0.50803  1.0000
  H   H1417     1.0  0.49651  0.08304  0.78394  1.0000
  H   H1418     1.0  0.48780  0.29036  0.77321  1.0000
  C   C832      1.0  0.68809  0.26475  0.47861  1.0000
  H   H1419     1.0  0.51767  0.44032  0.47889  1.0000
  H   H1420     1.0  0.50754  0.71566  0.46571  1.0000
  H   H1421     1.0  0.73756  0.73478  0.24408  1.0000
  S   S243      1.0  0.54272  0.60802  0.33119  1.0000
  H   H1422     1.0  0.55242  0.80340  0.07328  1.0000
  S   S244      1.0  0.51531  0.95187  0.30523  1.0000
  S   S245      1.0  0.51566  0.52985  0.27708  1.0000
  Fe  Fe124     1.0  0.66951  0.77270  0.31579  1.0000
  S   S246      1.0  0.64286  0.80186  0.32916  1.0000
  S   S247      1.0  0.68819  0.74932  0.35610  1.0000
  Fe  Fe125     1.0  0.66363  0.77974  0.24037  1.0000
  S   S248      1.0  0.63815  0.80995  0.24705  1.0000
  S   S249      1.0  0.67317  0.76422  0.18801  1.0000
  Fe  Fe126     1.0  0.67495  0.84008  0.28969  1.0000
  S   S250      1.0  0.69103  0.89790  0.28570  1.0000
  Fe  Fe127     1.0  0.60677  0.77136  0.28640  1.0000
  S   S251      1.0  0.55311  0.76005  0.28107  1.0000
  S   S252      1.0  0.70372  0.81268  0.27897  1.0000
  S   S253      1.0  0.63039  0.73883  0.27625  1.0000
  S   S254      1.0  0.56088  0.74345  0.08231  1.0000
  Fe  Fe128     1.0  0.69761  0.87702  0.42467  1.0000
  S   S255      1.0  0.67919  0.90860  0.45359  1.0000
  Fe  Fe129     1.0  0.62839  0.81126  0.42495  1.0000
  S   S256      1.0  0.60719  0.83935  0.45496  1.0000
  S   S257      1.0  0.59101  0.75232  0.41782  1.0000
  Fe  Fe130     1.0  0.63327  0.88339  0.41899  1.0000
  S   S258      1.0  0.60755  0.91354  0.39899  1.0000
  H   H1423     1.0  0.59822  0.91144  0.30367  1.0000
  S   S259      1.0  0.65353  0.85528  0.38761  1.0000
  H   H1424     1.0  0.50590  0.76457  0.36203  1.0000
  N   N59       1.0  0.66923  0.50766  0.31486  1.0000
  S   S260      1.0  0.53815  0.53328  0.35630  1.0000
  H   H1425     1.0  0.69117  0.91939  0.98646  1.0000
  Fe  Fe131     1.0  0.53931  0.55109  0.45381  1.0000
  S   S261      1.0  0.55847  0.59297  0.41558  1.0000
  Fe  Fe132     1.0  0.51177  0.55926  0.38355  1.0000
  H   H1426     1.0  0.50929  0.72986  0.17220  1.0000
  Fe  Fe133     1.0  0.58212  0.56453  0.39070  1.0000
  S   S262      1.0  0.63842  0.58868  0.38208  1.0000
  C   C833      1.0  0.71698  0.71371  0.15586  1.0000
  C   C834      1.0  0.69665  0.53658  0.33601  1.0000
  C   C835      1.0  0.55158  0.84906  0.27655  1.0000
  H   H1427     1.0  0.68518  0.61950  0.26357  1.0000
  C   C836      1.0  0.51725  0.73361  0.30548  1.0000
  C   C837      1.0  0.64536  0.58502  0.47369  1.0000
  C   C838      1.0  0.69036  0.61939  0.29084  1.0000
  C   C839      1.0  0.66414  0.60705  0.31477  1.0000
  C   C840      1.0  0.67025  0.60624  0.35027  1.0000
  C   C841      1.0  0.70295  0.61820  0.36116  1.0000
  C   C842      1.0  0.72888  0.63012  0.33723  1.0000
  H   H1428     1.0  0.63910  0.59751  0.30581  1.0000
  H   H1429     1.0  0.70833  0.61785  0.38834  1.0000
  C   C843      1.0  0.72528  0.72482  0.11797  1.0000
  C   C844      1.0  0.64211  0.75902  0.15885  1.0000
  C   C845      1.0  0.64785  0.76106  0.12326  1.0000
  C   C846      1.0  0.62312  0.75687  0.09977  1.0000
  C   C847      1.0  0.59226  0.74968  0.11171  1.0000
  C   C848      1.0  0.58642  0.74728  0.14733  1.0000
  C   C849      1.0  0.61139  0.75224  0.17091  1.0000
  H   H1430     1.0  0.67165  0.76662  0.11383  1.0000
  H   H1431     1.0  0.62814  0.75943  0.07246  1.0000
  H   H1432     1.0  0.56274  0.74186  0.15675  1.0000
  H   H1433     1.0  0.60662  0.75013  0.19837  1.0000
  Fe  Fe134     1.0  0.58126  0.75644  0.02867  1.0000
  H   H1434     1.0  0.53995  0.71287  0.33764  1.0000
  H   H1435     1.0  0.54215  0.55327  0.20866  1.0000
  C   C850      1.0  0.71645  0.71053  0.23386  1.0000
  C   C851      1.0  0.71151  0.93538  0.31362  1.0000
  H   H1436     1.0  0.49750  0.63567  0.13088  1.0000
  H   H1437     1.0  0.68853  0.51474  0.38817  1.0000
  H   H1438     1.0  0.52052  0.67056  0.16195  1.0000
  H   H1439     1.0  0.71830  0.91037  0.35706  1.0000
  H   H1440     1.0  0.52359  0.74446  0.41072  1.0000
  C   C852      1.0  0.71582  0.73348  0.34895  1.0000
  H   H1441     1.0  0.53976  0.90237  0.26097  1.0000
  H   H1442     1.0  0.70691  0.96816  0.27662  1.0000
  H   H1443     1.0  0.56051  0.80660  0.35178  1.0000
  C   C853      1.0  0.51623  0.80487  0.44129  1.0000
  H   H1444     1.0  0.70751  0.70962  0.39872  1.0000
  C   C854      1.0  0.63464  0.67380  0.40555  1.0000
  H   H1445     1.0  0.56247  0.93428  0.23023  1.0000
  C   C855      1.0  0.55478  0.64881  0.35400  1.0000
  C   C856      1.0  0.53761  0.65177  0.38225  1.0000
  C   C857      1.0  0.54882  0.68338  0.40078  1.0000
  C   C858      1.0  0.57765  0.71347  0.39159  1.0000
  C   C859      1.0  0.59500  0.71097  0.36322  1.0000
  C   C860      1.0  0.58376  0.67907  0.34482  1.0000
  H   H1446     1.0  0.51595  0.62949  0.39053  1.0000
  H   H1447     1.0  0.53486  0.68445  0.42245  1.0000
  H   H1448     1.0  0.61764  0.73334  0.35599  1.0000
  H   H1449     1.0  0.59814  0.67785  0.32375  1.0000
  C   C861      1.0  0.53825  0.94075  0.33520  1.0000
  C   C862      1.0  0.56440  0.96558  0.35590  1.0000
  C   C863      1.0  0.58421  0.95667  0.37621  1.0000
  C   C864      1.0  0.57929  0.92291  0.37566  1.0000
  C   C865      1.0  0.55281  0.89792  0.35542  1.0000
  C   C866      1.0  0.53286  0.90683  0.33522  1.0000
  C   C867      1.0  0.68227  0.50792  0.27920  1.0000
  H   H1450     1.0  0.60376  0.97655  0.39193  1.0000
  H   H1451     1.0  0.54792  0.87171  0.35485  1.0000
  H   H1452     1.0  0.51267  0.88718  0.31970  1.0000
  C   C868      1.0  0.60746  0.89645  0.28921  1.0000
  C   C869      1.0  0.66419  0.98545  0.44523  1.0000
  H   H1453     1.0  0.49664  0.62187  0.31421  1.0000
  H   H1454     1.0  0.59057  0.69518  0.45783  1.0000
  H   H1455     1.0  0.51813  0.82727  0.02108  1.0000
  H   H1456     1.0  0.63660  0.72221  0.41743  1.0000
  H   H1457     1.0  0.64216  0.97756  0.42865  1.0000
  H   H1458     1.0  0.50471  0.75757  0.08367  1.0000
  C   C870      1.0  0.50417  0.66236  0.13885  1.0000
  H   H1459     1.0  0.68816  0.87941  0.99831  1.0000
  H   H1460     1.0  0.63836  0.74893  0.47236  1.0000
  C   C871      1.0  0.48959  0.69468  0.35261  1.0000
  H   H1461     1.0  0.49587  0.96384  0.16282  1.0000
  Fe  Fe135     1.0  0.64473  0.79044  0.98649  1.0000
  S   S263      1.0  0.69971  0.81559  0.00008  1.0000
  N   N60       1.0  0.58727  0.62654  0.21498  1.0000
  C   C872      1.0  0.59313  0.59633  0.21592  1.0000
  C   C873      1.0  0.61821  0.65770  0.22884  1.0000
  C   C874      1.0  0.58088  0.63159  0.17773  1.0000
  C   C875      1.0  0.55764  0.61804  0.23674  1.0000
  C   C876      1.0  0.56675  0.56275  0.19751  1.0000
  C   C877      1.0  0.62889  0.65491  0.26591  1.0000
  C   C878      1.0  0.58825  0.66794  0.16809  1.0000
  C   C879      1.0  0.55013  0.64722  0.24471  1.0000
  H   H1462     1.0  0.61717  0.60307  0.20408  1.0000
  H   H1463     1.0  0.59478  0.58946  0.24316  1.0000
  H   H1464     1.0  0.61644  0.68139  0.22842  1.0000
  H   H1465     1.0  0.63922  0.66339  0.21161  1.0000
  H   H1466     1.0  0.59621  0.62573  0.15995  1.0000
  H   H1467     1.0  0.55482  0.61320  0.16985  1.0000
  H   H1468     1.0  0.53482  0.59700  0.22412  1.0000
  H   H1469     1.0  0.55854  0.60666  0.26171  1.0000
  S   S264      1.0  0.49167  0.51909  0.42528  1.0000
  H   H1470     1.0  0.56428  0.88358  0.21330  1.0000
  H   H1471     1.0  0.52621  0.66019  0.98745  1.0000
  H   H1472     1.0  0.64028  0.63844  0.26608  1.0000
  H   H1473     1.0  0.64787  0.68080  0.27596  1.0000
  H   H1474     1.0  0.60826  0.64482  0.28424  1.0000
  H   H1475     1.0  0.57828  0.66699  0.14166  1.0000
  H   H1476     1.0  0.61522  0.68599  0.16733  1.0000
  H   H1477     1.0  0.57718  0.67874  0.18589  1.0000
  S   S265      1.0  0.54802  0.74785  0.98296  1.0000
  H   H1478     1.0  0.57200  0.67205  0.25214  1.0000
  H   H1479     1.0  0.67829  0.68959  0.46847  1.0000
  H   H1480     1.0  0.56350  0.79410  0.39439  1.0000
  H   H1481     1.0  0.62458  0.58502  0.45973  1.0000
  C   C880      1.0  0.51473  0.78726  0.37970  1.0000
  H   H1482     1.0  0.64218  0.54502  0.43916  1.0000
  H   H1483     1.0  0.59115  0.83041  0.25499  1.0000
  H   H1484     1.0  0.72560  0.66111  0.14567  1.0000
  H   H1485     1.0  0.62120  0.85799  0.30610  1.0000
  C   C881      1.0  0.64066  0.51424  0.31406  1.0000
  H   H1486     1.0  0.73098  0.75523  0.29889  1.0000
  H   H1487     1.0  0.51252  0.90826  0.45893  1.0000
  H   H1488     1.0  0.64528  0.68117  0.37942  1.0000
  H   H1489     1.0  0.67423  0.96878  0.43644  1.0000
  S   S266      1.0  0.61079  0.73599  0.00261  1.0000
  C   C882      1.0  0.51893  0.80590  0.03424  1.0000
  H   H1490     1.0  0.60774  0.66031  0.40127  1.0000
  H   H1491     1.0  0.56323  0.83366  0.38815  1.0000
  H   H1492     1.0  0.70287  0.50235  0.28084  1.0000
  H   H1493     1.0  0.72004  0.70245  0.10073  1.0000
  H   H1494     1.0  0.59340  0.50020  0.29063  1.0000
  H   H1495     1.0  0.71223  0.73294  0.16910  1.0000
  H   H1496     1.0  0.52552  0.79278  0.01373  1.0000
  N   N61       1.0  0.58378  0.87425  0.26055  1.0000
  H   H1497     1.0  0.53455  0.64060  0.26799  1.0000
  H   H1498     1.0  0.50089  0.80956  0.26638  1.0000
  C   C883      1.0  0.59869  0.85522  0.24225  1.0000
  H   H1499     1.0  0.50522  0.79693  0.46716  1.0000
  H   H1500     1.0  0.58058  0.93799  0.27164  1.0000
  H   H1501     1.0  0.67663  0.55003  0.25725  1.0000
  H   H1502     1.0  0.70950  0.73519  0.10881  1.0000
  H   H1503     1.0  0.50622  0.80337  0.36660  1.0000
  H   H1504     1.0  0.51477  0.84248  0.40563  1.0000
  H   H1505     1.0  0.69271  0.68941  0.15539  1.0000
  H   H1506     1.0  0.60447  0.87068  0.18789  1.0000
  C   C884      1.0  0.51566  0.83816  0.43352  1.0000
  H   H1507     1.0  0.54201  0.81157  0.44577  1.0000
  H   H1508     1.0  0.50338  0.67851  0.20987  1.0000
  C   C885      1.0  0.72355  0.93468  0.34659  1.0000
  H   H1509     1.0  0.62614  0.86997  0.24442  1.0000
  H   H1510     1.0  0.63671  0.89610  0.33291  1.0000
  C   C886      1.0  0.64276  0.54951  0.46777  1.0000
  N   N62       1.0  0.49968  0.77588  0.41483  1.0000
  H   H1511     1.0  0.55488  0.83168  0.29424  1.0000
  H   H1512     1.0  0.71819  0.56297  0.27163  1.0000
  H   H1513     1.0  0.67335  0.72204  0.42522  1.0000
  S   S267      1.0  0.49300  0.93262  0.40309  1.0000
  H   H1514     1.0  0.51750  0.83979  0.23262  1.0000
  H   H1515     1.0  0.49465  0.91769  0.22947  1.0000
  H   H1516     1.0  0.69433  0.77262  0.45438  1.0000
  C   C887      1.0  0.52348  0.82525  0.25129  1.0000
  S   S268      1.0  0.67279  0.83222  0.46112  1.0000
  H   H1517     1.0  0.57108  0.83906  0.04537  1.0000
  C   C888      1.0  0.60165  0.68073  0.46948  1.0000
  H   H1518     1.0  0.62999  0.51165  0.34019  1.0000
  N   N63       1.0  0.63861  0.70093  0.46672  1.0000
  H   H1519     1.0  0.52913  0.80689  0.23759  1.0000
  H   H1520     1.0  0.60040  0.82948  0.19448  1.0000
  H   H1521     1.0  0.59114  0.65599  0.45463  1.0000
  H   H1522     1.0  0.56464  0.83378  0.19648  1.0000
  C   C889      1.0  0.61510  0.87712  0.31704  1.0000
  H   H1523     1.0  0.56528  0.56556  0.16920  1.0000
  C   C890      1.0  0.64646  0.70653  0.42876  1.0000
  H   H1524     1.0  0.54598  0.83975  0.07945  1.0000
  C   C891      1.0  0.50795  0.74046  0.46282  1.0000
  H   H1525     1.0  0.59443  0.86431  0.33504  1.0000
  S   S269      1.0  0.56257  0.52270  0.43028  1.0000
  C   C892      1.0  0.54839  0.82265  0.06002  1.0000
  H   H1526     1.0  0.71997  0.53606  0.33342  1.0000
  H   H1527     1.0  0.73123  0.76026  0.99622  1.0000
  Fe  Fe136     1.0  0.49657  0.55223  0.31788  1.0000
  H   H1528     1.0  0.53251  0.76099  0.47247  1.0000
  H   H1529     1.0  0.66822  0.60624  0.46289  1.0000
  H   H1530     1.0  0.51813  0.62381  0.45096  1.0000
  C   C893      1.0  0.58002  0.89795  0.23609  1.0000
  H   H1531     1.0  0.70217  0.56195  0.32628  1.0000
  H   H1532     1.0  0.53888  0.86081  0.44335  1.0000
  H   H1533     1.0  0.66860  0.53995  0.38041  1.0000
  H   H1534     1.0  0.51961  0.67966  0.11821  1.0000
  C   C894      1.0  0.69523  0.54180  0.25953  1.0000
  C   C895      1.0  0.59120  0.84694  0.20308  1.0000
  H   H1535     1.0  0.70078  0.57936  0.44547  1.0000
  H   H1536     1.0  0.64233  0.65585  0.41548  1.0000
  H   H1537     1.0  0.53668  0.65055  0.22292  1.0000
  C   C896      1.0  0.49390  0.60692  0.46268  1.0000
  C   C897      1.0  0.51780  0.71373  0.33248  1.0000
  H   H1538     1.0  0.49521  0.80334  0.10147  1.0000
  H   H1539     1.0  0.57316  0.54229  0.20121  1.0000
  H   H1540     1.0  0.71209  0.56042  0.38720  1.0000
  H   H1541     1.0  0.60448  0.91662  0.22549  1.0000
  H   H1542     1.0  0.63146  0.91589  0.27826  1.0000
  H   H1543     1.0  0.70700  0.66530  0.20421  1.0000
  H   H1544     1.0  0.52170  0.73747  0.21653  1.0000
  H   H1545     1.0  0.70160  0.53787  0.23281  1.0000
  C   C898      1.0  0.72320  0.63140  0.30194  1.0000
  H   H1546     1.0  0.64919  0.54124  0.30709  1.0000
  C   C899      1.0  0.56488  0.91903  0.25116  1.0000
  H   H1547     1.0  0.54243  0.86288  0.29290  1.0000
  C   C900      1.0  0.69053  0.53747  0.37514  1.0000
  H   H1548     1.0  0.66557  0.50946  0.44391  1.0000
  C   C901      1.0  0.55266  0.80653  0.37888  1.0000
  S   S270      1.0  0.61717  0.81099  0.01680  1.0000
  C   C902      1.0  0.71674  0.96723  0.30172  1.0000
  C   C903      1.0  0.72150  0.71577  0.37540  1.0000
  Fe  Fe137     1.0  0.51586  0.49291  0.39769  1.0000
  C   C904      1.0  0.73455  0.74096  0.31900  1.0000
  H   H1549     1.0  0.57020  0.92448  0.46529  1.0000
  H   H1550     1.0  0.68280  0.70267  0.99116  1.0000
  C   C905      1.0  0.66426  0.51038  0.47266  1.0000
  C   C906      1.0  0.50291  0.74494  0.42419  1.0000
  C   C907      1.0  0.50101  0.60448  0.98605  1.0000
  H   H1551     1.0  0.70531  0.69420  0.25669  1.0000
  C   C908      1.0  0.50008  0.72343  0.19885  1.0000
  H   H1552     1.0  0.69747  0.71529  0.22233  1.0000
  C   C909      1.0  0.61181  0.49150  0.28911  1.0000
  H   H1553     1.0  0.50335  0.85269  0.06281  1.0000
  H   H1554     1.0  0.62130  0.66033  0.99280  1.0000
  H   H1555     1.0  0.50095  0.95324  0.47285  1.0000
  H   H1556     1.0  0.61940  0.49377  0.26176  1.0000
  C   C910      1.0  0.70227  0.57353  0.47317  1.0000
  H   H1557     1.0  0.73021  0.54906  0.45466  1.0000
  H   H1558     1.0  0.48881  0.60231  0.01034  1.0000
  H   H1559     1.0  0.56524  0.96057  0.47446  1.0000
  H   H1560     1.0  0.49037  0.67903  0.37308  1.0000
  H   H1561     1.0  0.49422  0.83787  0.44590  1.0000
  H   H1562     1.0  0.61796  0.53018  0.47690  1.0000
  C   C911      1.0  0.72817  0.69181  0.20903  1.0000
  C   C912      1.0  0.73174  0.56729  0.47552  1.0000
  H   H1563     1.0  0.49510  0.73893  0.04152  1.0000
  H   H1564     1.0  0.63862  0.65327  0.47442  1.0000
  C   C913      1.0  0.48769  0.73354  0.29833  1.0000
  H   H1565     1.0  0.67366  0.73440  0.97831  1.0000
  H   H1566     1.0  0.71818  0.98767  0.47720  1.0000
  H   H1567     1.0  0.50698  0.55476  0.92208  1.0000
  C   C914      1.0  0.68956  0.68044  0.92779  1.0000
  H   H1568     1.0  0.59364  0.65181  0.51713  1.0000
  S   S271      1.0  0.55698  0.50188  0.68613  1.0000
  S   S272      1.0  0.58069  0.84900  0.95910  1.0000
  H   H1569     1.0  0.50481  0.74720  0.78130  1.0000
  H   H1570     1.0  0.64000  0.53165  0.53171  1.0000
  H   H1571     1.0  0.60133  0.62750  0.95914  1.0000
  C   C915      1.0  0.53774  0.64068  0.94148  1.0000
  H   H1572     1.0  0.51192  0.80081  0.93964  1.0000
  H   H1573     1.0  0.67319  0.76732  0.88906  1.0000
  S   S273      1.0  0.59532  0.94922  0.69995  1.0000
  Fe  Fe138     1.0  0.57736  0.97015  0.65825  1.0000
  H   H1574     1.0  0.68857  0.64055  0.89397  1.0000
  C   C916      1.0  0.68452  0.95128  0.73371  1.0000
  S   S274      1.0  0.61625  0.78482  0.93725  1.0000
  Fe  Fe139     1.0  0.69939  0.81803  0.81197  1.0000
  S   S275      1.0  0.66710  0.83604  0.83811  1.0000
  H   H1575     1.0  0.53281  0.97481  0.50377  1.0000
  Fe  Fe140     1.0  0.68583  0.83634  0.73974  1.0000
  S   S276      1.0  0.65351  0.85558  0.76068  1.0000
  S   S277      1.0  0.69705  0.83386  0.68253  1.0000
  Fe  Fe141     1.0  0.69166  0.88187  0.80345  1.0000
  S   S278      1.0  0.70154  0.93570  0.82070  1.0000
  Fe  Fe142     1.0  0.63120  0.80863  0.79369  1.0000
  S   S279      1.0  0.57478  0.77691  0.78942  1.0000
  H   H1576     1.0  0.68409  0.50576  0.48189  1.0000
  S   S280      1.0  0.66180  0.78756  0.77003  1.0000
  S   S281      1.0  0.64620  0.87183  0.54546  1.0000
  S   S282      1.0  0.54784  0.56721  0.51046  1.0000
  H   H1577     1.0  0.71519  0.68704  0.82388  1.0000
  H   H1578     1.0  0.55812  0.73124  0.67612  1.0000
  H   H1579     1.0  0.61889  0.77328  0.66305  1.0000
  H   H1580     1.0  0.64862  0.63059  0.90808  1.0000
  H   H1581     1.0  0.63715  0.73448  0.90854  1.0000
  H   H1582     1.0  0.49846  0.60995  0.49102  1.0000
  H   H1583     1.0  0.51986  0.55290  0.73899  1.0000
  H   H1584     1.0  0.54896  0.86898  0.88685  1.0000
  Fe  Fe143     1.0  0.54280  0.92146  0.71759  1.0000
  H   H1585     1.0  0.51241  0.60414  0.74049  1.0000
  H   H1586     1.0  0.70581  0.97909  0.68762  1.0000
  C   C917      1.0  0.52443  0.76300  0.87955  1.0000
  C   C918      1.0  0.54398  0.53312  0.53518  1.0000
  H   H1587     1.0  0.67454  0.52838  0.57189  1.0000
  H   H1588     1.0  0.58977  0.85595  0.66194  1.0000
  H   H1589     1.0  0.50268  0.68634  0.80898  1.0000
  C   C919      1.0  0.55560  0.51191  0.58789  1.0000
  C   C920      1.0  0.55981  0.53952  0.56766  1.0000
  H   H1590     1.0  0.51945  0.78694  0.67535  1.0000
  H   H1591     1.0  0.64241  0.64084  0.97189  1.0000
  H   H1592     1.0  0.56842  0.51690  0.61252  1.0000
  H   H1593     1.0  0.57552  0.56575  0.57703  1.0000
  C   C921      1.0  0.68241  0.84457  0.64489  1.0000
  C   C922      1.0  0.68940  0.83572  0.61211  1.0000
  C   C923      1.0  0.67859  0.84387  0.58144  1.0000
  C   C924      1.0  0.66075  0.86118  0.58320  1.0000
  C   C925      1.0  0.65394  0.87028  0.61601  1.0000
  C   C926      1.0  0.66469  0.86204  0.64668  1.0000
  H   H1594     1.0  0.70329  0.82242  0.61041  1.0000
  H   H1595     1.0  0.68412  0.83683  0.55643  1.0000
  H   H1596     1.0  0.64032  0.88386  0.61762  1.0000
  H   H1597     1.0  0.65953  0.86948  0.67162  1.0000
  H   H1598     1.0  0.64313  0.59048  0.50135  1.0000
  C   C927      1.0  0.50367  0.73364  0.66578  1.0000
  H   H1599     1.0  0.65621  0.52751  0.66773  1.0000
  H   H1600     1.0  0.71774  0.82077  0.92621  1.0000
  H   H1601     1.0  0.67279  0.57385  0.53188  1.0000
  H   H1602     1.0  0.53417  0.67584  0.81806  1.0000
  C   C928      1.0  0.55021  0.77210  0.85598  1.0000
  C   C929      1.0  0.54340  0.76664  0.82039  1.0000
  H   H1603     1.0  0.49609  0.64332  0.80173  1.0000
  H   H1604     1.0  0.57528  0.78278  0.86546  1.0000
  H   H1605     1.0  0.51119  0.49417  0.49828  1.0000
  H   H1606     1.0  0.53012  0.76703  0.90703  1.0000
  H   H1607     1.0  0.71083  0.55572  0.63954  1.0000
  C   C930      1.0  0.50690  0.95372  0.50079  1.0000
  H   H1608     1.0  0.68275  0.94169  0.93803  1.0000
  H   H1609     1.0  0.59608  0.84985  0.79243  1.0000
  H   H1610     1.0  0.51330  0.65133  0.87015  1.0000
  C   C931      1.0  0.57960  0.84630  0.68781  1.0000
  H   H1611     1.0  0.51802  0.88404  0.49090  1.0000
  C   C932      1.0  0.67850  0.53698  0.68325  1.0000
  C   C933      1.0  0.67641  0.53374  0.71924  1.0000
  C   C934      1.0  0.70573  0.54622  0.73892  1.0000
  C   C935      1.0  0.70954  0.55300  0.66734  1.0000
  H   H1612     1.0  0.66003  0.87972  0.96770  1.0000
  H   H1613     1.0  0.70442  0.54356  0.76676  1.0000
  C   C936      1.0  0.52203  0.91012  0.48573  1.0000
  H   H1614     1.0  0.64632  0.69222  0.53642  1.0000
  H   H1615     1.0  0.49713  0.86959  0.56147  1.0000
  H   H1616     1.0  0.62374  0.66578  0.91466  1.0000
  C   C937      1.0  0.68680  0.72067  0.96991  1.0000
  S   S283      1.0  0.54957  0.96549  0.75277  1.0000
  C   C938      1.0  0.51045  0.75194  0.80875  1.0000
  H   H1617     1.0  0.67094  0.98264  0.50190  1.0000
  H   H1618     1.0  0.61425  0.96328  0.81915  1.0000
  H   H1619     1.0  0.53552  0.78128  0.59944  1.0000
  H   H1620     1.0  0.55640  0.83325  0.77310  1.0000
  S   S284      1.0  0.72579  0.86570  0.78015  1.0000
  H   H1621     1.0  0.69282  0.66839  0.95125  1.0000
  C   C939      1.0  0.51413  0.82525  0.94705  1.0000
  H   H1622     1.0  0.72359  0.92016  0.74109  1.0000
  C   C940      1.0  0.49147  0.74811  0.86798  1.0000
  H   H1623     1.0  0.55004  0.59752  0.63995  1.0000
  H   H1624     1.0  0.52301  0.76608  0.71166  1.0000
  H   H1625     1.0  0.63554  0.98647  0.48964  1.0000
  N   N64       1.0  0.56369  0.78238  0.67675  1.0000
  H   H1626     1.0  0.54424  0.81550  0.63050  1.0000
  C   C941      1.0  0.55492  0.80193  0.61628  1.0000
  C   C942      1.0  0.62503  0.65034  0.96765  1.0000
  C   C943      1.0  0.66611  0.54719  0.52362  1.0000
  C   C944      1.0  0.68726  0.53796  0.54693  1.0000
  H   H1627     1.0  0.65972  0.94681  0.72637  1.0000
  H   H1628     1.0  0.62800  0.89923  0.90960  1.0000
  H   H1629     1.0  0.49934  0.55340  0.66665  1.0000
  Fe  Fe144     1.0  0.53421  0.98445  0.70640  1.0000
  H   H1630     1.0  0.62387  0.78670  0.70834  1.0000
  H   H1631     1.0  0.66851  0.71027  0.88203  1.0000
  H   H1632     1.0  0.49214  0.67581  0.92557  1.0000
  S   S285      1.0  0.63810  0.51465  0.74095  1.0000
  N   N65       1.0  0.67279  0.70094  0.93615  1.0000
  H   H1633     1.0  0.70561  0.74129  0.90230  1.0000
  H   H1634     1.0  0.53097  0.90029  0.58772  1.0000
  H   H1635     1.0  0.61979  0.94078  0.78375  1.0000
  C   C945      1.0  0.70823  0.89458  0.94629  1.0000
  C   C946      1.0  0.51121  0.57763  0.93644  1.0000
  H   H1636     1.0  0.55385  0.84066  0.68936  1.0000
  H   H1637     1.0  0.53313  0.58443  0.59722  1.0000
  H   H1638     1.0  0.56618  0.76206  0.62628  1.0000
  H   H1639     1.0  0.57981  0.92484  0.80111  1.0000
  H   H1640     1.0  0.54497  0.87059  0.81384  1.0000
  S   S286      1.0  0.59699  0.97648  0.60424  1.0000
  H   H1641     1.0  0.71596  0.93553  0.89281  1.0000
  H   H1642     1.0  0.70311  0.73429  0.81374  1.0000
  C   C947      1.0  0.52382  0.49926  0.52312  1.0000
  S   S287      1.0  0.52436  0.93831  0.67257  1.0000
  H   H1643     1.0  0.57839  0.81105  0.72553  1.0000
  C   C948      1.0  0.66442  0.74902  0.91067  1.0000
  H   H1644     1.0  0.67243  0.76467  0.93503  1.0000
  C   C949      1.0  0.52764  0.76882  0.68328  1.0000
  H   H1645     1.0  0.59920  0.80407  0.63588  1.0000
  H   H1646     1.0  0.61063  0.74325  0.69652  1.0000
  C   C950      1.0  0.55589  0.91676  0.86763  1.0000
  S   S288      1.0  0.52214  0.86795  0.74019  1.0000
  H   H1647     1.0  0.53906  0.90751  0.84478  1.0000
  C   C951      1.0  0.52667  0.58580  0.62455  1.0000
  C   C952      1.0  0.53217  0.61065  0.92322  1.0000
  C   C953      1.0  0.68627  0.89405  0.97638  1.0000
  H   H1648     1.0  0.50329  0.68393  0.86947  1.0000
  H   H1649     1.0  0.68087  0.92853  0.74785  1.0000
  H   H1650     1.0  0.58083  0.84266  0.88090  1.0000
  C   C954      1.0  0.49535  0.54954  0.73858  1.0000
  H   H1651     1.0  0.71513  0.69771  0.91893  1.0000
  H   H1652     1.0  0.73052  0.76737  0.95124  1.0000
  H   H1653     1.0  0.54513  0.83547  0.83247  1.0000
  H   H1654     1.0  0.62485  0.69386  0.94740  1.0000
  H   H1655     1.0  0.54123  0.91759  0.88977  1.0000
  C   C955      1.0  0.66148  0.68487  0.52060  1.0000
  Fe  Fe145     1.0  0.58031  0.73108  0.95570  1.0000
  H   H1656     1.0  0.70355  0.74906  0.48574  1.0000
  H   H1657     1.0  0.49221  0.50684  0.58656  1.0000
  N   N66       1.0  0.66933  0.54493  0.48491  1.0000
  S   S289      1.0  0.56229  0.68169  0.92304  1.0000
  H   H1658     1.0  0.51697  0.53579  0.63849  1.0000
  C   C956      1.0  0.49105  0.57853  0.73945  1.0000
  H   H1659     1.0  0.61041  0.82503  0.69500  1.0000
  H   H1660     1.0  0.57591  0.94363  0.86422  1.0000
  C   C957      1.0  0.54464  0.85260  0.95811  1.0000
  H   H1661     1.0  0.70952  0.59799  0.48792  1.0000
  C   C958      1.0  0.49648  0.65851  0.85713  1.0000
  H   H1662     1.0  0.63570  0.86456  0.90221  1.0000
  H   H1663     1.0  0.49215  0.96895  0.54942  1.0000
  C   C959      1.0  0.58372  0.81551  0.69746  1.0000
  H   H1664     1.0  0.65688  0.65966  0.53013  1.0000
  H   H1665     1.0  0.72719  0.87447  0.88815  1.0000
  H   H1666     1.0  0.68798  0.70318  0.52612  1.0000
  C   C960      1.0  0.57197  0.75627  0.69065  1.0000
  Fe  Fe146     1.0  0.65314  0.86304  0.48804  1.0000
  H   H1667     1.0  0.56429  0.75056  0.71813  1.0000
  C   C961      1.0  0.65421  0.68127  0.48110  1.0000
  H   H1668     1.0  0.54389  0.61289  0.89860  1.0000
  C   C962      1.0  0.50730  0.66623  0.81923  1.0000
  C   C963      1.0  0.72402  0.74702  0.97035  1.0000
  H   H1669     1.0  0.59408  0.86790  0.70663  1.0000
  C   C964      1.0  0.50303  0.54988  0.63876  1.0000
  H   H1670     1.0  0.50004  0.79860  0.76016  1.0000
  C   C965      1.0  0.51748  0.92408  0.54733  1.0000
  H   H1671     1.0  0.65316  0.90009  0.87391  1.0000
  N   N67       1.0  0.58692  0.88457  0.84869  1.0000
  C   C966      1.0  0.60022  0.86359  0.86534  1.0000
  C   C967      1.0  0.56183  0.86129  0.82165  1.0000
  C   C968      1.0  0.56978  0.89316  0.87686  1.0000
  C   C969      1.0  0.61501  0.91648  0.83374  1.0000
  C   C970      1.0  0.63101  0.88352  0.88905  1.0000
  C   C971      1.0  0.57613  0.85556  0.78789  1.0000
  H   H1672     1.0  0.50218  0.92834  0.56652  1.0000
  C   C972      1.0  0.60620  0.93705  0.80825  1.0000
  H   H1673     1.0  0.71607  0.94362  0.63328  1.0000
  H   H1674     1.0  0.60701  0.84985  0.84580  1.0000
  C   C973      1.0  0.48920  0.86191  0.95215  1.0000
  H   H1675     1.0  0.53895  0.88989  0.54555  1.0000
  C   C974      1.0  0.70463  0.95663  0.70057  1.0000
  H   H1676     1.0  0.58642  0.90597  0.89957  1.0000
  H   H1677     1.0  0.63050  0.93483  0.85493  1.0000
  H   H1678     1.0  0.63176  0.90967  0.81974  1.0000
  C   C975      1.0  0.67888  0.72495  0.90681  1.0000
  H   H1679     1.0  0.54205  0.94737  0.54957  1.0000
  H   H1680     1.0  0.71175  0.56096  0.55266  1.0000
  H   H1681     1.0  0.58541  0.87807  0.77100  1.0000
  H   H1682     1.0  0.49198  0.84547  0.87092  1.0000
  H   H1683     1.0  0.71710  0.90610  0.69792  1.0000
  C   C976      1.0  0.67262  0.65184  0.89951  1.0000
  H   H1684     1.0  0.68919  0.93407  0.68307  1.0000
  C   C977      1.0  0.68854  0.76128  0.48050  1.0000
  C   C978      1.0  0.54716  0.88450  0.96669  1.0000
  H   H1685     1.0  0.71903  0.97980  0.95618  1.0000
  C   C979      1.0  0.72368  0.73887  0.83028  1.0000
  H   H1686     1.0  0.66917  0.66182  0.87480  1.0000
  H   H1687     1.0  0.64557  0.73456  0.51156  1.0000
  H   H1688     1.0  0.57318  0.82083  0.59832  1.0000
  C   C980      1.0  0.52105  0.89388  0.56068  1.0000
  C   C981      1.0  0.65125  0.73605  0.48369  1.0000
  C   C982      1.0  0.57217  0.78718  0.63884  1.0000
  C   C983      1.0  0.65117  0.97542  0.48222  1.0000
  H   H1689     1.0  0.57225  0.93836  0.50938  1.0000
  H   H1690     1.0  0.69575  0.97429  0.75144  1.0000
  C   C984      1.0  0.60849  0.76591  0.68924  1.0000
  C   C985      1.0  0.49526  0.57438  0.96788  1.0000
  H   H1691     1.0  0.73432  0.55805  0.50093  1.0000
  C   C986      1.0  0.63620  0.67812  0.93987  1.0000
  H   H1692     1.0  0.50367  0.71220  0.67966  1.0000
  C   C987      1.0  0.58773  0.67076  0.50604  1.0000
  C   C988      1.0  0.73054  0.71207  0.83622  1.0000
  H   H1693     1.0  0.51677  0.60357  0.62722  1.0000
  H   H1694     1.0  0.49587  0.59812  0.84463  1.0000
  H   H1695     1.0  0.73404  0.49274  0.67659  1.0000
  H   H1696     1.0  0.69223  0.88372  0.92269  1.0000
  H   H1697     1.0  0.70436  0.97941  0.91363  1.0000
  H   H1698     1.0  0.69044  0.51672  0.53648  1.0000
  C   C989      1.0  0.73503  0.92748  0.71526  1.0000
  C   C990      1.0  0.70773  0.96318  0.93275  1.0000
  N   N68       1.0  0.50358  0.91989  0.51113  1.0000
  Fe  Fe147     1.0  0.58610  0.80184  0.96898  1.0000
  H   H1699     1.0  0.57071  0.90597  0.97505  1.0000
  H   H1700     1.0  0.69622  0.78311  0.49940  1.0000
  C   C991      1.0  0.51956  0.88908  0.96404  1.0000
  H   H1701     1.0  0.59572  0.69338  0.52376  1.0000
  H   H1702     1.0  0.56046  0.65765  0.50410  1.0000
  H   H1703     1.0  0.49114  0.54212  0.56842  1.0000
  C   C992      1.0  0.52231  0.63738  0.97316  1.0000
  H   H1704     1.0  0.52206  0.91397  0.97009  1.0000
  C   C993      1.0  0.72959  0.95022  0.91654  1.0000
  H   H1705     1.0  0.63527  0.94694  0.48268  1.0000
  C   C994      1.0  0.55951  0.93510  0.48416  1.0000
  C   C995      1.0  0.49257  0.82780  0.72107  1.0000
  H   H1706     1.0  0.71560  0.87534  0.95265  1.0000
  H   H1707     1.0  0.50900  0.73229  0.63808  1.0000
  S   S290      1.0  0.73353  0.80509  0.84297  1.0000
  C   C996      1.0  0.73701  0.97637  0.83145  1.0000
  H   H1708     1.0  0.73191  0.65273  0.68263  1.0000
  H   H1709     1.0  0.73215  0.67452  0.72158  1.0000
  C   C997      1.0  0.73669  0.56156  0.72292  1.0000
  H   H1710     1.0  0.48829  0.73977  0.47913  1.0000
  H   H1711     1.0  0.77247  0.30478  0.26383  1.0000
  S   S291      1.0  0.93379  0.45729  0.26766  1.0000
  H   H1712     1.0  0.75807  0.25887  0.05049  1.0000
  C   C998      1.0  0.84664  0.03436  0.41947  1.0000
  S   S292      1.0  0.86089  0.44883  0.32006  1.0000
  S   S293      1.0  0.95388  0.03506  0.27865  1.0000
  H   H1713     1.0  0.94416  0.32904  0.13188  1.0000
  Fe  Fe148     1.0  0.81138  0.13275  0.45758  1.0000
  S   S294      1.0  0.84849  0.18422  0.43843  1.0000
  Fe  Fe149     1.0  0.80272  0.09429  0.38932  1.0000
  S   S295      1.0  0.84065  0.14276  0.36390  1.0000
  S   S296      1.0  0.77706  0.03594  0.37766  1.0000
  Fe  Fe150     1.0  0.87230  0.15721  0.41214  1.0000
  S   S297      1.0  0.92795  0.18033  0.42254  1.0000
  Fe  Fe151     1.0  0.81552  0.16898  0.39125  1.0000
  H   H1714     1.0  0.85903  0.99937  0.27053  1.0000
  S   S298      1.0  0.83683  0.10652  0.43520  1.0000
  S   S299      1.0  0.77594  0.11951  0.41317  1.0000
  Fe  Fe152     1.0  0.81475  0.17400  0.26654  1.0000
  S   S300      1.0  0.83682  0.22327  0.23634  1.0000
  S   S301      1.0  0.75771  0.13695  0.26770  1.0000
  Fe  Fe153     1.0  0.88400  0.18120  0.27980  1.0000
  S   S302      1.0  0.90911  0.23188  0.25187  1.0000
  S   S303      1.0  0.91444  0.15363  0.29098  1.0000
  Fe  Fe154     1.0  0.87580  0.24712  0.27900  1.0000
  S   S304      1.0  0.88727  0.30206  0.29655  1.0000
  Fe  Fe155     1.0  0.86915  0.20559  0.21102  1.0000
  S   S305      1.0  0.89040  0.21292  0.15639  1.0000
  S   S306      1.0  0.85287  0.19857  0.30976  1.0000
  S   S307      1.0  0.84504  0.15505  0.23776  1.0000
  S   S308      1.0  0.82243  0.17500  0.00538  1.0000
  C   C999      1.0  0.98168  0.99428  0.13007  1.0000
  C   C1000     1.0  0.92972  0.13149  0.31760  1.0000
  C   C1001     1.0  0.95271  0.12316  0.30380  1.0000
  C   C1002     1.0  0.96528  0.10557  0.32319  1.0000
  C   C1003     1.0  0.95492  0.09508  0.35702  1.0000
  C   C1004     1.0  0.93165  0.10320  0.37072  1.0000
  C   C1005     1.0  0.91925  0.12116  0.35146  1.0000
  H   H1715     1.0  0.96069  0.12985  0.27766  1.0000
  H   H1716     1.0  0.92375  0.09632  0.39681  1.0000
  H   H1717     1.0  0.90175  0.12723  0.36302  1.0000
  C   C1006     1.0  0.91650  0.33972  0.32122  1.0000
  C   C1007     1.0  0.91158  0.36823  0.32409  1.0000
  C   C1008     1.0  0.93305  0.39800  0.34425  1.0000
  C   C1009     1.0  0.96033  0.40020  0.36162  1.0000
  C   C1010     1.0  0.94455  0.34245  0.33729  1.0000
  H   H1718     1.0  0.89076  0.36728  0.31090  1.0000
  H   H1719     1.0  0.92806  0.41898  0.34696  1.0000
  H   H1720     1.0  0.94502  0.24191  0.03880  1.0000
  H   H1721     1.0  0.88971  0.99620  0.07951  1.0000
  C   C1011     1.0  0.87011  0.19931  0.11512  1.0000
  C   C1012     1.0  0.88823  0.19930  0.08615  1.0000
  C   C1013     1.0  0.87402  0.19152  0.05246  1.0000
  C   C1014     1.0  0.84141  0.18364  0.04733  1.0000
  C   C1015     1.0  0.82303  0.18274  0.07643  1.0000
  C   C1016     1.0  0.83720  0.19037  0.11011  1.0000
  H   H1722     1.0  0.91357  0.20571  0.08977  1.0000
  H   H1723     1.0  0.88826  0.19175  0.03043  1.0000
  H   H1724     1.0  0.79765  0.17622  0.07284  1.0000
  H   H1725     1.0  0.82279  0.18969  0.13212  1.0000
  C   C1017     1.0  0.96206  0.20783  0.39617  1.0000
  C   C1018     1.0  0.74636  0.24402  0.33916  1.0000
  C   C1019     1.0  0.77624  0.21986  0.36894  1.0000
  H   H1726     1.0  0.82409  0.04098  0.22202  1.0000
  C   C1020     1.0  0.95843  0.21268  0.36117  1.0000
  S   S309      1.0  0.74360  0.40261  0.42973  1.0000
  H   H1727     1.0  0.93407  0.20037  0.34947  1.0000
  H   H1728     1.0  0.94965  0.32154  0.33439  1.0000
  H   H1729     1.0  0.90231  0.24397  0.47133  1.0000
  H   H1730     1.0  0.77867  0.33804  0.45575  1.0000
  C   C1021     1.0  0.93134  0.48636  0.12970  1.0000
  H   H1731     1.0  0.78219  0.23350  0.31531  1.0000
  C   C1022     1.0  0.82853  0.43877  0.35038  1.0000
  C   C1023     1.0  0.83476  0.44988  0.38519  1.0000
  C   C1024     1.0  0.80853  0.43859  0.40874  1.0000
  C   C1025     1.0  0.77545  0.41688  0.39795  1.0000
  C   C1026     1.0  0.76922  0.40629  0.36301  1.0000
  C   C1027     1.0  0.79548  0.41713  0.33954  1.0000
  H   H1732     1.0  0.85992  0.46627  0.39416  1.0000
  H   H1733     1.0  0.81404  0.44635  0.43566  1.0000
  H   H1734     1.0  0.84204  0.01439  0.22179  1.0000
  H   H1735     1.0  0.78999  0.40801  0.31285  1.0000
  H   H1736     1.0  0.90260  0.27951  0.43251  1.0000
  C   C1028     1.0  0.94556  0.44383  0.11011  1.0000
  H   H1737     1.0  0.90070  0.05893  0.29515  1.0000
  C   C1029     1.0  0.96926  0.25329  0.02650  1.0000
  H   H1738     1.0  0.77948  0.26950  0.26877  1.0000
  H   H1739     1.0  0.88205  0.28058  0.16211  1.0000
  C   C1030     1.0  0.83293  0.99422  0.46613  1.0000
  H   H1740     1.0  0.82557  0.03776  0.42719  1.0000
  C   C1031     1.0  0.96613  0.37241  0.35722  1.0000
  C   C1032     1.0  0.91306  0.25453  0.38995  1.0000
  H   H1741     1.0  0.92484  0.30631  0.39848  1.0000
  H   H1742     1.0  0.87912  0.09159  0.24304  1.0000
  C   C1033     1.0  0.79557  0.36672  0.00173  1.0000
  H   H1743     1.0  0.90934  0.23139  0.40341  1.0000
  H   H1744     1.0  0.88908  0.24771  0.37741  1.0000
  H   H1745     1.0  0.93082  0.26047  0.36876  1.0000
  H   H1746     1.0  0.91643  0.45935  0.08068  1.0000
  S   S310      1.0  0.98038  0.46581  0.99399  1.0000
  H   H1747     1.0  0.92287  0.04696  0.11373  1.0000
  H   H1748     1.0  0.77164  0.20236  0.99168  1.0000
  H   H1749     1.0  0.76557  0.21022  0.42292  1.0000
  Fe  Fe156     1.0  0.93608  0.43074  0.02501  1.0000
  H   H1750     1.0  0.97634  0.47448  0.19157  1.0000
  C   C1034     1.0  0.96017  0.32703  0.45952  1.0000
  H   H1751     1.0  0.92301  0.09198  0.09779  1.0000
  H   H1752     1.0  0.92899  0.26961  0.08096  1.0000
  C   C1035     1.0  0.83419  0.00782  0.38897  1.0000
  H   H1753     1.0  0.98326  0.10043  0.31168  1.0000
  H   H1754     1.0  0.98283  0.23580  0.31396  1.0000
  C   C1036     1.0  0.78493  0.25180  0.18511  1.0000
  C   C1037     1.0  0.96592  0.36034  0.44266  1.0000
  H   H1755     1.0  0.95320  0.40419  0.20486  1.0000
  H   H1756     1.0  0.96727  0.37877  0.46316  1.0000
  S   S311      1.0  0.97006  0.07252  0.38364  1.0000
  H   H1757     1.0  0.93084  0.11660  0.06077  1.0000
  H   H1758     1.0  0.88042  0.07238  0.20272  1.0000
  H   H1759     1.0  0.91358  0.31179  0.99597  1.0000
  H   H1760     1.0  0.95627  0.11404  0.98300  1.0000
  C   C1038     1.0  0.96233  0.35817  0.23909  1.0000
  H   H1761     1.0  0.92954  0.29859  0.19265  1.0000
  H   H1762     1.0  0.78673  0.29910  0.41210  1.0000
  H   H1763     1.0  0.74246  0.00944  0.44034  1.0000
  C   C1039     1.0  0.76900  0.23199  0.33870  1.0000
  H   H1764     1.0  0.81354  0.23908  0.14994  1.0000
  C   C1040     1.0  0.79626  0.99911  0.27270  1.0000
  H   H1765     1.0  0.75411  0.28735  0.20296  1.0000
  C   C1041     1.0  0.94323  0.10987  0.08127  1.0000
  H   H1766     1.0  0.86511  0.05907  0.40818  1.0000
  H   H1767     1.0  0.81049  0.23894  0.97954  1.0000
  H   H1768     1.0  0.78868  0.05760  0.28282  1.0000
  H   H1769     1.0  0.92047  0.38502  0.25512  1.0000
  C   C1042     1.0  0.77832  0.28681  0.24955  1.0000
  C   C1043     1.0  0.84221  0.03630  0.23609  1.0000
  C   C1044     1.0  0.78657  0.34502  0.42866  1.0000
  H   H1770     1.0  0.73900  0.47166  0.28108  1.0000
  H   H1771     1.0  0.93784  0.14245  0.22087  1.0000
  H   H1772     1.0  0.86415  0.29125  0.38460  1.0000
  H   H1773     1.0  0.85182  0.30539  0.42210  1.0000
  C   C1045     1.0  0.87122  0.38722  0.42499  1.0000
  H   H1774     1.0  0.74417  0.38922  0.35405  1.0000
  C   C1046     1.0  0.92343  0.28568  0.41497  1.0000
  C   C1047     1.0  0.75186  0.25858  0.99469  1.0000
  H   H1775     1.0  0.90888  0.26495  0.03941  1.0000
  H   H1776     1.0  0.93359  0.26958  0.99107  1.0000
  H   H1777     1.0  0.94679  0.20186  0.23453  1.0000
  H   H1778     1.0  0.88571  0.33595  0.39552  1.0000
  H   H1779     1.0  0.83632  0.99257  0.30887  1.0000
  H   H1780     1.0  0.73917  0.02225  0.31199  1.0000
  C   C1048     1.0  0.85155  0.01268  0.29003  1.0000
  H   H1781     1.0  0.89445  0.38676  0.22246  1.0000
  H   H1782     1.0  0.98316  0.24210  0.03882  1.0000
  C   C1049     1.0  0.74978  0.99759  0.35328  1.0000
  H   H1783     1.0  0.95245  0.24889  0.43880  1.0000
  C   C1050     1.0  0.87655  0.06774  0.23088  1.0000
  H   H1784     1.0  0.82248  0.46219  0.23233  1.0000
  C   C1051     1.0  0.75149  0.26746  0.22138  1.0000
  H   H1785     1.0  0.85554  0.38969  0.44490  1.0000
  H   H1786     1.0  0.92336  0.08758  0.45867  1.0000
  C   C1052     1.0  0.91335  0.02230  0.46617  1.0000
  H   H1787     1.0  0.94461  0.35262  0.26012  1.0000
  H   H1788     1.0  0.98699  0.03478  0.07414  1.0000
  H   H1789     1.0  0.80179  0.37343  0.42780  1.0000
  H   H1790     1.0  0.74751  0.24908  0.12867  1.0000
  H   H1791     1.0  0.89572  0.10206  0.44436  1.0000
  Fe  Fe157     1.0  0.97766  0.01283  0.24522  1.0000
  H   H1792     1.0  0.98149  0.38579  0.24333  1.0000
  H   H1793     1.0  0.89374  0.41296  0.42328  1.0000
  H   H1794     1.0  0.81821  0.37483  0.01619  1.0000
  H   H1795     1.0  0.90257  0.03829  0.41809  1.0000
  H   H1796     1.0  0.78774  0.20437  0.17693  1.0000
  H   H1797     1.0  0.80538  0.26170  0.20465  1.0000
  H   H1798     1.0  0.86821  0.30318  0.18870  1.0000
  C   C1053     1.0  0.74868  0.21095  0.22778  1.0000
  H   H1799     1.0  0.89500  0.02390  0.32076  1.0000
  H   H1800     1.0  0.90698  0.15065  0.20420  1.0000
  H   H1801     1.0  0.74613  0.18780  0.21369  1.0000
  C   C1054     1.0  0.88807  0.01981  0.43857  1.0000
  H   H1802     1.0  0.74235  0.25520  0.31651  1.0000
  H   H1803     1.0  0.87692  0.04876  0.33399  1.0000
  H   H1804     1.0  0.93839  0.04336  0.45978  1.0000
  H   H1805     1.0  0.78786  0.99182  0.29972  1.0000
  H   H1806     1.0  0.74188  0.27636  0.99775  1.0000
  C   C1055     1.0  0.86098  0.31254  0.39550  1.0000
  H   H1807     1.0  0.90461  0.28963  0.07268  1.0000
  H   H1808     1.0  0.81320  0.99950  0.47488  1.0000
  S   S312      1.0  0.81072  0.21351  0.36944  1.0000
  H   H1809     1.0  0.90716  0.30540  0.22579  1.0000
  H   H1810     1.0  0.86084  0.07840  0.29679  1.0000
  H   H1811     1.0  0.79022  0.27445  0.16932  1.0000
  H   H1812     1.0  0.89578  0.32440  0.15339  1.0000
  H   H1813     1.0  0.82647  0.04957  0.32094  1.0000
  C   C1056     1.0  0.83485  0.05735  0.29406  1.0000
  Fe  Fe158     1.0  0.91710  0.48117  0.30935  1.0000
  H   H1814     1.0  0.78645  0.25060  0.02760  1.0000
  H   H1815     1.0  0.96915  0.32598  0.07412  1.0000
  C   C1057     1.0  0.92247  0.28296  0.06124  1.0000
  C   C1058     1.0  0.93323  0.15777  0.20185  1.0000
  H   H1816     1.0  0.82146  0.08211  0.25297  1.0000
  H   H1817     1.0  0.87748  0.99395  0.42563  1.0000
  N   N69       1.0  0.95532  0.29815  0.43502  1.0000
  H   H1818     1.0  0.87928  0.36935  0.43395  1.0000
  H   H1819     1.0  0.88878  0.34571  0.23449  1.0000
  H   H1820     1.0  0.76379  0.33642  0.41277  1.0000
  H   H1821     1.0  0.96621  0.24539  0.99862  1.0000
  H   H1822     1.0  0.96598  0.19649  0.13965  1.0000
  H   H1823     1.0  0.76432  0.33921  0.04415  1.0000
  N   N70       1.0  0.82525  0.34083  0.38396  1.0000
  C   C1059     1.0  0.80241  0.34078  0.35619  1.0000
  C   C1060     1.0  0.80542  0.32683  0.41622  1.0000
  C   C1061     1.0  0.83685  0.31658  0.37168  1.0000
  C   C1062     1.0  0.85377  0.37708  0.38913  1.0000
  C   C1063     1.0  0.81723  0.35166  0.31992  1.0000
  C   C1064     1.0  0.78886  0.22568  0.16184  1.0000
  H   H1824     1.0  0.77994  0.31495  0.35324  1.0000
  H   H1825     1.0  0.79338  0.35864  0.36352  1.0000
  H   H1826     1.0  0.82097  0.32743  0.43824  1.0000
  C   C1065     1.0  0.76497  0.34647  0.01750  1.0000
  H   H1827     1.0  0.81548  0.29051  0.36671  1.0000
  H   H1828     1.0  0.84943  0.32435  0.34659  1.0000
  H   H1829     1.0  0.87285  0.38254  0.36956  1.0000
  H   H1830     1.0  0.84595  0.39626  0.38431  1.0000
  H   H1831     1.0  0.80029  0.35632  0.30370  1.0000
  H   H1832     1.0  0.84126  0.37590  0.32082  1.0000
  H   H1833     1.0  0.81993  0.33110  0.30659  1.0000
  C   C1066     1.0  0.80826  0.46590  0.25313  1.0000
  N   N71       1.0  0.94547  0.35234  0.20411  1.0000
  C   C1067     1.0  0.95181  0.29727  0.98842  1.0000
  C   C1068     1.0  0.93250  0.37706  0.20234  1.0000
  C   C1069     1.0  0.92999  0.46294  0.10438  1.0000
  C   C1070     1.0  0.91879  0.31496  0.20029  1.0000
  H   H1834     1.0  0.82258  0.09804  0.29589  1.0000
  C   C1071     1.0  0.90749  0.37292  0.23025  1.0000
  H   H1835     1.0  0.80294  0.30265  0.23813  1.0000
  C   C1072     1.0  0.89003  0.30622  0.17458  1.0000
  C   C1073     1.0  0.96236  0.09409  0.06392  1.0000
  H   H1836     1.0  0.85342  0.00264  0.37903  1.0000
  H   H1837     1.0  0.92082  0.37575  0.17696  1.0000
  C   C1074     1.0  0.75973  0.21879  0.39934  1.0000
  C   C1075     1.0  0.93701  0.03926  0.09653  1.0000
  H   H1838     1.0  0.94798  0.21034  0.18986  1.0000
  H   H1839     1.0  0.97127  0.04467  0.03708  1.0000
  H   H1840     1.0  0.93619  0.15013  0.17525  1.0000
  N   N72       1.0  0.96856  0.06976  0.08475  1.0000
  H   H1841     1.0  0.94269  0.02270  0.11277  1.0000
  S   S313      1.0  0.90707  0.45652  0.01075  1.0000
  H   H1842     1.0  0.94999  0.08208  0.03866  1.0000
  H   H1843     1.0  0.93814  0.31863  0.47591  1.0000
  C   C1076     1.0  0.81559  0.07426  0.28014  1.0000
  H   H1844     1.0  0.79216  0.29366  0.03035  1.0000
  S   S314      1.0  0.98384  0.43351  0.39377  1.0000
  H   H1845     1.0  0.94538  0.35611  0.42520  1.0000
  H   H1846     1.0  0.97447  0.43331  0.14614  1.0000
  S   S315      1.0  0.96377  0.99377  0.34232  1.0000
  C   C1077     1.0  0.88277  0.03788  0.31093  1.0000
  N   N73       1.0  0.86077  0.02594  0.45056  1.0000
  C   C1078     1.0  0.95490  0.19689  0.20921  1.0000
  H   H1847     1.0  0.89631  0.06322  0.24041  1.0000
  C   C1079     1.0  0.96196  0.44764  0.14177  1.0000
  H   H1848     1.0  0.75692  0.15757  0.34008  1.0000
  C   C1080     1.0  0.95452  0.26981  0.45597  1.0000
  H   H1849     1.0  0.81548  0.46039  0.27843  1.0000
  C   C1081     1.0  0.96908  0.99746  0.16179  1.0000
  H   H1850     1.0  0.95967  0.06656  0.16105  1.0000
  N   N74       1.0  0.83195  0.02711  0.27306  1.0000
  Fe  Fe159     1.0  0.98134  0.47534  0.29850  1.0000
  C   C1082     1.0  0.95338  0.31613  0.05037  1.0000
  H   H1851     1.0  0.82700  0.01837  0.36716  1.0000
  C   C1083     1.0  0.97147  0.36154  0.17715  1.0000
  C   C1084     1.0  0.91299  0.01572  0.06765  1.0000
  C   C1085     1.0  0.77381  0.26579  0.02728  1.0000
  H   H1852     1.0  0.97829  0.25790  0.24945  1.0000
  H   H1853     1.0  0.98175  0.36723  0.12235  1.0000
  H   H1854     1.0  0.78188  0.44635  0.24869  1.0000
  H   H1855     1.0  0.97811  0.27886  0.47037  1.0000
  S   S316      1.0  0.94490  0.41558  0.07760  1.0000
  C   C1086     1.0  0.90184  0.09011  0.46579  1.0000
  H   H1856     1.0  0.77114  0.22022  0.24443  1.0000
  H   H1857     1.0  0.77047  0.21478  0.14034  1.0000
  H   H1858     1.0  0.90669  0.03004  0.04896  1.0000
  H   H1859     1.0  0.98371  0.33742  0.27468  1.0000
  H   H1860     1.0  0.92290  0.00103  0.05382  1.0000
  C   C1087     1.0  0.97856  0.33621  0.24641  1.0000
  C   C1088     1.0  0.98291  0.30950  0.40957  1.0000
  H   H1861     1.0  0.91477  0.99828  0.46514  1.0000
  H   H1862     1.0  0.76808  0.47470  0.45759  1.0000
  H   H1863     1.0  0.78010  0.00795  0.26119  1.0000
  H   H1864     1.0  0.96241  0.30861  0.23945  1.0000
  N   N75       1.0  0.97265  0.31294  0.02088  1.0000
  N   N76       1.0  0.75233  0.23802  0.20275  1.0000
  S   S317      1.0  0.91180  0.38885  0.98410  1.0000
  H   H1865     1.0  0.94640  0.33613  0.04560  1.0000
  C   C1089     1.0  0.95983  0.35673  0.13908  1.0000
  H   H1866     1.0  0.94692  0.37096  0.13284  1.0000
  H   H1867     1.0  0.96037  0.10458  0.14505  1.0000
  H   H1868     1.0  0.96013  0.13371  0.09638  1.0000
  C   C1090     1.0  0.96315  0.47100  0.16736  1.0000
  C   C1091     1.0  0.87206  0.05568  0.47635  1.0000
  C   C1092     1.0  0.97508  0.09190  0.14901  1.0000
  H   H1869     1.0  0.97965  0.15888  0.42957  1.0000
  H   H1870     1.0  0.98087  0.28688  0.39474  1.0000
  C   C1093     1.0  0.98555  0.05608  0.06156  1.0000
  H   H1871     1.0  0.98081  0.32580  0.38978  1.0000
  H   H1872     1.0  0.98347  0.34567  0.17959  1.0000
  C   C1094     1.0  0.73783  0.47051  0.30899  1.0000
  C   C1095     1.0  0.98639  0.23286  0.34098  1.0000
  H   H1873     1.0  0.98605  0.11653  0.05616  1.0000
  H   H1874     1.0  0.98098  0.33410  0.47802  1.0000
  H   H1875     1.0  0.81838  0.29010  0.98001  1.0000
  H   H1876     1.0  0.88341  0.30753  0.90208  1.0000
  C   C1096     1.0  0.92708  0.25358  0.48288  1.0000
  H   H1877     1.0  0.77499  0.23181  0.92074  1.0000
  C   C1097     1.0  0.76570  0.13322  0.60254  1.0000
  S   S318      1.0  0.83444  0.39544  0.94426  1.0000
  H   H1878     1.0  0.82337  0.28074  0.91566  1.0000
  Fe  Fe160     1.0  0.83563  0.09992  0.69457  1.0000
  S   S319      1.0  0.86554  0.14915  0.66687  1.0000
  S   S320      1.0  0.78080  0.07074  0.68010  1.0000
  Fe  Fe161     1.0  0.89846  0.10375  0.72479  1.0000
  S   S321      1.0  0.93282  0.15436  0.70002  1.0000
  S   S322      1.0  0.91053  0.06778  0.75448  1.0000
  Fe  Fe162     1.0  0.89579  0.17028  0.71561  1.0000
  S   S323      1.0  0.89985  0.22242  0.72688  1.0000
  Fe  Fe163     1.0  0.89965  0.12971  0.65348  1.0000
  S   S324      1.0  0.91719  0.13451  0.59888  1.0000
  S   S325      1.0  0.86375  0.12154  0.74474  1.0000
  S   S326      1.0  0.86769  0.07859  0.67681  1.0000
  S   S327      1.0  0.79555  0.11887  0.51224  1.0000
  Fe  Fe164     1.0  0.84194  0.17692  0.95055  1.0000
  S   S328      1.0  0.87342  0.15596  0.92994  1.0000
  Fe  Fe165     1.0  0.83490  0.20194  0.87925  1.0000
  S   S329      1.0  0.86640  0.18301  0.85337  1.0000
  S   S330      1.0  0.82042  0.23688  0.85040  1.0000
  Fe  Fe166     1.0  0.83756  0.13486  0.88441  1.0000
  S   S331      1.0  0.82737  0.08250  0.86155  1.0000
  Fe  Fe167     1.0  0.90020  0.20481  0.89987  1.0000
  S   S332      1.0  0.95678  0.23704  0.90201  1.0000
  S   S333      1.0  0.80387  0.15243  0.90695  1.0000
  S   S334      1.0  0.87093  0.22723  0.92381  1.0000
  C   C1098     1.0  0.79188  0.04201  0.85020  1.0000
  H   H1879     1.0  0.92190  0.09636  0.92142  1.0000
  H   H1880     1.0  0.74871  0.07987  0.59641  1.0000
  H   H1881     1.0  0.98717  0.06760  0.85503  1.0000
  C   C1099     1.0  0.91465  0.13178  0.82618  1.0000
  H   H1882     1.0  0.92724  0.23093  0.49384  1.0000
  H   H1883     1.0  0.94706  0.38675  0.77047  1.0000
  H   H1884     1.0  0.92643  0.33022  0.89493  1.0000
  H   H1885     1.0  0.95599  0.22014  0.82735  1.0000
  C   C1100     1.0  0.78465  0.24090  0.84561  1.0000
  H   H1886     1.0  0.90712  0.37257  0.82071  1.0000
  H   H1887     1.0  0.95568  0.07731  0.60876  1.0000
  H   H1888     1.0  0.77344  0.43706  0.90086  1.0000
  H   H1889     1.0  0.75308  0.16355  0.70122  1.0000
  C   C1101     1.0  0.88344  0.12798  0.57318  1.0000
  C   C1102     1.0  0.85158  0.10928  0.58610  1.0000
  C   C1103     1.0  0.82467  0.10632  0.56723  1.0000
  C   C1104     1.0  0.82941  0.12193  0.53522  1.0000
  C   C1105     1.0  0.86119  0.13984  0.52175  1.0000
  C   C1106     1.0  0.88819  0.14278  0.54067  1.0000
  H   H1890     1.0  0.84755  0.09710  0.61081  1.0000
  H   H1891     1.0  0.80026  0.09188  0.57751  1.0000
  Fe  Fe168     1.0  0.95467  0.42493  0.95215  1.0000
  H   H1892     1.0  0.91275  0.15742  0.53057  1.0000
  C   C1107     1.0  0.94464  0.06141  0.74837  1.0000
  C   C1108     1.0  0.94070  0.02862  0.75373  1.0000
  C   C1109     1.0  0.90025  0.06389  0.85606  1.0000
  H   H1893     1.0  0.83835  0.44947  0.90079  1.0000
  H   H1894     1.0  0.90941  0.10872  0.48807  1.0000
  H   H1895     1.0  0.75429  0.45595  0.53468  1.0000
  H   H1896     1.0  0.83600  0.18055  0.77655  1.0000
  H   H1897     1.0  0.80206  0.47617  0.96976  1.0000
  H   H1898     1.0  0.91666  0.00748  0.75995  1.0000
  C   C1110     1.0  0.93629  0.26317  0.72666  1.0000
  C   C1111     1.0  0.93727  0.28970  0.70694  1.0000
  N   N77       1.0  0.76780  0.26294  0.95981  1.0000
  H   H1899     1.0  0.92547  0.15203  0.80648  1.0000
  C   C1112     1.0  0.95523  0.39519  0.79770  1.0000
  H   H1900     1.0  0.75905  0.15202  0.61314  1.0000
  H   H1901     1.0  0.91723  0.28391  0.68904  1.0000
  H   H1902     1.0  0.81917  0.26097  0.72694  1.0000
  C   C1113     1.0  0.76041  0.27548  0.82654  1.0000
  H   H1903     1.0  0.96273  0.46428  0.62992  1.0000
  H   H1904     1.0  0.74657  0.18999  0.78744  1.0000
  H   H1905     1.0  0.80923  0.31105  0.90711  1.0000
  H   H1906     1.0  0.81186  0.29094  0.82307  1.0000
  H   H1907     1.0  0.77526  0.47774  0.91018  1.0000
  H   H1908     1.0  0.76184  0.12953  0.78182  1.0000
  H   H1909     1.0  0.87914  0.06823  0.85239  1.0000
  C   C1114     1.0  0.76702  0.36428  0.94853  1.0000
  C   C1115     1.0  0.88876  0.03465  0.88222  1.0000
  H   H1910     1.0  0.95709  0.04557  0.67853  1.0000
  C   C1116     1.0  0.97602  0.08867  0.74114  1.0000
  H   H1911     1.0  0.76762  0.37048  0.92152  1.0000
  S   S335      1.0  0.92739  0.45050  0.93119  1.0000
  H   H1912     1.0  0.75594  0.05749  0.85978  1.0000
  H   H1913     1.0  0.75536  0.12932  0.72043  1.0000
  H   H1914     1.0  0.76343  0.29894  0.81575  1.0000
  C   C1117     1.0  0.81341  0.15486  0.77617  1.0000
  C   C1118     1.0  0.74282  0.17470  0.76301  1.0000
  H   H1915     1.0  0.90706  0.14242  0.84810  1.0000
  H   H1916     1.0  0.82359  0.17809  0.71111  1.0000
  C   C1119     1.0  0.80012  0.16718  0.69636  1.0000
  H   H1917     1.0  0.98231  0.44800  0.52943  1.0000
  H   H1918     1.0  0.89333  0.26474  0.79229  1.0000
  H   H1919     1.0  0.92316  0.02543  0.64953  1.0000
  H   H1920     1.0  0.80310  0.02420  0.75901  1.0000
  H   H1921     1.0  0.97516  0.23020  0.63354  1.0000
  C   C1120     1.0  0.96665  0.07120  0.84586  1.0000
  H   H1922     1.0  0.92669  0.03090  0.57699  1.0000
  H   H1923     1.0  0.80276  0.18490  0.67539  1.0000
  C   C1121     1.0  0.74776  0.45869  0.50781  1.0000
  H   H1924     1.0  0.76930  0.07867  0.75427  1.0000
  C   C1122     1.0  0.92401  0.11197  0.89851  1.0000
  C   C1123     1.0  0.78182  0.15680  0.78051  1.0000
  C   C1124     1.0  0.96330  0.32399  0.71135  1.0000
  C   C1125     1.0  0.84212  0.47564  0.89607  1.0000
  C   C1126     1.0  0.78788  0.27086  0.83086  1.0000
  H   H1925     1.0  0.94946  0.46616  0.58614  1.0000
  C   C1127     1.0  0.97913  0.11609  0.97457  1.0000
  C   C1128     1.0  0.79578  0.23609  0.72883  1.0000
  C   C1129     1.0  0.93000  0.37109  0.82415  1.0000
  C   C1130     1.0  0.74517  0.05995  0.70448  1.0000
  H   H1926     1.0  0.97459  0.17845  0.48697  1.0000
  H   H1927     1.0  0.90251  0.48814  0.71545  1.0000
  H   H1928     1.0  0.94487  0.11031  0.81308  1.0000
  N   N78       1.0  0.93092  0.09711  0.86635  1.0000
  C   C1131     1.0  0.95053  0.04133  0.65042  1.0000
  C   C1132     1.0  0.82086  0.30237  0.92652  1.0000
  H   H1929     1.0  0.88228  0.04186  0.90740  1.0000
  H   H1930     1.0  0.82086  0.01825  0.83760  1.0000
  H   H1931     1.0  0.83401  0.48951  0.56870  1.0000
  H   H1932     1.0  0.80620  0.45882  0.53735  1.0000
  H   H1933     1.0  0.74122  0.20840  0.94696  1.0000
  H   H1934     1.0  0.77927  0.46636  0.75882  1.0000
  H   H1935     1.0  0.96746  0.29778  0.96652  1.0000
  H   H1936     1.0  0.89249  0.10967  0.81393  1.0000
  C   C1133     1.0  0.95909  0.09097  0.87424  1.0000
  H   H1937     1.0  0.97978  0.39780  0.80189  1.0000
  H   H1938     1.0  0.77364  0.13878  0.57533  1.0000
  H   H1939     1.0  0.97954  0.11416  0.73756  1.0000
  H   H1940     1.0  0.77724  0.24225  0.73924  1.0000
  H   H1941     1.0  0.97614  0.33577  0.90630  1.0000
  H   H1942     1.0  0.81199  0.13972  0.75257  1.0000
  C   C1134     1.0  0.95964  0.07718  0.63695  1.0000
  H   H1943     1.0  0.97116  0.34412  0.80907  1.0000
  N   N79       1.0  0.77428  0.17539  0.75301  1.0000
  H   H1944     1.0  0.75321  0.44182  0.93762  1.0000
  H   H1945     1.0  0.93120  0.27179  0.50477  1.0000
  H   H1946     1.0  0.76890  0.47525  0.64463  1.0000
  C   C1135     1.0  0.74829  0.27061  0.93375  1.0000
  H   H1947     1.0  0.82272  0.47173  0.87685  1.0000
  H   H1948     1.0  0.80449  0.22416  0.77987  1.0000
  C   C1136     1.0  0.74603  0.06651  0.74020  1.0000
  H   H1949     1.0  0.85156  0.06082  0.48193  1.0000
  H   H1950     1.0  0.95462  0.07649  0.89853  1.0000
  C   C1137     1.0  0.79675  0.37485  0.96683  1.0000
  H   H1951     1.0  0.86611  0.01174  0.87175  1.0000
  H   H1952     1.0  0.87831  0.04977  0.50198  1.0000
  C   C1138     1.0  0.78642  0.21801  0.96978  1.0000
  H   H1953     1.0  0.81578  0.14068  0.79824  1.0000
  C   C1139     1.0  0.93169  0.31396  0.97642  1.0000
  H   H1954     1.0  0.96424  0.99763  0.75592  1.0000
  H   H1955     1.0  0.80434  0.02553  0.71307  1.0000
  N   N80       1.0  0.92221  0.33407  0.82223  1.0000
  H   H1956     1.0  0.94957  0.16799  0.89007  1.0000
  C   C1140     1.0  0.89537  0.31412  0.84763  1.0000
  C   C1141     1.0  0.91011  0.32035  0.78570  1.0000
  C   C1142     1.0  0.95351  0.33366  0.83067  1.0000
  H   H1957     1.0  0.95862  0.25793  0.63523  1.0000
  C   C1143     1.0  0.90279  0.32703  0.88563  1.0000
  C   C1144     1.0  0.88513  0.28155  0.78073  1.0000
  C   C1145     1.0  0.95013  0.29858  0.83886  1.0000
  H   H1958     1.0  0.79273  0.20175  0.95307  1.0000
  H   H1959     1.0  0.91751  0.30008  0.95260  1.0000
  H   H1960     1.0  0.88890  0.28669  0.84764  1.0000
  H   H1961     1.0  0.87237  0.31394  0.83984  1.0000
  C   C1146     1.0  0.80121  0.21263  0.75339  1.0000
  H   H1962     1.0  0.93109  0.32647  0.76850  1.0000
  C   C1147     1.0  0.94997  0.14956  0.90844  1.0000
  H   H1963     1.0  0.96661  0.35130  0.85313  1.0000
  C   C1148     1.0  0.96193  0.27112  0.75023  1.0000
  H   H1964     1.0  0.78834  0.22474  0.70231  1.0000
  C   C1149     1.0  0.77561  0.45553  0.92174  1.0000
  H   H1965     1.0  0.94029  0.38310  0.85010  1.0000
  H   H1966     1.0  0.96331  0.34431  0.69672  1.0000
  H   H1967     1.0  0.85318  0.99688  0.51893  1.0000
  H   H1968     1.0  0.79690  0.14349  0.68300  1.0000
  H   H1969     1.0  0.97523  0.15361  0.91012  1.0000
  C   C1150     1.0  0.94035  0.12158  0.83682  1.0000
  H   H1970     1.0  0.93563  0.28725  0.86242  1.0000
  C   C1151     1.0  0.79623  0.01438  0.83917  1.0000
  H   H1971     1.0  0.93977  0.28004  0.81678  1.0000
  H   H1972     1.0  0.86086  0.27518  0.79129  1.0000
  H   H1973     1.0  0.88115  0.27499  0.75258  1.0000
  H   H1974     1.0  0.98544  0.09671  0.64377  1.0000
  H   H1975     1.0  0.89742  0.33327  0.77409  1.0000
  H   H1976     1.0  0.94560  0.04499  0.84040  1.0000
  H   H1977     1.0  0.89971  0.11066  0.89629  1.0000
  H   H1978     1.0  0.90297  0.05393  0.83038  1.0000
  H   H1979     1.0  0.97507  0.30239  0.84421  1.0000
  H   H1980     1.0  0.92018  0.44297  0.61860  1.0000
  H   H1981     1.0  0.86522  0.15224  0.49716  1.0000
  H   H1982     1.0  0.79815  0.47401  0.71808  1.0000
  C   C1152     1.0  0.76907  0.15775  0.71788  1.0000
  H   H1983     1.0  0.90249  0.35146  0.88968  1.0000
  H   H1984     1.0  0.80206  0.31667  0.97041  1.0000
  H   H1985     1.0  0.78772  0.13717  0.61748  1.0000
  H   H1986     1.0  0.75029  0.19165  0.86609  1.0000
  H   H1987     1.0  0.76679  0.44672  0.81960  1.0000
  C   C1153     1.0  0.79426  0.00777  0.73498  1.0000
  H   H1988     1.0  0.95239  0.48275  0.72338  1.0000
  H   H1989     1.0  0.95830  0.23520  0.67343  1.0000
  C   C1154     1.0  0.75981  0.03657  0.85161  1.0000
  C   C1155     1.0  0.96764  0.02295  0.75149  1.0000
  N   N81       1.0  0.75181  0.47412  0.71816  1.0000
  C   C1156     1.0  0.94415  0.46651  0.61403  1.0000
  H   H1990     1.0  0.84607  0.32448  0.93138  1.0000
  H   H1991     1.0  0.94737  0.34122  0.96951  1.0000
  H   H1992     1.0  0.82559  0.21567  0.74753  1.0000
  H   H1993     1.0  0.98229  0.11574  0.87929  1.0000
  C   C1157     1.0  0.77786  0.47498  0.48399  1.0000
  S   S336      1.0  0.94419  0.04528  0.97118  1.0000
  H   H1994     1.0  0.90816  0.02634  0.49314  1.0000
  H   H1995     1.0  0.95849  0.42140  0.80119  1.0000
  N   N82       1.0  0.96585  0.02242  0.63277  1.0000
  H   H1996     1.0  0.75271  0.29717  0.93808  1.0000
  H   H1997     1.0  0.96092  0.25116  0.76626  1.0000
  C   C1158     1.0  0.76277  0.46673  0.83043  1.0000
  C   C1159     1.0  0.76694  0.23030  0.94791  1.0000
  H   H1998     1.0  0.75152  0.43470  0.68447  1.0000
  H   H1999     1.0  0.96407  0.14565  0.84255  1.0000
  Fe  Fe169     1.0  0.88644  0.41752  0.96700  1.0000
  Fe  Fe170     1.0  0.94951  0.48862  0.97614  1.0000
  C   C1160     1.0  0.98132  0.23496  0.83633  1.0000
  C   C1161     1.0  0.80238  0.29329  0.96105  1.0000
  H   H2000     1.0  0.90718  0.02645  0.88659  1.0000
  C   C1162     1.0  0.75335  0.21509  0.85520  1.0000
  H   H2001     1.0  0.97433  0.08532  0.82136  1.0000
  H   H2002     1.0  0.75720  0.99845  0.66455  1.0000
  C   C1163     1.0  0.78389  0.48183  0.73525  1.0000
  H   H2003     1.0  0.94422  0.15636  0.93429  1.0000
  H   H2004     1.0  0.80664  0.44270  0.95168  1.0000
  C   C1164     1.0  0.94446  0.99986  0.60293  1.0000
  H   H2005     1.0  0.96527  0.03632  0.55986  1.0000
  C   C1165     1.0  0.97288  0.24900  0.65061  1.0000
  H   H2006     1.0  0.78330  0.16874  0.80661  1.0000
  H   H2007     1.0  0.94386  0.08599  0.64981  1.0000
  C   C1166     1.0  0.94122  0.01817  0.57113  1.0000
  H   H2008     1.0  0.80483  0.99064  0.73537  1.0000
  S   S337      1.0  0.97588  0.39941  0.91710  1.0000
  C   C1167     1.0  0.96850  0.99890  0.65844  1.0000
  C   C1168     1.0  0.98055  0.08594  0.96736  1.0000
  H   H2009     1.0  0.98390  0.09076  0.49833  1.0000
  C   C1169     1.0  0.80644  0.46661  0.94486  1.0000
  H   H2010     1.0  0.75673  0.02659  0.48299  1.0000
  H   H2011     1.0  0.74747  0.41053  0.74173  1.0000
  H   H2012     1.0  0.86636  0.47279  0.95688  1.0000
  C   C1170     1.0  0.98454  0.16354  0.49988  1.0000
  H   H2013     1.0  0.96997  0.13658  0.49042  1.0000
  H   H2014     1.0  0.87269  0.48362  0.85114  1.0000
  H   H2015     1.0  0.97972  0.16413  0.52797  1.0000
  H   H2016     1.0  0.74956  0.00861  0.73298  1.0000
  Fe  Fe171     1.0  0.93789  0.99116  0.97386  1.0000
  H   H2017     1.0  0.98335  0.01370  0.68163  1.0000
  H   H2018     1.0  0.75647  0.26991  0.90694  1.0000
  H   H2019     1.0  0.92723  0.99842  0.55046  1.0000
  H   H2020     1.0  0.78745  0.45679  0.48224  1.0000
  C   C1171     1.0  0.82655  0.48577  0.54087  1.0000
  C   C1172     1.0  0.98743  0.30541  0.75532  1.0000
  C   C1173     1.0  0.73815  0.09563  0.60630  1.0000
  H   H2021     1.0  0.84811  0.48944  0.52589  1.0000
  C   C1174     1.0  0.96642  0.85872  0.23790  1.0000
  S   S338      1.0  0.94813  0.95931  0.26460  1.0000
  S   S339      1.0  0.96202  0.49540  0.34184  1.0000
  H   H2022     1.0  0.96648  0.78149  0.30480  1.0000
  S   S340      1.0  0.86861  0.94871  0.30486  1.0000
  S   S341      1.0  0.94158  0.53373  0.28524  1.0000
  H   H2023     1.0  0.76256  0.94531  0.25847  1.0000
  Fe  Fe172     1.0  0.82186  0.65632  0.44202  1.0000
  S   S342      1.0  0.85307  0.69810  0.40607  1.0000
  Fe  Fe173     1.0  0.79875  0.59728  0.38867  1.0000
  S   S343      1.0  0.82824  0.63406  0.34729  1.0000
  H   H2024     1.0  0.76607  0.84984  0.02613  1.0000
  Fe  Fe174     1.0  0.87042  0.66250  0.38644  1.0000
  S   S344      1.0  0.92545  0.67820  0.38256  1.0000
  Fe  Fe175     1.0  0.81003  0.66960  0.36900  1.0000
  S   S345      1.0  0.79883  0.70709  0.33974  1.0000
  S   S346      1.0  0.84188  0.62244  0.42604  1.0000
  S   S347      1.0  0.77764  0.63023  0.40736  1.0000
  Fe  Fe176     1.0  0.81359  0.67835  0.27128  1.0000
  S   S348      1.0  0.83314  0.72906  0.24469  1.0000
  S   S349      1.0  0.75562  0.64473  0.27074  1.0000
  Fe  Fe177     1.0  0.88275  0.68328  0.26678  1.0000
  S   S350      1.0  0.90468  0.73419  0.23895  1.0000
  S   S351      1.0  0.91612  0.65836  0.27342  1.0000
  Fe  Fe178     1.0  0.87926  0.75075  0.27790  1.0000
  S   S352      1.0  0.89809  0.80708  0.29720  1.0000
  Fe  Fe179     1.0  0.85771  0.71036  0.20738  1.0000
  S   S353      1.0  0.85743  0.72601  0.15124  1.0000
  S   S354      1.0  0.85957  0.70165  0.30701  1.0000
  S   S355      1.0  0.83694  0.65884  0.23211  1.0000
  S   S356      1.0  0.82886  0.63977  0.00864  1.0000
  H   H2025     1.0  0.89430  0.64847  0.00148  1.0000
  C   C1175     1.0  0.92895  0.63387  0.29985  1.0000
  C   C1176     1.0  0.95698  0.63209  0.29023  1.0000
  H   H2026     1.0  0.75281  0.96439  0.39098  1.0000
  C   C1177     1.0  0.95280  0.59651  0.34007  1.0000
  C   C1178     1.0  0.92377  0.59705  0.34878  1.0000
  C   C1179     1.0  0.91200  0.61538  0.32903  1.0000
  H   H2027     1.0  0.97030  0.64551  0.26761  1.0000
  H   H2028     1.0  0.91016  0.58320  0.37106  1.0000
  H   H2029     1.0  0.88998  0.61560  0.33677  1.0000
  C   C1180     1.0  0.92475  0.84134  0.32695  1.0000
  C   C1181     1.0  0.92331  0.87198  0.32752  1.0000
  C   C1182     1.0  0.94300  0.89961  0.35077  1.0000
  C   C1183     1.0  0.96411  0.89705  0.37471  1.0000
  C   C1184     1.0  0.94625  0.83880  0.35046  1.0000
  H   H2030     1.0  0.90657  0.87441  0.31009  1.0000
  H   H2031     1.0  0.94117  0.92262  0.35074  1.0000
  C   C1185     1.0  0.92013  0.65452  0.99855  1.0000
  H   H2032     1.0  0.96383  0.74948  0.44956  1.0000
  C   C1186     1.0  0.84867  0.70121  0.11205  1.0000
  C   C1187     1.0  0.84766  0.71610  0.08066  1.0000
  C   C1188     1.0  0.84112  0.69757  0.04884  1.0000
  C   C1189     1.0  0.83592  0.66400  0.04801  1.0000
  C   C1190     1.0  0.83672  0.64905  0.07942  1.0000
  C   C1191     1.0  0.84298  0.66747  0.11128  1.0000
  H   H2033     1.0  0.85189  0.74215  0.08096  1.0000
  H   H2034     1.0  0.84009  0.70923  0.02500  1.0000
  H   H2035     1.0  0.83255  0.62303  0.07911  1.0000
  H   H2036     1.0  0.84360  0.65565  0.13520  1.0000
  C   C1192     1.0  0.96475  0.71263  0.36939  1.0000
  H   H2037     1.0  0.80453  0.95552  0.25957  1.0000
  H   H2038     1.0  0.85344  0.78417  0.18096  1.0000
  C   C1193     1.0  0.92759  0.94805  0.11221  1.0000
  H   H2039     1.0  0.85093  0.53008  0.41804  1.0000
  H   H2040     1.0  0.95907  0.75399  0.38991  1.0000
  H   H2041     1.0  0.91506  0.64619  0.45193  1.0000
  H   H2042     1.0  0.94813  0.81573  0.35017  1.0000
  H   H2043     1.0  0.76602  0.83384  0.36926  1.0000
  H   H2044     1.0  0.80736  0.50374  0.42040  1.0000
  H   H2045     1.0  0.96555  0.68531  0.44580  1.0000
  H   H2046     1.0  0.77441  0.73864  0.29338  1.0000
  C   C1194     1.0  0.83742  0.93369  0.33717  1.0000
  C   C1195     1.0  0.84455  0.93682  0.37279  1.0000
  C   C1196     1.0  0.81876  0.92475  0.39704  1.0000
  C   C1197     1.0  0.78545  0.91011  0.38633  1.0000
  C   C1198     1.0  0.77840  0.90525  0.35067  1.0000
  C   C1199     1.0  0.80408  0.91694  0.32646  1.0000
  H   H2047     1.0  0.86991  0.94840  0.38156  1.0000
  H   H2048     1.0  0.82471  0.92702  0.42437  1.0000
  H   H2049     1.0  0.88865  0.51441  0.00454  1.0000
  H   H2050     1.0  0.79788  0.91270  0.29912  1.0000
  C   C1200     1.0  0.97776  0.76466  0.47283  1.0000
  C   C1201     1.0  0.86771  0.53182  0.22894  1.0000
  C   C1202     1.0  0.96528  0.75570  0.05699  1.0000
  C   C1203     1.0  0.82911  0.52609  0.43289  1.0000
  C   C1204     1.0  0.90668  0.88601  0.19926  1.0000
  H   H2051     1.0  0.91534  0.56112  0.20496  1.0000
  H   H2052     1.0  0.92618  0.97793  0.19367  1.0000
  H   H2053     1.0  0.98367  0.90599  0.13892  1.0000
  H   H2054     1.0  0.84527  0.49700  0.00454  1.0000
  H   H2055     1.0  0.97635  0.74408  0.07363  1.0000
  H   H2056     1.0  0.95117  0.83069  0.24208  1.0000
  H   H2057     1.0  0.85686  0.82481  0.17311  1.0000
  C   C1205     1.0  0.77076  0.67214  0.17145  1.0000
  C   C1206     1.0  0.87117  0.81138  0.17509  1.0000
  H   H2058     1.0  0.86679  0.50655  0.28954  1.0000
  H   H2059     1.0  0.96110  0.56008  0.12554  1.0000
  N   N83       1.0  0.74239  0.70896  0.17523  1.0000
  H   H2060     1.0  0.87275  0.53990  0.98813  1.0000
  C   C1207     1.0  0.92744  0.78906  0.41982  1.0000
  H   H2061     1.0  0.78880  0.96919  0.22408  1.0000
  H   H2062     1.0  0.92631  0.86381  0.14539  1.0000
  H   H2063     1.0  0.98338  0.86351  0.21620  1.0000
  N   N84       1.0  0.82513  0.82789  0.37747  1.0000
  C   C1208     1.0  0.82769  0.84905  0.34661  1.0000
  C   C1209     1.0  0.78985  0.80479  0.38719  1.0000
  C   C1210     1.0  0.83980  0.80562  0.36826  1.0000
  C   C1211     1.0  0.80801  0.82889  0.31378  1.0000
  C   C1212     1.0  0.76921  0.82250  0.39319  1.0000
  C   C1213     1.0  0.84154  0.78360  0.39745  1.0000
  H   H2064     1.0  0.81967  0.86781  0.35338  1.0000
  H   H2065     1.0  0.85373  0.86480  0.33860  1.0000
  H   H2066     1.0  0.77696  0.78432  0.36717  1.0000
  H   H2067     1.0  0.78834  0.79079  0.41119  1.0000
  H   H2068     1.0  0.82520  0.78675  0.34709  1.0000
  H   H2069     1.0  0.86448  0.82062  0.35675  1.0000
  H   H2070     1.0  0.78120  0.81386  0.31831  1.0000
  H   H2071     1.0  0.81163  0.84766  0.29353  1.0000
  H   H2072     1.0  0.81680  0.81188  0.30294  1.0000
  H   H2073     1.0  0.95100  0.85017  0.16697  1.0000
  H   H2074     1.0  0.91900  0.50085  0.12508  1.0000
  H   H2075     1.0  0.81742  0.75974  0.40044  1.0000
  H   H2076     1.0  0.84983  0.79763  0.42265  1.0000
  H   H2077     1.0  0.95498  0.84103  0.46945  1.0000
  H   H2078     1.0  0.77893  0.65971  0.15173  1.0000
  S   S357      1.0  0.90098  0.91822  0.08096  1.0000
  H   H2079     1.0  0.77947  0.84239  0.41429  1.0000
  C   C1214     1.0  0.96093  0.96945  0.10530  1.0000
  H   H2080     1.0  0.87368  0.51080  0.23155  1.0000
  S   S358      1.0  0.95197  0.52236  0.19080  1.0000
  H   H2081     1.0  0.89213  0.88513  0.25390  1.0000
  H   H2082     1.0  0.98190  0.75236  0.30271  1.0000
  N   N85       1.0  0.97624  0.64526  0.46056  1.0000
  C   C1215     1.0  0.88126  0.88018  0.22745  1.0000
  C   C1216     1.0  0.96243  0.56851  0.07043  1.0000
  H   H2083     1.0  0.79699  0.79707  0.19484  1.0000
  S   S359      1.0  0.88896  0.95257  0.99562  1.0000
  H   H2084     1.0  0.95208  0.59218  0.11366  1.0000
  C   C1217     1.0  0.79820  0.86424  0.98226  1.0000
  H   H2085     1.0  0.88935  0.93420  0.14960  1.0000
  H   H2086     1.0  0.76181  0.69673  0.12945  1.0000
  Fe  Fe180     1.0  0.92550  0.98148  0.30110  1.0000
  C   C1218     1.0  0.83393  0.52018  0.47119  1.0000
  H   H2087     1.0  0.96836  0.76316  0.26374  1.0000
  C   C1219     1.0  0.96863  0.61382  0.30983  1.0000
  C   C1220     1.0  0.96926  0.58234  0.10830  1.0000
  C   C1221     1.0  0.93596  0.97543  0.16914  1.0000
  H   H2088     1.0  0.88488  0.82195  0.22931  1.0000
  H   H2089     1.0  0.75134  0.74510  0.11505  1.0000
  C   C1222     1.0  0.74294  0.96555  0.36599  1.0000
  H   H2090     1.0  0.97541  0.58009  0.46409  1.0000
  H   H2091     1.0  0.93764  0.59204  0.44953  1.0000
  C   C1223     1.0  0.76723  0.84901  0.99816  1.0000
  H   H2092     1.0  0.92239  0.63389  0.01149  1.0000
  H   H2093     1.0  0.88769  0.89211  0.38352  1.0000
  N   N86       1.0  0.84672  0.53166  0.25855  1.0000
  C   C1224     1.0  0.86177  0.52819  0.29173  1.0000
  C   C1225     1.0  0.84538  0.56450  0.26091  1.0000
  C   C1226     1.0  0.84191  0.52322  0.32501  1.0000
  C   C1227     1.0  0.90089  0.56536  0.22514  1.0000
  C   C1228     1.0  0.83324  0.57404  0.22786  1.0000
  H   H2094     1.0  0.90183  0.71011  0.02461  1.0000
  H   H2095     1.0  0.88637  0.55114  0.29659  1.0000
  H   H2096     1.0  0.83872  0.54560  0.33126  1.0000
  H   H2097     1.0  0.82900  0.56352  0.28212  1.0000
  H   H2098     1.0  0.86975  0.58659  0.26867  1.0000
  C   C1229     1.0  0.98541  0.67884  0.44346  1.0000
  H   H2099     1.0  0.85589  0.52086  0.34709  1.0000
  H   H2100     1.0  0.79315  0.69374  0.18363  1.0000
  Fe  Fe181     1.0  0.95822  0.50973  0.24520  1.0000
  H   H2101     1.0  0.77659  0.94516  0.02074  1.0000
  H   H2102     1.0  0.91582  0.57303  0.24936  1.0000
  H   H2103     1.0  0.80886  0.57181  0.23230  1.0000
  H   H2104     1.0  0.83095  0.55816  0.20460  1.0000
  H   H2105     1.0  0.85087  0.60121  0.22160  1.0000
  C   C1230     1.0  0.75065  0.50024  0.36553  1.0000
  C   C1231     1.0  0.75335  0.50136  0.32941  1.0000
  C   C1232     1.0  0.75927  0.73182  0.31612  1.0000
  H   H2106     1.0  0.98602  0.81492  0.45969  1.0000
  H   H2107     1.0  0.83422  0.87086  0.41148  1.0000
  C   C1233     1.0  0.78807  0.96558  0.25246  1.0000
  H   H2108     1.0  0.89106  0.88977  0.42911  1.0000
  H   H2109     1.0  0.89245  0.85785  0.40201  1.0000
  Fe  Fe182     1.0  0.91696  0.93353  0.02630  1.0000
  C   C1234     1.0  0.74587  0.70633  0.37237  1.0000
  H   H2110     1.0  0.85937  0.85401  0.22573  1.0000
  H   H2111     1.0  0.97079  0.96666  0.08104  1.0000
  H   H2112     1.0  0.96681  0.58894  0.05201  1.0000
  H   H2113     1.0  0.92272  0.81097  0.42007  1.0000
  C   C1235     1.0  0.91518  0.95076  0.14427  1.0000
  H   H2114     1.0  0.92545  0.91382  0.20117  1.0000
  C   C1236     1.0  0.94437  0.68960  0.01603  1.0000
  C   C1237     1.0  0.77444  0.74239  0.18145  1.0000
  H   H2115     1.0  0.93614  0.68827  0.04324  1.0000
  H   H2116     1.0  0.96896  0.69159  0.01811  1.0000
  H   H2117     1.0  0.89135  0.76378  0.45826  1.0000
  H   H2118     1.0  0.91240  0.77132  0.39813  1.0000
  H   H2119     1.0  0.87234  0.89871  0.22389  1.0000
  H   H2120     1.0  0.74840  0.90402  0.00167  1.0000
  H   H2121     1.0  0.93611  0.54829  0.06745  1.0000
  S   S360      1.0  0.96619  0.97499  0.00850  1.0000
  H   H2122     1.0  0.74227  0.95724  0.98651  1.0000
  H   H2123     1.0  0.82723  0.54955  0.42991  1.0000
  H   H2124     1.0  0.98170  0.86384  0.39264  1.0000
  H   H2125     1.0  0.97700  0.55621  0.06285  1.0000
  H   H2126     1.0  0.89624  0.69742  0.98072  1.0000
  C   C1238     1.0  0.94321  0.61875  0.44532  1.0000
  S   S361      1.0  0.98598  0.92971  0.40780  1.0000
  S   S362      1.0  0.76681  0.53820  0.39284  1.0000
  H   H2127     1.0  0.91502  0.74408  0.45006  1.0000
  H   H2128     1.0  0.79191  0.74731  0.15996  1.0000
  S   S363      1.0  0.96800  0.57439  0.36785  1.0000
  H   H2129     1.0  0.78751  0.74078  0.20483  1.0000
  H   H2130     1.0  0.83731  0.83813  0.43248  1.0000
  H   H2131     1.0  0.75315  0.89212  0.34145  1.0000
  H   H2132     1.0  0.82075  0.97291  0.44667  1.0000
  C   C1239     1.0  0.84296  0.85209  0.40776  1.0000
  C   C1240     1.0  0.76831  0.93032  0.99577  1.0000
  C   C1241     1.0  0.88065  0.87387  0.40499  1.0000
  H   H2133     1.0  0.97616  0.78337  0.06453  1.0000
  H   H2134     1.0  0.74664  0.68870  0.22436  1.0000
  C   C1242     1.0  0.96531  0.86620  0.37453  1.0000
  H   H2135     1.0  0.74408  0.80285  0.40102  1.0000
  H   H2136     1.0  0.98145  0.64837  0.15063  1.0000
  C   C1243     1.0  0.86770  0.51304  0.98958  1.0000
  H   H2137     1.0  0.96197  0.90423  0.23397  1.0000
  H   H2138     1.0  0.89758  0.58699  0.21686  1.0000
  H   H2139     1.0  0.81768  0.49916  0.32398  1.0000
  C   C1244     1.0  0.97599  0.74719  0.37853  1.0000
  H   H2140     1.0  0.89110  0.60119  0.44318  1.0000
  H   H2141     1.0  0.84066  0.49964  0.47083  1.0000
  H   H2142     1.0  0.75483  0.59198  0.47157  1.0000
  H   H2143     1.0  0.89430  0.88246  0.17359  1.0000
  C   C1245     1.0  0.91362  0.71815  0.99904  1.0000
  C   C1246     1.0  0.97219  0.75255  0.01838  1.0000
  C   C1247     1.0  0.94518  0.87582  0.23305  1.0000
  H   H2144     1.0  0.85429  0.52598  0.20365  1.0000
  C   C1248     1.0  0.76514  0.71459  0.34285  1.0000
  N   N87       1.0  0.94689  0.72065  0.99887  1.0000
  H   H2145     1.0  0.86023  0.77624  0.39065  1.0000
  C   C1249     1.0  0.89772  0.82673  0.20417  1.0000
  C   C1250     1.0  0.91318  0.62120  0.45761  1.0000
  C   C1251     1.0  0.94228  0.86912  0.16881  1.0000
  H   H2146     1.0  0.93880  0.74372  0.06280  1.0000
  H   H2147     1.0  0.76668  0.52600  0.31717  1.0000
  H   H2148     1.0  0.95354  0.79851  0.41367  1.0000
  N   N88       1.0  0.92297  0.86436  0.20132  1.0000
  H   H2149     1.0  0.81163  0.98359  0.39515  1.0000
  S   S364      1.0  0.75430  0.89886  0.41865  1.0000
  H   H2150     1.0  0.75693  0.65258  0.19114  1.0000
  C   C1252     1.0  0.81220  0.50214  0.25304  1.0000
  H   H2151     1.0  0.92695  0.77252  0.00832  1.0000
  H   H2152     1.0  0.93053  0.87051  0.25682  1.0000
  C   C1253     1.0  0.74909  0.68456  0.15383  1.0000
  H   H2153     1.0  0.76664  0.78360  0.16115  1.0000
  H   H2154     1.0  0.90964  0.81063  0.20418  1.0000
  H   H2155     1.0  0.75348  0.63794  0.34582  1.0000
  H   H2156     1.0  0.75458  0.77393  0.20541  1.0000
  C   C1254     1.0  0.77254  0.77573  0.18597  1.0000
  H   H2157     1.0  0.88187  0.81136  0.14955  1.0000
  S   S365      1.0  0.91145  0.89363  0.98660  1.0000
  H   H2158     1.0  0.75016  0.69315  0.39313  1.0000
  H   H2159     1.0  0.94363  0.62042  0.41654  1.0000
  H   H2160     1.0  0.82054  0.87657  0.99798  1.0000
  C   C1255     1.0  0.98125  0.77341  0.28884  1.0000
  H   H2161     1.0  0.97714  0.77651  0.00529  1.0000
  H   H2162     1.0  0.97933  0.67813  0.34679  1.0000
  C   C1256     1.0  0.97223  0.90544  0.16419  1.0000
  H   H2163     1.0  0.96502  0.92547  0.16347  1.0000
  H   H2164     1.0  0.98186  0.87002  0.26176  1.0000
  H   H2165     1.0  0.78217  0.53370  0.46425  1.0000
  C   C1257     1.0  0.98502  0.63200  0.16913  1.0000
  C   C1258     1.0  0.98715  0.70461  0.35355  1.0000
  H   H2166     1.0  0.88745  0.74580  0.98899  1.0000
  H   H2167     1.0  0.80168  0.50416  0.22791  1.0000
  C   C1259     1.0  0.91713  0.76975  0.45409  1.0000
  H   H2168     1.0  0.79574  0.50315  0.27292  1.0000
  H   H2169     1.0  0.96047  0.61064  0.17635  1.0000
  C   C1260     1.0  0.91322  0.75110  0.98918  1.0000
  H   H2170     1.0  0.78980  0.92908  0.98562  1.0000
  C   C1261     1.0  0.94823  0.49072  0.16099  1.0000
  C   C1262     1.0  0.73786  0.83314  0.97826  1.0000
  C   C1263     1.0  0.95005  0.77419  0.78569  1.0000
  C   C1264     1.0  0.92423  0.85121  0.84754  1.0000
  H   H2171     1.0  0.75234  0.97335  0.90763  1.0000
  H   H2172     1.0  0.75554  0.66987  0.78573  1.0000
  H   H2173     1.0  0.78241  0.98089  0.67332  1.0000
  C   C1265     1.0  0.87099  0.86584  0.82857  1.0000
  Fe  Fe183     1.0  0.83142  0.60786  0.68215  1.0000
  S   S366      1.0  0.86811  0.66202  0.66692  1.0000
  S   S367      1.0  0.77725  0.58565  0.66553  1.0000
  Fe  Fe184     1.0  0.88716  0.59292  0.70353  1.0000
  S   S368      1.0  0.92755  0.64581  0.69003  1.0000
  S   S369      1.0  0.89171  0.54564  0.71540  1.0000
  Fe  Fe185     1.0  0.89635  0.66536  0.71507  1.0000
  S   S370      1.0  0.91626  0.71185  0.75235  1.0000
  Fe  Fe186     1.0  0.89635  0.63876  0.64304  1.0000
  S   S371      1.0  0.91759  0.65105  0.58984  1.0000
  S   S372      1.0  0.85765  0.61247  0.73279  1.0000
  S   S373      1.0  0.85815  0.58484  0.65428  1.0000
  S   S374      1.0  0.81329  0.66343  0.49752  1.0000
  Fe  Fe187     1.0  0.83132  0.65449  0.95187  1.0000
  S   S375      1.0  0.86697  0.64619  0.91993  1.0000
  Fe  Fe188     1.0  0.80491  0.67424  0.88829  1.0000
  S   S376      1.0  0.83947  0.66765  0.85251  1.0000
  S   S377      1.0  0.76389  0.68216  0.86481  1.0000
  Fe  Fe189     1.0  0.82525  0.61869  0.88090  1.0000
  S   S378      1.0  0.81912  0.56985  0.85311  1.0000
  Fe  Fe190     1.0  0.87843  0.69517  0.89400  1.0000
  S   S379      1.0  0.93032  0.74108  0.88638  1.0000
  S   S380      1.0  0.78882  0.62361  0.91445  1.0000
  S   S381      1.0  0.84482  0.70531  0.92825  1.0000
  H   H2174     1.0  0.83767  0.53800  0.53803  1.0000
  H   H2175     1.0  0.80302  0.63162  0.74549  1.0000
  S   S382      1.0  0.95919  0.54348  0.96824  1.0000
  C   C1266     1.0  0.74285  0.77122  0.84657  1.0000
  C   C1267     1.0  0.96699  0.74308  0.87055  1.0000
  H   H2176     1.0  0.95367  0.98259  0.59341  1.0000
  C   C1268     1.0  0.76423  0.65186  0.72227  1.0000
  H   H2177     1.0  0.76808  0.52535  0.70020  1.0000
  C   C1269     1.0  0.97617  0.65050  0.49921  1.0000
  C   C1270     1.0  0.93144  0.55728  0.62544  1.0000
  H   H2178     1.0  0.74914  0.60835  0.78169  1.0000
  C   C1271     1.0  0.95759  0.72272  0.96180  1.0000
  C   C1272     1.0  0.92455  0.76655  0.51624  1.0000
  C   C1273     1.0  0.82470  0.53988  0.94638  1.0000
  C   C1274     1.0  0.88837  0.65322  0.56327  1.0000
  C   C1275     1.0  0.89637  0.66580  0.52977  1.0000
  C   C1276     1.0  0.87309  0.66845  0.50914  1.0000
  C   C1277     1.0  0.84225  0.65958  0.52255  1.0000
  C   C1278     1.0  0.83422  0.64685  0.55588  1.0000
  C   C1279     1.0  0.85701  0.64296  0.57590  1.0000
  H   H2179     1.0  0.92059  0.67393  0.51996  1.0000
  H   H2180     1.0  0.74119  0.50567  0.75320  1.0000
  H   H2181     1.0  0.81016  0.63939  0.56603  1.0000
  H   H2182     1.0  0.85009  0.63188  0.60108  1.0000
  C   C1280     1.0  0.92825  0.54344  0.72177  1.0000
  H   H2183     1.0  0.75227  0.71546  0.76598  1.0000
  H   H2184     1.0  0.84292  0.74456  0.76561  1.0000
  C   C1281     1.0  0.89795  0.82813  0.90259  1.0000
  H   H2185     1.0  0.88480  0.87502  0.88281  1.0000
  H   H2186     1.0  0.81732  0.53658  0.72443  1.0000
  C   C1282     1.0  0.77620  0.74962  0.87411  1.0000
  H   H2187     1.0  0.94644  0.59334  0.50599  1.0000
  S   S383      1.0  0.93357  0.95511  0.92981  1.0000
  C   C1283     1.0  0.93991  0.75775  0.75312  1.0000
  H   H2188     1.0  0.85765  0.96807  0.48822  1.0000
  H   H2189     1.0  0.82837  0.52155  0.76149  1.0000
  C   C1284     1.0  0.80015  0.86334  0.94616  1.0000
  C   C1285     1.0  0.76666  0.92505  0.71738  1.0000
  C   C1286     1.0  0.94176  0.49847  0.62495  1.0000
  H   H2190     1.0  0.91379  0.81620  0.90458  1.0000
  H   H2191     1.0  0.79663  0.50949  0.54977  1.0000
  C   C1287     1.0  0.88945  0.75793  0.52640  1.0000
  H   H2192     1.0  0.91884  0.98250  0.61140  1.0000
  C   C1288     1.0  0.96752  0.71439  0.85630  1.0000
  H   H2193     1.0  0.76625  0.69435  0.69169  1.0000
  C   C1289     1.0  0.87359  0.85258  0.86428  1.0000
  H   H2194     1.0  0.74026  0.92379  0.64477  1.0000
  H   H2195     1.0  0.92134  0.85191  0.81896  1.0000
  H   H2196     1.0  0.87925  0.67817  0.48322  1.0000
  H   H2197     1.0  0.89539  0.49489  0.89094  1.0000
  H   H2198     1.0  0.86465  0.74795  0.83480  1.0000
  H   H2199     1.0  0.97117  0.74756  0.49528  1.0000
  C   C1290     1.0  0.77085  0.84712  0.92634  1.0000
  H   H2200     1.0  0.77226  0.84683  0.89847  1.0000
  C   C1291     1.0  0.87045  0.79833  0.84674  1.0000
  C   C1292     1.0  0.88212  0.77185  0.84950  1.0000
  H   H2201     1.0  0.84468  0.78576  0.85592  1.0000
  H   H2202     1.0  0.86864  0.80195  0.81857  1.0000
  H   H2203     1.0  0.88240  0.76433  0.87655  1.0000
  H   H2204     1.0  0.97979  0.68960  0.95743  1.0000
  H   H2205     1.0  0.90667  0.78107  0.83810  1.0000
  H   H2206     1.0  0.89544  0.88507  0.81886  1.0000
  H   H2207     1.0  0.88183  0.52300  0.87296  1.0000
  H   H2208     1.0  0.94338  0.75887  0.80868  1.0000
  H   H2209     1.0  0.86724  0.54649  0.91832  1.0000
  H   H2210     1.0  0.91958  0.98011  0.68193  1.0000
  H   H2211     1.0  0.96057  0.85757  0.94580  1.0000
  H   H2212     1.0  0.85797  0.84454  0.80917  1.0000
  H   H2213     1.0  0.85771  0.71537  0.77442  1.0000
  N   N89       1.0  0.73839  0.92856  0.93863  1.0000
  H   H2214     1.0  0.79494  0.52977  0.76434  1.0000
  H   H2215     1.0  0.94073  0.95827  0.69477  1.0000
  N   N90       1.0  0.89156  0.83256  0.86529  1.0000
  C   C1293     1.0  0.84107  0.52594  0.92104  1.0000
  C   C1294     1.0  0.95337  0.84194  0.52499  1.0000
  H   H2216     1.0  0.78205  0.60409  0.79971  1.0000
  H   H2217     1.0  0.96096  0.59786  0.73000  1.0000
  H   H2218     1.0  0.80491  0.50539  0.67022  1.0000
  H   H2219     1.0  0.93770  0.83679  0.85009  1.0000
  H   H2220     1.0  0.88624  0.75301  0.55458  1.0000
  C   C1295     1.0  0.74840  0.90050  0.88386  1.0000
  C   C1296     1.0  0.82165  0.69847  0.73033  1.0000
  C   C1297     1.0  0.77823  0.72127  0.76612  1.0000
  H   H2221     1.0  0.78455  0.94632  0.91180  1.0000
  H   H2222     1.0  0.82200  0.57753  0.52842  1.0000
  H   H2223     1.0  0.85632  0.87900  0.83126  1.0000
  C   C1298     1.0  0.97856  0.83081  0.76002  1.0000
  H   H2224     1.0  0.74803  0.97663  0.75986  1.0000
  N   N91       1.0  0.73878  0.96155  0.70542  1.0000
  N   N92       1.0  0.80498  0.51068  0.49442  1.0000
  N   N93       1.0  0.83885  0.49206  0.92930  1.0000
  H   H2225     1.0  0.77775  0.93212  0.74388  1.0000
  H   H2226     1.0  0.93232  0.58174  0.63331  1.0000
  H   H2227     1.0  0.77907  0.97342  0.96367  1.0000
  H   H2228     1.0  0.91349  0.53729  0.64270  1.0000
  H   H2229     1.0  0.74904  0.53897  0.87030  1.0000
  C   C1299     1.0  0.73987  0.83237  0.94214  1.0000
  H   H2230     1.0  0.93925  0.61879  0.53700  1.0000
  H   H2231     1.0  0.81610  0.71227  0.71036  1.0000
  H   H2232     1.0  0.96796  0.61126  0.96393  1.0000
  H   H2233     1.0  0.78452  0.52046  0.64255  1.0000
  H   H2234     1.0  0.84029  0.58318  0.48624  1.0000
  C   C1300     1.0  0.75681  0.94890  0.97084  1.0000
  H   H2235     1.0  0.93711  0.49689  0.65324  1.0000
  H   H2236     1.0  0.77302  0.96097  0.82164  1.0000
  H   H2237     1.0  0.79700  0.69668  0.79930  1.0000
  H   H2238     1.0  0.83231  0.68495  0.71533  1.0000
  H   H2239     1.0  0.96631  0.90265  0.84116  1.0000
  C   C1301     1.0  0.97916  0.53641  0.57910  1.0000
  H   H2240     1.0  0.85637  0.54367  0.48124  1.0000
  H   H2241     1.0  0.77369  0.64149  0.70163  1.0000
  C   C1302     1.0  0.75761  0.49869  0.68951  1.0000
  H   H2242     1.0  0.97627  0.61706  0.53973  1.0000
  C   C1303     1.0  0.95850  0.61785  0.52117  1.0000
  C   C1304     1.0  0.94841  0.88805  0.86159  1.0000
  H   H2243     1.0  0.81875  0.95647  0.50606  1.0000
  C   C1305     1.0  0.95899  0.57277  0.72839  1.0000
  H   H2244     1.0  0.78394  0.80101  0.88170  1.0000
  H   H2245     1.0  0.96197  0.88753  0.88503  1.0000
  H   H2246     1.0  0.76038  0.89810  0.71115  1.0000
  C   C1306     1.0  0.78463  0.52728  0.84878  1.0000
  C   C1307     1.0  0.75624  0.97399  0.67156  1.0000
  H   H2247     1.0  0.81361  0.50687  0.82648  1.0000
  H   H2248     1.0  0.80586  0.58924  0.49270  1.0000
  H   H2249     1.0  0.97699  0.82180  0.81472  1.0000
  H   H2250     1.0  0.85181  0.81949  0.92660  1.0000
  H   H2251     1.0  0.97362  0.94659  0.54794  1.0000
  C   C1308     1.0  0.98512  0.53713  0.73165  1.0000
  H   H2252     1.0  0.82355  0.66138  0.77964  1.0000
  H   H2253     1.0  0.84785  0.83660  0.87324  1.0000
  H   H2254     1.0  0.98182  0.98634  0.64705  1.0000
  H   H2255     1.0  0.79162  0.74224  0.78592  1.0000
  H   H2256     1.0  0.94498  0.68976  0.85458  1.0000
  C   C1309     1.0  0.95150  0.53010  0.55317  1.0000
  C   C1310     1.0  0.81685  0.57330  0.50012  1.0000
  H   H2257     1.0  0.89088  0.51544  0.94205  1.0000
  C   C1311     1.0  0.79956  0.64774  0.76558  1.0000
  C   C1312     1.0  0.86710  0.80703  0.92444  1.0000
  C   C1313     1.0  0.76919  0.77634  0.86845  1.0000
  H   H2258     1.0  0.74345  0.62895  0.73394  1.0000
  H   H2259     1.0  0.92500  0.65309  0.97071  1.0000
  Fe  Fe191     1.0  0.88648  0.91559  0.95463  1.0000
  H   H2260     1.0  0.79590  0.75378  0.89171  1.0000
  C   C1314     1.0  0.75308  0.51906  0.85917  1.0000
  C   C1315     1.0  0.96919  0.81011  0.78911  1.0000
  C   C1316     1.0  0.93964  0.82285  0.48979  1.0000
  H   H2261     1.0  0.75887  0.57024  0.73835  1.0000
  H   H2262     1.0  0.91220  0.85371  0.91616  1.0000
  H   H2263     1.0  0.92218  0.55119  0.59841  1.0000
  C   C1317     1.0  0.74826  0.67011  0.70386  1.0000
  H   H2264     1.0  0.77079  0.90723  0.93353  1.0000
  C   C1318     1.0  0.76198  0.92169  0.91809  1.0000
  C   C1319     1.0  0.93558  0.97015  0.67242  1.0000
  S   S384      1.0  0.83845  0.88272  0.92470  1.0000
  C   C1320     1.0  0.75698  0.71730  0.85794  1.0000
  H   H2265     1.0  0.87505  0.80555  0.95119  1.0000
  C   C1321     1.0  0.77466  0.62306  0.79198  1.0000
  H   H2266     1.0  0.94091  0.76589  0.69817  1.0000
  C   C1322     1.0  0.95444  0.50788  0.72468  1.0000
  H   H2267     1.0  0.75658  0.96000  0.61734  1.0000
  N   N94       1.0  0.79117  0.67267  0.74875  1.0000
  C   C1323     1.0  0.80703  0.51968  0.74688  1.0000
  H   H2268     1.0  0.85191  0.78023  0.91433  1.0000
  H   H2269     1.0  0.74179  0.91386  0.86439  1.0000
  C   C1324     1.0  0.78026  0.68907  0.77615  1.0000
  H   H2270     1.0  0.87139  0.74176  0.73746  1.0000
  H   H2271     1.0  0.78878  0.73189  0.74080  1.0000
  H   H2272     1.0  0.97147  0.70335  0.73659  1.0000
  H   H2273     1.0  0.96447  0.74833  0.95133  1.0000
  H   H2274     1.0  0.94118  0.77732  0.53942  1.0000
  C   C1325     1.0  0.94883  0.77819  0.72353  1.0000
  H   H2275     1.0  0.87059  0.73465  0.51187  1.0000
  C   C1326     1.0  0.92617  0.51102  0.72022  1.0000
  H   H2276     1.0  0.92220  0.94921  0.65268  1.0000
  H   H2277     1.0  0.97870  0.84723  0.53044  1.0000
  C   C1327     1.0  0.96821  0.81474  0.72698  1.0000
  H   H2278     1.0  0.73901  0.73450  0.96595  1.0000
  C   C1328     1.0  0.86663  0.49755  0.95332  1.0000
  H   H2279     1.0  0.93639  0.90325  0.86798  1.0000
  H   H2280     1.0  0.96469  0.66646  0.50544  1.0000
  H   H2281     1.0  0.76790  0.89654  0.87216  1.0000
  C   C1329     1.0  0.76907  0.98177  0.83003  1.0000
  H   H2282     1.0  0.97520  0.83037  0.70424  1.0000
  H   H2283     1.0  0.82926  0.52370  0.89539  1.0000
  H   H2284     1.0  0.93700  0.70388  0.94466  1.0000
  H   H2285     1.0  0.88436  0.77912  0.52202  1.0000
  Fe  Fe192     1.0  0.95891  0.93611  0.96609  1.0000
  H   H2286     1.0  0.95047  0.55398  0.54957  1.0000
  C   C1330     1.0  0.97346  0.79610  0.48047  1.0000
  H   H2287     1.0  0.92285  0.74115  0.51152  1.0000
  H   H2288     1.0  0.77088  0.52813  0.50808  1.0000
  C   C1331     1.0  0.84961  0.72630  0.75368  1.0000
  H   H2289     1.0  0.78539  0.94059  0.69831  1.0000
  H   H2290     1.0  0.82229  0.53116  0.97326  1.0000
  C   C1332     1.0  0.74104  0.94855  0.64031  1.0000
  N   N95       1.0  0.97122  0.53287  0.61706  1.0000
  C   C1333     1.0  0.79210  0.53525  0.49087  1.0000
  C   C1334     1.0  0.98497  0.86258  0.95243  1.0000
  H   H2291     1.0  0.93722  0.82770  0.54669  1.0000
  H   H2292     1.0  0.92698  0.50891  0.56003  1.0000
  C   C1335     1.0  0.78926  0.50086  0.83443  1.0000
  H   H2293     1.0  0.95443  0.86726  0.52448  1.0000
  H   H2294     1.0  0.95667  0.52185  0.52772  1.0000
  H   H2295     1.0  0.97256  0.80954  0.94534  1.0000
  H   H2296     1.0  0.92288  0.75932  0.96287  1.0000
  C   C1336     1.0  0.87508  0.49587  0.87712  1.0000
  H   H2297     1.0  0.91877  0.49503  0.61300  1.0000
  H   H2298     1.0  0.77474  0.63706  0.81601  1.0000
  C   C1337     1.0  0.78038  0.49956  0.66036  1.0000
  C   C1338     1.0  0.81604  0.51224  0.53148  1.0000
  C   C1339     1.0  0.96610  0.56181  0.63024  1.0000
  H   H2299     1.0  0.83970  0.56846  0.94776  1.0000
  C   C1340     1.0  0.84182  0.97864  0.49662  1.0000
  N   N96       1.0  0.93863  0.78880  0.48519  1.0000
  H   H2300     1.0  0.80030  0.53424  0.93601  1.0000
  H   H2301     1.0  0.90849  0.61615  0.48550  1.0000
  C   C1341     1.0  0.73882  0.56551  0.68706  1.0000
  H   H2302     1.0  0.91483  0.81990  0.48570  1.0000
  H   H2303     1.0  0.97134  0.56615  0.65863  1.0000
  C   C1342     1.0  0.98702  0.71705  0.95530  1.0000
  C   C1343     1.0  0.98716  0.56954  0.73366  1.0000
  H   H2304     1.0  0.98380  0.58656  0.61822  1.0000
  C   C1344     1.0  0.75628  0.98825  0.73410  1.0000
