data_image0
_chemical_formula_structural       FeS2FeS2FeSCSFeH3CFeS2FeS2FeS2FeSFeS3H6FeS2CSCH3C6H4C3H2C6H4CHSH3C6H4CH2C7H5NC7H14NC5HCH3CH9FeHCH2NHSNC8H20NC4H6CHCHCH6FeH2CSHCH5SH5CHCHC2HCH5CH2CNCH3C3SCH2SH4C3H4CH4C2FeH2CH5FeS2FeS2FeSCFeSFeS3FeS2FeS2FeS2FeSFeS3CHCH2C6H4C6H4CH2SH4C6H4CHNHCH3CH4CH2CH3NC8H22FeHSH4C2HCH2CH3CH2CHC3H5CH5NH5CH2SH2CHC3H2C2H5SHNH2NCSNFeSCHSFeSFeSHSCSH2SFeS2FeHFeS5HC6H3NH4C6H4C6H4C3H2CHSC2HC2H4CNH5CH2CHCHCH7CHCSCHC2HC2H2SH2CH2SH2CH2CH4CH2C3HFeH2CSH8CH3NHC2H7CFeH3CHCHC2HCHFeHCHC2HC2H3CH2C3H4CH3C2H3C2HFeS2C2HS2CFeSFeSCFeS2FeS2FeS2FeSFeS3H2SFeSFeS2HS2CH4C6H4CHC2HCH2NHC6H6CHSC6H10C3HSCHC2HCHCHCH8C2H3CHCHC3HNC3H2CH14SNC5HC2H8CHCH2FeH6NC8H11FeH7CHCFeHC3H6SCH5CH7NC2H2CNHSCH2FeHCHC2HFeHSH5SH2SHC6H6CSCNC2H2CH5CH2C3HCHC2H3CH3SH2SH2FeC2HCH3NH2CHCHC2HNH7CH5C2H3FeSCFeS2FeSFeS3CHSFeS2FeS2FeSFeS2FeSHS2C6HSC7H4C6H5C7H4C6H4C6H5NC8H23C2HNSC2H6CH4CH3CH2C2H3CH4CH6CH2CH8FeH2CH5C3NCSCH2NH3CNHCHC2NCHCH4CH2C4H5CHCH2CHCH8CH5C2H3CHNH2NCHCH5CHCH2CHNH2CHC2H2CHCHCH4NH2CHC2H13CH5C2SH2CH2CH5C2H4NCH3CH4FeS2FeS2FeSFeS3FeSFeC2FeSHS2HSCH3NC5H2S2HC5H2C5SCH2C6H4C6H4C4HCHCSHCH2CNCH6SHCH2CH7C2NC4HC3H8CH15FeCH2CS2CH4C3H3CH2CSH6CHSHCHCH8C3HCH8CH3FeCH2CH2C4H4SC3H4FeH2CFeS2FeSFeSCHFeS2C2H2C2HCFeS2FeS2FeS2HC3HFeH2C6H9CH2C7H4CSHC8H5C2H4CHFe2H2CH2SFeHCNC3H5CH4CNC8H19SNHCHCSC3HSC3H7C2H4SHC6H4CHFeH3S2HC2NH5C2HCHSCHC2HCH3CNSHCH3CSCHFeHSHFeS2FeS2FeSFeS3FeHSCHFeS2FeS2FeSFeS3C2HCHC6H4C6H4C3HC2H3C3H7C6H5C3H2C4H4SHCHNHCH3C2HCH2CH2CH4NC8H27CH3NHCH3C2H2C2H2CHCHNHCHCH3C6NC2H4CH7NCH4NH2SHCHCHCHC2H2CH2CHCH2SHCHCH2CHCH2CH3CHCH4CH5C2H3CH2CH10CHC3H3CH2C2HC2H3CH3C3H4CHCHCH4CH2CH4CHCHSNH6C2HFeS2CHCHSFe2S2H2CH2CHCHCHCH2CHC6H5CHNSH2SCH5CH3CHCHC2H4FeNHCH4SCSH5CH3CFeH2CH3CH2C2H2C2HFeNCH5CH2CHCH2FeS2C2HFeS2HC2HFeS2FeS2FeSFeS3HCH2CH2S2H2SC2H2C6H4C3H2C6H12C6H7C6H3C2H4FeH2S2H3NC8H10CH11CHC2H5CH6SH6C2HCHC2HC2H2C2H2SH3CNHCHCH2C2H3C2HC2H2CHFeCH2NCH2CH6NH2NFeH4SH3CHCHC3H2CFeH3CHCHCHFeHFeH3FeCH5CHCH3FeS2H2FeS2FeSHFeSFeS3FeS2FeS2FeS2FeHFeS3HSHCH4C6H6SC6H5C3SFeH2CH2C6H3SC4H4CNC8H10CH7CNC6H15CH3C3NC4H3NCH9C2NH2CH7SH3CH6CH4SHSH3CH2CH2CHCH3CFeS2FeSHFeSFeS3HS2FeH2FeS2FeCFeS3FeSHCH2CH3C8HCH2C6H5C3H5CH2C2HCH6CH2CS2H4C2H5CHCHFeCHCH2CHNC8H20NC2HC5SH2CH9FeCH7C2H8FeS2FeS2FeS2FeSFeS3FeS2FeSFeHS3FeSHSCH2CHC5SH2C2HC6H4C6H9C6H6CH3SCNC8H20C2H5SH2SC2HCFeHCHFeSHCHCH4NCHC6HNCH10C2H8NHSHCH3CH2NH4C4H3C2HCH3CH2C2HCH9CH3CH2CNC2HCH2SCFe
_chemical_formula_sum              "Fe144 S288 C1008 H1728 N72"
_cell_length_a       53.1603
_cell_length_b       53.22
_cell_length_c       74.3451
_cell_angle_alpha    90.6651
_cell_angle_beta     91.6278
_cell_angle_gamma    116.295

_space_group_name_H-M_alt    "P 1"
_space_group_IT_number       1

loop_
  _space_group_symop_operation_xyz
  'x, y, z'

loop_
  _atom_site_type_symbol
  _atom_site_label
  _atom_site_symmetry_multiplicity
  _atom_site_fract_x
  _atom_site_fract_y
  _atom_site_fract_z
  _atom_site_occupancy
  Fe  Fe1       1.0  0.20544  0.04390  0.07502  1.0000
  S   S1        1.0  0.24865  0.04683  0.07432  1.0000
  S   S2        1.0  0.20308  0.08290  0.06500  1.0000
  Fe  Fe2       1.0  0.23819  0.02103  0.09935  1.0000
  S   S3        1.0  0.27346  0.04427  0.12148  1.0000
  S   S4        1.0  0.25061  0.00593  0.03091  1.0000
  Fe  Fe3       1.0  0.43487  0.39226  0.23270  1.0000
  S   S5        1.0  0.19489  0.01973  0.10057  1.0000
  C   C1        1.0  0.42028  0.21723  0.23237  1.0000
  S   S6        1.0  0.47380  0.12942  0.22021  1.0000
  Fe  Fe4       1.0  0.22958  0.00716  0.05739  1.0000
  H   H1        1.0  0.10140  0.27194  0.02659  1.0000
  H   H2        1.0  0.47637  0.04305  0.20301  1.0000
  H   H3        1.0  0.33874  0.27066  0.22174  1.0000
  C   C2        1.0  0.19453  0.05515  0.01647  1.0000
  Fe  Fe5       1.0  0.36641  0.07975  0.21978  1.0000
  S   S7        1.0  0.33423  0.04762  0.19901  1.0000
  S   S8        1.0  0.39790  0.12310  0.21280  1.0000
  Fe  Fe6       1.0  0.20211  0.21595  0.09988  1.0000
  S   S9        1.0  0.24566  0.23570  0.08955  1.0000
  S   S10       1.0  0.18198  0.17232  0.11099  1.0000
  Fe  Fe7       1.0  0.19322  0.26765  0.09339  1.0000
  S   S11       1.0  0.23693  0.29168  0.08305  1.0000
  S   S12       1.0  0.16359  0.28826  0.09383  1.0000
  Fe  Fe8       1.0  0.22746  0.25193  0.06710  1.0000
  S   S13       1.0  0.23240  0.24322  0.03720  1.0000
  Fe  Fe9       1.0  0.25146  0.27360  0.10656  1.0000
  S   S14       1.0  0.29291  0.29710  0.12370  1.0000
  S   S15       1.0  0.18328  0.22900  0.07661  1.0000
  S   S16       1.0  0.20837  0.25277  0.11783  1.0000
  H   H4        1.0  0.17688  0.27306  0.01043  1.0000
  H   H5        1.0  0.15636  0.23192  0.13941  1.0000
  H   H6        1.0  0.28898  0.00345  0.17843  1.0000
  H   H7        1.0  0.02196  0.22114  0.00066  1.0000
  H   H8        1.0  0.10234  0.29456  0.04479  1.0000
  H   H9        1.0  0.14241  0.26529  0.98872  1.0000
  Fe  Fe10      1.0  0.37580  0.34383  0.22423  1.0000
  S   S17       1.0  0.33363  0.32422  0.20758  1.0000
  S   S18       1.0  0.41766  0.35692  0.21173  1.0000
  C   C3        1.0  0.23694  0.00321  0.00837  1.0000
  S   S19       1.0  0.02997  0.22681  0.08955  1.0000
  C   C4        1.0  0.25687  0.07608  0.02697  1.0000
  H   H10       1.0  0.14993  0.31315  0.03600  1.0000
  H   H11       1.0  0.13652  0.20320  0.10781  1.0000
  H   H12       1.0  0.26495  0.00110  0.14878  1.0000
  C   C5        1.0  0.12655  0.27115  0.09034  1.0000
  C   C6        1.0  0.11134  0.28696  0.09165  1.0000
  C   C7        1.0  0.08173  0.27391  0.09040  1.0000
  C   C8        1.0  0.06701  0.24480  0.08801  1.0000
  C   C9        1.0  0.08228  0.22910  0.08604  1.0000
  C   C10       1.0  0.11189  0.24220  0.08702  1.0000
  H   H13       1.0  0.12247  0.30939  0.09413  1.0000
  H   H14       1.0  0.07028  0.28624  0.09204  1.0000
  H   H15       1.0  0.07107  0.20656  0.08420  1.0000
  H   H16       1.0  0.12328  0.22978  0.08582  1.0000
  C   C11       1.0  0.23071  0.25683  0.01549  1.0000
  C   C12       1.0  0.22479  0.23906  0.00014  1.0000
  C   C13       1.0  0.23598  0.28477  0.01299  1.0000
  H   H17       1.0  0.22102  0.21752  0.00178  1.0000
  H   H18       1.0  0.24158  0.29904  0.02450  1.0000
  C   C14       1.0  0.30356  0.30478  0.14714  1.0000
  C   C15       1.0  0.33228  0.32087  0.15193  1.0000
  C   C16       1.0  0.34187  0.32731  0.17018  1.0000
  C   C17       1.0  0.32286  0.31783  0.18409  1.0000
  C   C18       1.0  0.29414  0.30176  0.17930  1.0000
  C   C19       1.0  0.28457  0.29521  0.16106  1.0000
  H   H19       1.0  0.34728  0.32855  0.14139  1.0000
  H   H20       1.0  0.36399  0.33976  0.17345  1.0000
  H   H21       1.0  0.27911  0.29425  0.18982  1.0000
  H   H22       1.0  0.26245  0.28289  0.15777  1.0000
  C   C20       1.0  0.43585  0.24618  0.22961  1.0000
  H   H23       1.0  0.11789  0.23628  0.03351  1.0000
  S   S20       1.0  0.46303  0.43943  0.22988  1.0000
  H   H24       1.0  0.12739  0.28491  0.00055  1.0000
  H   H25       1.0  0.33148  0.19441  0.20500  1.0000
  H   H26       1.0  0.32047  0.23758  0.14194  1.0000
  C   C21       1.0  0.19567  0.10664  0.07789  1.0000
  C   C22       1.0  0.18203  0.09939  0.09420  1.0000
  C   C23       1.0  0.17698  0.11938  0.10405  1.0000
  C   C24       1.0  0.18618  0.14678  0.09784  1.0000
  C   C25       1.0  0.19952  0.15381  0.08146  1.0000
  C   C26       1.0  0.20394  0.13372  0.07144  1.0000
  H   H27       1.0  0.17530  0.07844  0.09915  1.0000
  H   H28       1.0  0.16652  0.11381  0.11669  1.0000
  H   H29       1.0  0.20645  0.17477  0.07647  1.0000
  H   H30       1.0  0.21439  0.13947  0.05882  1.0000
  C   C27       1.0  0.03036  0.24392  0.00333  1.0000
  H   H31       1.0  0.21016  0.32492  0.03091  1.0000
  H   H32       1.0  0.47231  0.04389  0.17931  1.0000
  C   C28       1.0  0.15153  0.22527  0.03081  1.0000
  C   C29       1.0  0.28977  0.04462  0.14321  1.0000
  C   C30       1.0  0.28171  0.02076  0.15371  1.0000
  C   C31       1.0  0.29548  0.02218  0.17061  1.0000
  C   C32       1.0  0.31733  0.04749  0.17757  1.0000
  C   C33       1.0  0.32535  0.07139  0.16711  1.0000
  C   C34       1.0  0.31181  0.06988  0.15011  1.0000
  H   H33       1.0  0.19447  0.32999  0.05123  1.0000
  H   H34       1.0  0.34208  0.09104  0.17208  1.0000
  H   H35       1.0  0.31852  0.08848  0.14223  1.0000
  H   H36       1.0  0.22358  0.32198  0.05252  1.0000
  H   H37       1.0  0.42871  0.12009  0.17574  1.0000
  N   N1        1.0  0.11560  0.23027  0.14361  1.0000
  C   C35       1.0  0.13017  0.25674  0.15506  1.0000
  C   C36       1.0  0.10339  0.20559  0.15580  1.0000
  C   C37       1.0  0.09223  0.23108  0.13204  1.0000
  C   C38       1.0  0.13679  0.22790  0.13149  1.0000
  C   C39       1.0  0.14067  0.28454  0.14492  1.0000
  C   C40       1.0  0.06928  0.23523  0.14205  1.0000
  C   C41       1.0  0.12731  0.19941  0.12132  1.0000
  H   H38       1.0  0.11644  0.25753  0.16586  1.0000
  H   H39       1.0  0.14903  0.25725  0.16228  1.0000
  H   H40       1.0  0.08993  0.18597  0.14800  1.0000
  H   H41       1.0  0.08920  0.20843  0.16546  1.0000
  H   H42       1.0  0.10076  0.24801  0.12218  1.0000
  H   H43       1.0  0.08116  0.21150  0.12373  1.0000
  H   H44       1.0  0.14323  0.24434  0.12117  1.0000
  H   H45       1.0  0.15583  0.28607  0.13455  1.0000
  H   H46       1.0  0.12323  0.28787  0.13867  1.0000
  H   H47       1.0  0.15194  0.30230  0.15466  1.0000
  H   H48       1.0  0.05430  0.23680  0.13189  1.0000
  H   H49       1.0  0.07783  0.25489  0.15031  1.0000
  H   H50       1.0  0.05688  0.21707  0.15042  1.0000
  H   H51       1.0  0.10435  0.18716  0.11914  1.0000
  N   N2        1.0  0.35063  0.25318  0.18583  1.0000
  C   C42       1.0  0.37408  0.28065  0.19276  1.0000
  C   C43       1.0  0.32446  0.24908  0.19539  1.0000
  C   C44       1.0  0.34629  0.25620  0.16598  1.0000
  C   C45       1.0  0.35926  0.23005  0.18911  1.0000
  C   C46       1.0  0.40251  0.29014  0.18367  1.0000
  H   H52       1.0  0.11915  0.24906  0.00594  1.0000
  C   C47       1.0  0.32175  0.23159  0.15609  1.0000
  H   H53       1.0  0.00744  0.32379  0.99450  1.0000
  H   H54       1.0  0.36783  0.29799  0.19157  1.0000
  H   H55       1.0  0.37873  0.27977  0.20733  1.0000
  C   C48       1.0  0.41708  0.09701  0.17345  1.0000
  H   H56       1.0  0.31820  0.26578  0.19176  1.0000
  H   H57       1.0  0.34305  0.27524  0.16369  1.0000
  H   H58       1.0  0.36526  0.25934  0.15852  1.0000
  H   H59       1.0  0.37340  0.22958  0.17848  1.0000
  H   H60       1.0  0.37192  0.23441  0.20195  1.0000
  H   H61       1.0  0.41875  0.30830  0.19145  1.0000
  H   H62       1.0  0.40986  0.27364  0.18356  1.0000
  H   H63       1.0  0.40180  0.29751  0.16985  1.0000
  H   H64       1.0  0.26572  0.06899  0.01578  1.0000
  Fe  Fe11      1.0  0.42931  0.11527  0.23019  1.0000
  H   H65       1.0  0.18932  0.06169  0.02953  1.0000
  C   C49       1.0  0.25552  0.01131  0.99405  1.0000
  H   H66       1.0  0.32538  0.21264  0.15551  1.0000
  H   H67       1.0  0.23522  0.10048  0.03299  1.0000
  N   N3        1.0  0.21738  0.07934  0.00738  1.0000
  H   H68       1.0  0.30115  0.22694  0.16177  1.0000
  S   S21       1.0  0.18703  0.00562  0.05699  1.0000
  N   N4        1.0  0.26921  0.13469  0.11295  1.0000
  C   C50       1.0  0.25178  0.14731  0.12148  1.0000
  C   C51       1.0  0.25243  0.10321  0.11315  1.0000
  C   C52       1.0  0.27433  0.14445  0.09379  1.0000
  C   C53       1.0  0.29644  0.14485  0.12383  1.0000
  C   C54       1.0  0.26179  0.17912  0.11915  1.0000
  C   C55       1.0  0.24478  0.09045  0.13190  1.0000
  C   C56       1.0  0.28096  0.12625  0.08022  1.0000
  C   C57       1.0  0.31708  0.13318  0.11845  1.0000
  H   H69       1.0  0.22982  0.13682  0.11600  1.0000
  H   H70       1.0  0.25042  0.14388  0.13623  1.0000
  H   H71       1.0  0.26326  0.09218  0.10654  1.0000
  H   H72       1.0  0.23246  0.09653  0.10504  1.0000
  H   H73       1.0  0.25542  0.14554  0.08778  1.0000
  H   H74       1.0  0.29161  0.16616  0.09341  1.0000
  H   H75       1.0  0.30848  0.16799  0.12308  1.0000
  H   H76       1.0  0.29284  0.14148  0.13848  1.0000
  H   H77       1.0  0.28349  0.19183  0.12453  1.0000
  H   H78       1.0  0.25997  0.18435  0.10491  1.0000
  H   H79       1.0  0.24788  0.18572  0.12673  1.0000
  H   H80       1.0  0.23081  0.09748  0.13892  1.0000
  H   H81       1.0  0.23293  0.06730  0.13022  1.0000
  H   H82       1.0  0.26374  0.09461  0.14044  1.0000
  H   H83       1.0  0.28728  0.13758  0.06743  1.0000
  H   H84       1.0  0.26194  0.10647  0.07689  1.0000
  H   H85       1.0  0.29811  0.12127  0.08484  1.0000
  H   H86       1.0  0.33046  0.14536  0.10745  1.0000
  H   H87       1.0  0.30676  0.11061  0.11465  1.0000
  H   H88       1.0  0.33091  0.13469  0.13031  1.0000
  N   N5        1.0  0.15644  0.27562  0.03493  1.0000
  C   C58       1.0  0.18449  0.28566  0.04492  1.0000
  C   C59       1.0  0.13994  0.24486  0.03868  1.0000
  C   C60       1.0  0.14193  0.29224  0.04228  1.0000
  C   C61       1.0  0.20389  0.31750  0.04468  1.0000
  H   H89       1.0  0.13972  0.19579  0.15920  1.0000
  H   H90       1.0  0.18152  0.27994  0.05931  1.0000
  H   H91       1.0  0.19681  0.27518  0.03959  1.0000
  H   H92       1.0  0.13833  0.24173  0.05347  1.0000
  H   H93       1.0  0.14691  0.29683  0.05697  1.0000
  H   H94       1.0  0.42742  0.01777  0.19330  1.0000
  C   C62       1.0  0.12484  0.19998  0.16739  1.0000
  H   H95       1.0  0.13670  0.21742  0.17719  1.0000
  C   C63       1.0  0.10959  0.27884  0.04050  1.0000
  H   H96       1.0  0.13615  0.18643  0.12809  1.0000
  C   C64       1.0  0.16183  0.28083  0.01520  1.0000
  H   H97       1.0  0.17287  0.30370  0.01279  1.0000
  H   H98       1.0  0.30520  0.24118  0.22148  1.0000
  H   H99       1.0  0.13739  0.20332  0.03423  1.0000
  H   H100      1.0  0.20401  0.11694  0.02829  1.0000
  H   H101      1.0  0.09995  0.26101  0.04970  1.0000
  H   H102      1.0  0.31566  0.19551  0.18325  1.0000
  Fe  Fe12      1.0  0.99750  0.24314  0.08302  1.0000
  H   H103      1.0  0.05274  0.25268  0.00795  1.0000
  H   H104      1.0  0.37845  0.99687  0.17168  1.0000
  C   C65       1.0  0.43110  0.08272  0.18524  1.0000
  S   S22       1.0  0.99316  0.29791  0.02886  1.0000
  H   H105      1.0  0.41737  0.09262  0.15890  1.0000
  C   C66       1.0  0.39016  0.03768  0.18585  1.0000
  H   H106      1.0  0.42767  0.08658  0.19951  1.0000
  H   H107      1.0  0.46839  0.07897  0.16200  1.0000
  H   H108      1.0  0.43312  0.04585  0.20867  1.0000
  H   H109      1.0  0.42209  0.02300  0.16121  1.0000
  H   H110      1.0  0.25816  0.11334  0.01506  1.0000
  S   S23       1.0  0.39867  0.07099  0.23583  1.0000
  H   H111      1.0  0.11334  0.18095  0.17534  1.0000
  H   H112      1.0  0.34290  0.18488  0.18520  1.0000
  H   H113      1.0  0.37779  0.04459  0.17657  1.0000
  H   H114      1.0  0.15231  0.22598  0.01593  1.0000
  H   H115      1.0  0.01805  0.24583  0.01469  1.0000
  C   C67       1.0  0.16704  0.03867  0.00516  1.0000
  H   H116      1.0  0.23931  0.31622  0.99379  1.0000
  C   C68       1.0  0.42388  0.04462  0.16231  1.0000
  H   H117      1.0  0.30608  0.22938  0.19112  1.0000
  C   C69       1.0  0.33552  0.19991  0.19064  1.0000
  C   C70       1.0  0.37527  0.00534  0.18464  1.0000
  H   H118      1.0  0.42998  0.20326  0.23091  1.0000
  C   C71       1.0  0.32657  0.24907  0.21610  1.0000
  H   H119      1.0  0.27784  0.01945  0.99699  1.0000
  H   H120      1.0  0.45406  0.09485  0.18404  1.0000
  H   H121      1.0  0.47972  0.07475  0.19344  1.0000
  H   H122      1.0  0.33594  0.23546  0.22101  1.0000
  H   H123      1.0  0.35229  0.99831  0.18561  1.0000
  C   C72       1.0  0.24194  0.09367  0.02059  1.0000
  H   H124      1.0  0.38698  0.04387  0.19965  1.0000
  H   H125      1.0  0.45944  0.05159  0.14560  1.0000
  C   C73       1.0  0.13599  0.26942  0.00211  1.0000
  N   N6        1.0  0.42093  0.05173  0.18161  1.0000
  C   C74       1.0  0.23500  0.29455  0.99548  1.0000
  H   H126      1.0  0.39515  0.09093  0.17730  1.0000
  H   H127      1.0  0.27473  0.08914  0.03631  1.0000
  H   H128      1.0  0.24285  0.05781  0.03470  1.0000
  C   C75       1.0  0.19170  0.10915  0.01545  1.0000
  C   C76       1.0  0.45109  0.06440  0.15298  1.0000
  C   C77       1.0  0.98941  0.30370  0.99217  1.0000
  S   S24       1.0  0.44343  0.30072  0.22838  1.0000
  C   C78       1.0  0.46788  0.05164  0.19216  1.0000
  H   H129      1.0  0.17251  0.22974  0.03663  1.0000
  H   H130      1.0  0.17102  0.09158  0.01818  1.0000
  S   S25       1.0  0.00246  0.28751  0.08191  1.0000
  H   H131      1.0  0.20188  0.03935  0.02038  1.0000
  H   H132      1.0  0.40610  0.04422  0.15377  1.0000
  H   H133      1.0  0.44640  0.07675  0.14261  1.0000
  H   H134      1.0  0.98571  0.39655  0.19109  1.0000
  C   C79       1.0  0.42340  0.26444  0.23154  1.0000
  C   C80       1.0  0.43612  0.04094  0.19448  1.0000
  C   C81       1.0  0.20813  0.99260  0.00430  1.0000
  H   H135      1.0  0.23057  0.05047  0.99480  1.0000
  H   H136      1.0  0.45760  0.25443  0.22603  1.0000
  H   H137      1.0  0.18757  0.12644  0.01012  1.0000
  H   H138      1.0  0.38155  0.99596  0.19612  1.0000
  C   C82       1.0  0.39531  0.25351  0.23613  1.0000
  H   H139      1.0  0.14910  0.03020  0.01427  1.0000
  H   H140      1.0  0.16786  0.02098  0.99757  1.0000
  H   H141      1.0  0.04238  0.28239  0.98988  1.0000
  H   H142      1.0  0.27026  0.09811  0.98925  1.0000
  C   C83       1.0  0.20763  0.10071  0.00142  1.0000
  C   C84       1.0  0.22556  0.06793  0.99111  1.0000
  Fe  Fe13      1.0  0.42438  0.33069  0.23321  1.0000
  H   H143      1.0  0.16218  0.05166  0.99549  1.0000
  H   H144      1.0  0.22580  0.12048  0.99765  1.0000
  C   C85       1.0  0.39221  0.20653  0.23710  1.0000
  H   H145      1.0  0.00631  0.26115  0.98867  1.0000
  H   H146      1.0  0.98556  0.41494  0.21125  1.0000
  H   H147      1.0  0.46815  0.07761  0.23712  1.0000
  H   H148      1.0  0.19412  0.09361  0.98890  1.0000
  H   H149      1.0  0.38540  0.26711  0.23761  1.0000
  Fe  Fe14      1.0  0.38858  0.08991  0.26054  1.0000
  S   S26       1.0  0.38589  0.06996  0.28830  1.0000
  S   S27       1.0  0.42086  0.13382  0.25543  1.0000
  Fe  Fe15      1.0  0.38864  0.14379  0.43315  1.0000
  S   S28       1.0  0.35835  0.10385  0.41871  1.0000
  S   S29       1.0  0.37172  0.17464  0.44192  1.0000
  Fe  Fe16      1.0  0.43611  0.12619  0.43116  1.0000
  S   S30       1.0  0.40916  0.08547  0.41647  1.0000
  C   C86       1.0  0.46887  0.31766  0.27857  1.0000
  Fe  Fe17      1.0  0.39320  0.11099  0.39963  1.0000
  S   S31       1.0  0.39275  0.11842  0.36904  1.0000
  Fe  Fe18      1.0  0.37685  0.08189  0.43701  1.0000
  S   S32       1.0  0.34886  0.04084  0.45133  1.0000
  S   S33       1.0  0.42224  0.15204  0.41353  1.0000
  S   S34       1.0  0.40505  0.12147  0.45237  1.0000
  Fe  Fe19      1.0  0.40255  0.35417  0.26382  1.0000
  S   S35       1.0  0.41027  0.35685  0.29473  1.0000
  S   S36       1.0  0.44538  0.36705  0.25271  1.0000
  Fe  Fe20      1.0  0.41391  0.33903  0.42974  1.0000
  S   S37       1.0  0.36810  0.32728  0.42542  1.0000
  S   S38       1.0  0.43200  0.30719  0.43084  1.0000
  Fe  Fe21      1.0  0.43010  0.40116  0.42335  1.0000
  S   S39       1.0  0.38497  0.39232  0.41800  1.0000
  S   S40       1.0  0.46015  0.44705  0.41995  1.0000
  Fe  Fe22      1.0  0.37642  0.36593  0.44273  1.0000
  S   S41       1.0  0.34520  0.36536  0.46419  1.0000
  Fe  Fe23      1.0  0.38165  0.35515  0.40132  1.0000
  S   S42       1.0  0.35929  0.33903  0.37357  1.0000
  S   S43       1.0  0.42185  0.37595  0.44856  1.0000
  S   S44       1.0  0.42713  0.36587  0.40524  1.0000
  C   C87       1.0  0.43228  0.30102  0.31099  1.0000
  H   H150      1.0  0.41367  0.30776  0.27870  1.0000
  C   C88       1.0  0.35289  0.13317  0.48005  1.0000
  H   H151      1.0  0.47541  0.33350  0.28972  1.0000
  H   H152      1.0  0.26917  0.47046  0.47799  1.0000
  C   C89       1.0  0.39536  0.35172  0.31644  1.0000
  C   C90       1.0  0.41352  0.36035  0.33185  1.0000
  C   C91       1.0  0.40293  0.35701  0.34936  1.0000
  C   C92       1.0  0.37393  0.34452  0.35175  1.0000
  C   C93       1.0  0.35579  0.33541  0.33634  1.0000
  C   C94       1.0  0.36638  0.33912  0.31881  1.0000
  H   H153      1.0  0.43597  0.36993  0.33028  1.0000
  H   H154      1.0  0.41720  0.36405  0.36102  1.0000
  H   H155      1.0  0.33332  0.32568  0.33797  1.0000
  H   H156      1.0  0.35206  0.33226  0.30717  1.0000
  C   C95       1.0  0.38896  0.21152  0.43901  1.0000
  C   C96       1.0  0.41578  0.22483  0.43208  1.0000
  C   C97       1.0  0.42866  0.25411  0.42987  1.0000
  C   C98       1.0  0.41481  0.27044  0.43432  1.0000
  C   C99       1.0  0.38791  0.25713  0.44119  1.0000
  C   C100      1.0  0.37516  0.22786  0.44361  1.0000
  H   H157      1.0  0.42674  0.21261  0.42855  1.0000
  H   H158      1.0  0.44953  0.26418  0.42466  1.0000
  H   H159      1.0  0.37709  0.26943  0.44483  1.0000
  H   H160      1.0  0.35445  0.21784  0.44905  1.0000
  C   C101      1.0  0.34552  0.02874  0.47402  1.0000
  H   H161      1.0  0.00776  0.34103  0.48334  1.0000
  H   H162      1.0  0.42800  0.05493  0.35443  1.0000
  S   S45       1.0  0.35353  0.09417  0.24511  1.0000
  H   H163      1.0  0.45668  0.32263  0.26809  1.0000
  H   H164      1.0  0.43764  0.32273  0.30671  1.0000
  H   H165      1.0  0.47650  0.31098  0.31799  1.0000
  H   H166      1.0  0.40789  0.21114  0.28977  1.0000
  C   C102      1.0  0.38800  0.08394  0.31066  1.0000
  C   C103      1.0  0.39284  0.11168  0.31408  1.0000
  C   C104      1.0  0.39416  0.12170  0.33197  1.0000
  C   C105      1.0  0.39063  0.10425  0.34676  1.0000
  C   C106      1.0  0.38601  0.07657  0.34337  1.0000
  C   C107      1.0  0.38480  0.06658  0.32547  1.0000
  H   H167      1.0  0.39535  0.12536  0.30292  1.0000
  H   H168      1.0  0.39774  0.14313  0.33435  1.0000
  H   H169      1.0  0.38287  0.06272  0.35449  1.0000
  H   H170      1.0  0.38089  0.04505  0.32305  1.0000
  C   C108      1.0  0.40549  0.28542  0.28242  1.0000
  H   H171      1.0  0.36290  0.20339  0.36678  1.0000
  N   N7        1.0  0.42614  0.28135  0.29491  1.0000
  H   H172      1.0  0.43068  0.24814  0.30904  1.0000
  C   C109      1.0  0.34716  0.38440  0.48478  1.0000
  H   H173      1.0  0.45805  0.09110  0.34012  1.0000
  H   H174      1.0  0.45350  0.08647  0.39071  1.0000
  H   H175      1.0  0.41326  0.29505  0.31907  1.0000
  C   C110      1.0  0.47062  0.14996  0.37944  1.0000
  H   H176      1.0  0.06871  0.38629  0.48650  1.0000
  H   H177      1.0  0.48020  0.14041  0.32626  1.0000
  H   H178      1.0  0.35824  0.21657  0.24286  1.0000
  H   H179      1.0  0.39109  0.41274  0.48420  1.0000
  C   C111      1.0  0.45246  0.28737  0.28492  1.0000
  H   H180      1.0  0.00419  0.47547  0.43295  1.0000
  H   H181      1.0  0.25377  0.43840  0.46511  1.0000
  C   C112      1.0  0.41459  0.43858  0.28022  1.0000
  H   H182      1.0  0.28114  0.09743  0.47623  1.0000
  H   H183      1.0  0.30453  0.08019  0.45181  1.0000
  H   H184      1.0  0.36868  0.18791  0.38668  1.0000
  N   N8        1.0  0.36812  0.25367  0.38480  1.0000
  C   C113      1.0  0.39913  0.27163  0.38249  1.0000
  C   C114      1.0  0.36490  0.22620  0.39229  1.0000
  C   C115      1.0  0.35816  0.26878  0.39807  1.0000
  C   C116      1.0  0.35330  0.25018  0.36669  1.0000
  C   C117      1.0  0.40751  0.30169  0.37605  1.0000
  C   C118      1.0  0.37404  0.20827  0.38013  1.0000
  C   C119      1.0  0.33155  0.25090  0.40840  1.0000
  C   C120      1.0  0.32174  0.22984  0.36531  1.0000
  H   H185      1.0  0.41117  0.27355  0.39539  1.0000
  H   H186      1.0  0.40766  0.26196  0.37255  1.0000
  H   H187      1.0  0.34301  0.21239  0.39579  1.0000
  H   H188      1.0  0.37713  0.23009  0.40525  1.0000
  H   H189      1.0  0.37479  0.27999  0.40869  1.0000
  H   H190      1.0  0.35422  0.28536  0.39133  1.0000
  H   H191      1.0  0.35475  0.27070  0.36225  1.0000
  H   H192      1.0  0.36401  0.24422  0.35597  1.0000
  H   H193      1.0  0.43077  0.31353  0.37656  1.0000
  H   H194      1.0  0.40024  0.30181  0.36194  1.0000
  H   H195      1.0  0.39966  0.31341  0.38482  1.0000
  H   H196      1.0  0.36511  0.25466  0.29302  1.0000
  H   H197      1.0  0.39708  0.21808  0.37860  1.0000
  H   H198      1.0  0.45093  0.28201  0.33022  1.0000
  H   H199      1.0  0.32534  0.26512  0.41613  1.0000
  H   H200      1.0  0.33566  0.23774  0.41842  1.0000
  H   H201      1.0  0.31342  0.23761  0.39948  1.0000
  H   H202      1.0  0.30891  0.24090  0.36868  1.0000
  H   H203      1.0  0.31569  0.21121  0.37370  1.0000
  H   H204      1.0  0.31603  0.22129  0.35129  1.0000
  H   H205      1.0  0.42913  0.42876  0.31576  1.0000
  H   H206      1.0  0.41387  0.45132  0.26866  1.0000
  Fe  Fe24      1.0  0.38663  0.13722  0.23866  1.0000
  H   H207      1.0  0.45090  0.13775  0.38635  1.0000
  S   S46       1.0  0.38227  0.31627  0.24513  1.0000
  H   H208      1.0  0.37679  0.29035  0.30157  1.0000
  H   H209      1.0  0.28680  0.09989  0.44407  1.0000
  H   H210      1.0  0.41471  0.44963  0.29297  1.0000
  H   H211      1.0  0.35831  0.12728  0.46687  1.0000
  C   C121      1.0  0.37605  0.27712  0.28974  1.0000
  C   C122      1.0  0.30498  0.10120  0.45247  1.0000
  H   H212      1.0  0.39489  0.41864  0.27932  1.0000
  C   C123      1.0  0.26691  0.44875  0.47738  1.0000
  H   H213      1.0  0.36287  0.28068  0.27918  1.0000
  H   H214      1.0  0.00155  0.44257  0.42492  1.0000
  C   C124      1.0  0.30274  0.11088  0.47177  1.0000
  H   H215      1.0  0.40965  0.23500  0.27285  1.0000
  H   H216      1.0  0.35270  0.15375  0.47785  1.0000
  H   H217      1.0  0.45775  0.31726  0.33559  1.0000
  C   C125      1.0  0.98984  0.45279  0.43150  1.0000
  H   H218      1.0  0.48249  0.16940  0.38775  1.0000
  H   H219      1.0  0.37877  0.21838  0.28601  1.0000
  C   C126      1.0  0.41430  0.25165  0.30134  1.0000
  H   H220      1.0  0.44764  0.27387  0.27254  1.0000
  C   C127      1.0  0.37987  0.22478  0.23901  1.0000
  C   C128      1.0  0.32453  0.00173  0.47771  1.0000
  C   C129      1.0  0.46691  0.11114  0.34809  1.0000
  H   H221      1.0  0.46718  0.28202  0.29311  1.0000
  H   H222      1.0  0.48102  0.02375  0.47834  1.0000
  H   H223      1.0  0.45719  0.44338  0.33217  1.0000
  H   H224      1.0  0.44104  0.42605  0.26489  1.0000
  H   H225      1.0  0.44912  0.11685  0.34806  1.0000
  C   C130      1.0  0.44001  0.43198  0.27915  1.0000
  H   H226      1.0  0.43267  0.09483  0.37506  1.0000
  H   H227      1.0  0.33423  0.07929  0.47374  1.0000
  H   H228      1.0  0.46586  0.15632  0.36611  1.0000
  H   H229      1.0  0.46101  0.47713  0.30848  1.0000
  H   H230      1.0  0.28756  0.44885  0.47554  1.0000
  N   N9        1.0  0.46784  0.45510  0.28571  1.0000
  H   H231      1.0  0.43473  0.41254  0.28655  1.0000
  H   H232      1.0  0.46387  0.08604  0.42377  1.0000
  H   H233      1.0  0.46918  0.47648  0.26080  1.0000
  H   H234      1.0  0.99574  0.41720  0.46719  1.0000
  H   H235      1.0  0.40271  0.27380  0.26950  1.0000
  C   C131      1.0  0.40209  0.22827  0.28646  1.0000
  H   H236      1.0  0.28152  0.05422  0.47737  1.0000
  H   H237      1.0  0.44820  0.04573  0.37089  1.0000
  S   S47       1.0  0.39233  0.38092  0.24422  1.0000
  H   H238      1.0  0.32405  0.11661  0.44604  1.0000
  H   H239      1.0  0.41543  0.04487  0.37640  1.0000
  C   C132      1.0  0.46893  0.46132  0.30569  1.0000
  H   H240      1.0  0.39737  0.24784  0.31095  1.0000
  C   C133      1.0  0.43476  0.05658  0.36881  1.0000
  C   C134      1.0  0.45578  0.30259  0.32427  1.0000
  C   C135      1.0  0.44907  0.08725  0.37605  1.0000
  H   H241      1.0  0.45698  0.41840  0.31592  1.0000
  H   H242      1.0  0.47448  0.48038  0.46257  1.0000
  C   C136      1.0  0.45213  0.43637  0.31782  1.0000
  C   C137      1.0  0.47225  0.48111  0.27558  1.0000
  H   H243      1.0  0.47012  0.02171  0.45493  1.0000
  H   H244      1.0  0.03667  0.39035  0.48338  1.0000
  H   H245      1.0  0.45633  0.48842  0.27914  1.0000
  H   H246      1.0  0.30387  0.13215  0.47042  1.0000
  H   H247      1.0  0.37898  0.06597  0.48596  1.0000
  S   S48       1.0  0.37155  0.17081  0.24110  1.0000
  H   H248      1.0  0.47006  0.40221  0.28745  1.0000
  N   N10       1.0  0.47539  0.10684  0.36691  1.0000
  H   H249      1.0  0.37737  0.99482  0.48594  1.0000
  H   H250      1.0  0.98421  0.44311  0.44482  1.0000
  N   N11       1.0  0.32454  0.11144  0.48541  1.0000
  C   C138      1.0  0.32514  0.08341  0.48610  1.0000
  S   S49       1.0  0.48250  0.14258  0.43816  1.0000
  N   N12       1.0  0.26656  0.44395  0.51195  1.0000
  Fe  Fe25      1.0  0.28059  0.45957  0.57276  1.0000
  S   S50       1.0  0.28011  0.41696  0.57209  1.0000
  C   C139      1.0  0.39867  0.48860  0.72748  1.0000
  H   H251      1.0  0.28723  0.05952  0.50161  1.0000
  S   S51       1.0  0.34415  0.44762  0.58910  1.0000
  Fe  Fe26      1.0  0.32398  0.43886  0.56107  1.0000
  S   S52       1.0  0.34987  0.43280  0.53817  1.0000
  Fe  Fe27      1.0  0.30088  0.42989  0.60015  1.0000
  S   S53       1.0  0.28688  0.40248  0.62503  1.0000
  H   H252      1.0  0.99549  0.35938  0.49775  1.0000
  S   S54       1.0  0.29901  0.47109  0.60100  1.0000
  C   C140      1.0  0.22199  0.46097  0.69187  1.0000
  S   S55       1.0  0.32121  0.44304  0.70769  1.0000
  H   H253      1.0  0.37165  0.04828  0.51718  1.0000
  H   H254      1.0  0.29531  0.10392  0.50674  1.0000
  S   S56       1.0  0.02954  0.45710  0.56792  1.0000
  Fe  Fe28      1.0  0.08625  0.43297  0.55449  1.0000
  S   S57       1.0  0.04638  0.40535  0.56805  1.0000
  S   S58       1.0  0.11509  0.41256  0.54840  1.0000
  Fe  Fe29      1.0  0.02453  0.42206  0.54820  1.0000
  H   H255      1.0  0.42575  0.46056  0.57202  1.0000
  Fe  Fe30      1.0  0.05519  0.44271  0.58645  1.0000
  S   S59       1.0  0.06548  0.44441  0.61719  1.0000
  S   S60       1.0  0.06397  0.44710  0.53372  1.0000
  S   S61       1.0  0.09588  0.46963  0.57319  1.0000
  S   S62       1.0  0.09431  0.46261  0.72807  1.0000
  S   S63       1.0  0.02462  0.42458  0.69885  1.0000
  H   H256      1.0  0.30006  0.03875  0.48961  1.0000
  C   C141      1.0  0.05342  0.43888  0.63976  1.0000
  C   C142      1.0  0.02513  0.42930  0.64379  1.0000
  C   C143      1.0  0.01678  0.42505  0.66187  1.0000
  C   C144      1.0  0.03647  0.43012  0.67624  1.0000
  C   C145      1.0  0.06480  0.43991  0.67223  1.0000
  C   C146      1.0  0.07315  0.44431  0.65417  1.0000
  H   H257      1.0  0.41245  0.01487  0.54473  1.0000
  H   H258      1.0  0.99482  0.41754  0.66472  1.0000
  H   H259      1.0  0.08028  0.44406  0.68305  1.0000
  N   N13       1.0  0.02625  0.34834  0.51056  1.0000
  H   H260      1.0  0.40403  0.47080  0.67742  1.0000
  H   H261      1.0  0.18708  0.48836  0.59544  1.0000
  H   H262      1.0  0.01135  0.42387  0.49946  1.0000
  H   H263      1.0  0.14474  0.45839  0.65077  1.0000
  C   C147      1.0  0.21076  0.45599  0.56031  1.0000
  C   C148      1.0  0.19608  0.42671  0.55937  1.0000
  C   C149      1.0  0.16680  0.41363  0.55563  1.0000
  C   C150      1.0  0.15189  0.42965  0.55314  1.0000
  C   C151      1.0  0.16656  0.45886  0.55435  1.0000
  C   C152      1.0  0.19583  0.47191  0.55774  1.0000
  H   H264      1.0  0.20730  0.41417  0.56127  1.0000
  H   H265      1.0  0.15562  0.39099  0.55472  1.0000
  H   H266      1.0  0.15543  0.47146  0.55230  1.0000
  H   H267      1.0  0.16710  0.48087  0.62639  1.0000
  C   C153      1.0  0.29701  0.41388  0.64796  1.0000
  C   C154      1.0  0.28649  0.39443  0.66181  1.0000
  C   C155      1.0  0.29380  0.40273  0.68013  1.0000
  C   C156      1.0  0.31181  0.43069  0.68485  1.0000
  C   C157      1.0  0.32225  0.45010  0.67099  1.0000
  C   C158      1.0  0.31492  0.44183  0.65272  1.0000
  H   H268      1.0  0.27266  0.37274  0.65832  1.0000
  H   H269      1.0  0.28553  0.38747  0.69055  1.0000
  H   H270      1.0  0.33595  0.47182  0.67434  1.0000
  H   H271      1.0  0.32319  0.45709  0.64229  1.0000
  C   C159      1.0  0.32307  0.39113  0.51102  1.0000
  C   C160      1.0  0.34795  0.41342  0.51772  1.0000
  C   C161      1.0  0.37240  0.42096  0.50781  1.0000
  H   H272      1.0  0.30416  0.38456  0.51849  1.0000
  H   H273      1.0  0.39187  0.43789  0.51277  1.0000
  C   C162      1.0  0.32101  0.47011  0.50841  1.0000
  H   H274      1.0  0.22106  0.46349  0.72188  1.0000
  S   S64       1.0  0.13637  0.41816  0.73759  1.0000
  C   C163      1.0  0.35839  0.03512  0.50620  1.0000
  C   C164      1.0  0.33729  0.00816  0.50991  1.0000
  H   H275      1.0  0.23045  0.42902  0.49344  1.0000
  C   C165      1.0  0.24231  0.43107  0.70604  1.0000
  C   C166      1.0  0.21477  0.40370  0.70439  1.0000
  H   H276      1.0  0.24363  0.43926  0.71995  1.0000
  H   H277      1.0  0.26000  0.42523  0.70554  1.0000
  H   H278      1.0  0.24089  0.47034  0.65586  1.0000
  H   H279      1.0  0.29963  0.44029  0.52800  1.0000
  C   C167      1.0  0.04384  0.33449  0.50421  1.0000
  N   N14       1.0  0.24576  0.45275  0.69217  1.0000
  H   H280      1.0  0.04839  0.32843  0.54074  1.0000
  H   H281      1.0  0.23193  0.38467  0.53832  1.0000
  H   H282      1.0  0.37975  0.46856  0.69346  1.0000
  H   H283      1.0  0.23256  0.47160  0.49994  1.0000
  H   H284      1.0  0.13947  0.42529  0.65901  1.0000
  C   C168      1.0  0.12271  0.42744  0.59819  1.0000
  H   H285      1.0  0.39352  0.48308  0.56353  1.0000
  H   H286      1.0  0.30723  0.15325  0.49672  1.0000
  C   C169      1.0  0.03909  0.34295  0.54367  1.0000
  H   H287      1.0  0.28755  0.47355  0.72267  1.0000
  C   C170      1.0  0.42341  0.47686  0.58024  1.0000
  H   H288      1.0  0.32628  0.48735  0.51856  1.0000
  C   C171      1.0  0.29487  0.44358  0.51378  1.0000
  H   H289      1.0  0.25640  0.43524  0.53990  1.0000
  H   H290      1.0  0.22649  0.42377  0.52499  1.0000
  H   H291      1.0  0.28415  0.48835  0.50586  1.0000
  H   H292      1.0  0.01872  0.47411  0.72184  1.0000
  H   H293      1.0  0.37746  0.47620  0.72130  1.0000
  H   H294      1.0  0.10493  0.43227  0.60110  1.0000
  H   H295      1.0  0.00010  0.31805  0.52991  1.0000
  C   C172      1.0  0.32271  0.37689  0.49470  1.0000
  H   H296      1.0  0.01645  0.29306  0.51551  1.0000
  C   C173      1.0  0.36263  0.04525  0.48845  1.0000
  S   S65       1.0  0.24779  0.47397  0.56361  1.0000
  C   C174      1.0  0.29665  0.05785  0.48882  1.0000
  H   H297      1.0  0.10034  0.38356  0.60713  1.0000
  C   C175      1.0  0.24466  0.39523  0.52664  1.0000
  C   C176      1.0  0.01626  0.34009  0.52938  1.0000
  H   H298      1.0  0.41495  0.45857  0.71952  1.0000
  C   C177      1.0  0.24565  0.43972  0.67395  1.0000
  C   C178      1.0  0.19787  0.44956  0.61824  1.0000
  H   H299      1.0  0.33042  0.11487  0.51452  1.0000
  H   H300      1.0  0.29478  0.42551  0.50601  1.0000
  S   S66       1.0  0.32283  0.48069  0.56018  1.0000
  H   H301      1.0  0.31881  0.47766  0.49496  1.0000
  H   H302      1.0  0.04662  0.29498  0.50533  1.0000
  C   C179      1.0  0.31740  0.11832  0.50374  1.0000
  H   H303      1.0  0.41193  0.47042  0.53947  1.0000
  H   H304      1.0  0.23314  0.38282  0.51446  1.0000
  S   S67       1.0  0.33339  0.99659  0.53274  1.0000
  H   H305      1.0  0.22447  0.42276  0.67014  1.0000
  H   H306      1.0  0.44735  0.47864  0.54543  1.0000
  C   C180      1.0  0.25252  0.43191  0.49388  1.0000
  H   H307      1.0  0.29094  0.47371  0.69002  1.0000
  H   H308      1.0  0.09509  0.45196  0.65133  1.0000
  C   C181      1.0  0.37206  0.40665  0.49153  1.0000
  H   H309      1.0  0.09295  0.38906  0.58447  1.0000
  H   H310      1.0  0.05600  0.36461  0.54522  1.0000
  H   H311      1.0  0.13354  0.40398  0.62990  1.0000
  H   H312      1.0  0.11149  0.42115  0.63105  1.0000
  C   C182      1.0  0.13385  0.42504  0.62994  1.0000
  H   H313      1.0  0.98716  0.45972  0.70830  1.0000
  H   H314      1.0  0.16462  0.41225  0.60690  1.0000
  C   C183      1.0  0.39753  0.48391  0.68608  1.0000
  C   C184      1.0  0.28323  0.48884  0.71477  1.0000
  C   C185      1.0  0.17014  0.43501  0.60695  1.0000
  H   H315      1.0  0.31333  0.15034  0.52016  1.0000
  Fe  Fe31      1.0  0.04967  0.42990  0.72557  1.0000
  H   H316      1.0  0.25108  0.41062  0.49154  1.0000
  H   H317      1.0  0.19600  0.40763  0.70506  1.0000
  C   C186      1.0  0.00174  0.34209  0.49746  1.0000
  S   S68       1.0  0.98363  0.39356  0.53191  1.0000
  H   H318      1.0  0.21360  0.39138  0.69199  1.0000
  H   H319      1.0  0.37504  0.14454  0.50686  1.0000
  H   H320      1.0  0.26496  0.39423  0.52848  1.0000
  H   H321      1.0  0.02315  0.47647  0.68753  1.0000
  H   H322      1.0  0.25274  0.44727  0.64544  1.0000
  H   H323      1.0  0.13022  0.43689  0.58503  1.0000
  H   H324      1.0  0.12566  0.38883  0.58979  1.0000
  H   H325      1.0  0.03293  0.39055  0.51738  1.0000
  C   C187      1.0  0.14864  0.43993  0.64784  1.0000
  H   H326      1.0  0.34253  0.16444  0.50593  1.0000
  H   H327      1.0  0.33931  0.08325  0.49736  1.0000
  H   H328      1.0  0.40630  0.46572  0.58963  1.0000
  N   N15       1.0  0.14563  0.43988  0.61271  1.0000
  H   H329      1.0  0.25982  0.42941  0.67430  1.0000
  C   C188      1.0  0.11006  0.39536  0.59499  1.0000
  C   C189      1.0  0.37778  0.13806  0.49314  1.0000
  H   H330      1.0  0.17493  0.44065  0.59265  1.0000
  H   H331      1.0  0.19905  0.43553  0.62883  1.0000
  H   H332      1.0  0.21410  0.39032  0.71591  1.0000
  H   H333      1.0  0.00962  0.42505  0.63297  1.0000
  H   H334      1.0  0.02932  0.33733  0.55696  1.0000
  H   H335      1.0  0.18015  0.40146  0.73727  1.0000
  H   H336      1.0  0.06375  0.38557  0.51971  1.0000
  C   C190      1.0  0.04437  0.37969  0.51115  1.0000
  Fe  Fe32      1.0  0.34099  0.48822  0.58834  1.0000
  H   H337      1.0  0.38180  0.11933  0.49377  1.0000
  H   H338      1.0  0.06433  0.34251  0.51190  1.0000
  H   H339      1.0  0.42297  0.00405  0.51487  1.0000
  C   C191      1.0  0.25452  0.45973  0.65795  1.0000
  H   H340      1.0  0.00556  0.35262  0.53427  1.0000
  C   C192      1.0  0.24814  0.42564  0.52630  1.0000
  H   H341      1.0  0.21578  0.45455  0.60926  1.0000
  C   C193      1.0  0.32041  0.14835  0.50652  1.0000
  C   C194      1.0  0.43357  0.48802  0.54037  1.0000
  H   H342      1.0  0.20203  0.44349  0.68655  1.0000
  C   C195      1.0  0.99036  0.40844  0.49550  1.0000
  H   H343      1.0  0.17141  0.44621  0.64831  1.0000
  Fe  Fe33      1.0  0.06984  0.48131  0.55390  1.0000
  H   H344      1.0  0.13345  0.47319  0.61731  1.0000
  C   C196      1.0  0.02999  0.30219  0.50400  1.0000
  H   H345      1.0  0.27921  0.48109  0.52900  1.0000
  C   C197      1.0  0.00565  0.47967  0.71236  1.0000
  C   C198      1.0  0.40337  0.99243  0.54040  1.0000
  H   H346      1.0  0.30334  0.35963  0.48978  1.0000
  C   C199      1.0  0.15277  0.47061  0.61463  1.0000
  C   C200      1.0  0.26960  0.47324  0.51529  1.0000
  H   H347      1.0  0.44258  0.48882  0.58883  1.0000
  H   H348      1.0  0.05015  0.34032  0.49015  1.0000
  H   H349      1.0  0.20151  0.46990  0.62442  1.0000
  C   C201      1.0  0.41053  0.46759  0.73184  1.0000
  H   H350      1.0  0.33934  0.46532  0.50818  1.0000
  H   H351      1.0  0.01768  0.29341  0.49121  1.0000
  C   C202      1.0  0.21571  0.47190  0.70968  1.0000
  C   C203      1.0  0.27379  0.47813  0.69519  1.0000
  C   C204      1.0  0.24238  0.47686  0.51368  1.0000
  H   H352      1.0  0.22689  0.46476  0.52370  1.0000
  H   H353      1.0  0.38853  0.00096  0.51534  1.0000
  H   H354      1.0  0.19274  0.46521  0.71029  1.0000
  H   H355      1.0  0.27685  0.47549  0.65934  1.0000
  C   C205      1.0  0.05437  0.39349  0.49286  1.0000
  H   H356      1.0  0.22596  0.47784  0.68208  1.0000
  H   H357      1.0  0.45115  0.48402  0.51503  1.0000
  H   H358      1.0  0.06651  0.41651  0.49523  1.0000
  C   C206      1.0  0.32048  0.99147  0.49545  1.0000
  C   C207      1.0  0.40163  0.99045  0.51965  1.0000
  H   H359      1.0  0.06467  0.48707  0.70333  1.0000
  H   H360      1.0  0.15304  0.48269  0.58620  1.0000
  H   H361      1.0  0.39706  0.15533  0.48801  1.0000
  C   C208      1.0  0.16694  0.48876  0.59844  1.0000
  C   C209      1.0  0.20666  0.46868  0.76741  1.0000
  H   H362      1.0  0.19804  0.02799  0.82660  1.0000
  Fe  Fe34      1.0  0.21078  0.03333  0.88626  1.0000
  S   S69       1.0  0.24431  0.02542  0.90089  1.0000
  S   S70       1.0  0.21616  0.07410  0.87323  1.0000
  C   C210      1.0  0.32881  0.33007  0.91148  1.0000
  C   C211      1.0  0.32175  0.38155  0.93600  1.0000
  H   H363      1.0  0.27028  0.07006  0.86874  1.0000
  S   S71       1.0  0.32664  0.47492  0.75171  1.0000
  S   S72       1.0  0.17684  0.00761  0.90488  1.0000
  C   C212      1.0  0.24554  0.00897  0.97596  1.0000
  Fe  Fe35      1.0  0.35026  0.46217  0.77200  1.0000
  S   S73       1.0  0.33939  0.42066  0.75791  1.0000
  Fe  Fe36      1.0  0.28890  0.45268  0.76831  1.0000
  S   S74       1.0  0.27492  0.41154  0.75357  1.0000
  C   C213      1.0  0.01364  0.33446  0.83479  1.0000
  Fe  Fe37      1.0  0.30100  0.40313  0.77531  1.0000
  S   S75       1.0  0.28070  0.36078  0.78997  1.0000
  S   S76       1.0  0.31364  0.44394  0.79041  1.0000
  Fe  Fe38      1.0  0.23525  0.28076  0.88948  1.0000
  S   S77       1.0  0.20872  0.23517  0.88132  1.0000
  S   S78       1.0  0.26023  0.31996  0.87236  1.0000
  Fe  Fe39      1.0  0.22082  0.26876  0.93026  1.0000
  S   S79       1.0  0.19275  0.22333  0.92438  1.0000
  S   S80       1.0  0.22853  0.29042  0.95832  1.0000
  Fe  Fe40      1.0  0.22640  0.22411  0.90636  1.0000
  S   S81       1.0  0.24042  0.19019  0.91274  1.0000
  Fe  Fe41      1.0  0.17707  0.23752  0.90006  1.0000
  S   S82       1.0  0.13098  0.21526  0.89142  1.0000
  S   S83       1.0  0.25557  0.26938  0.91334  1.0000
  S   S84       1.0  0.20240  0.28328  0.90709  1.0000
  H   H364      1.0  0.42945  0.47705  0.74097  1.0000
  H   H365      1.0  0.04074  0.30955  0.96806  1.0000
  S   S85       1.0  0.25884  0.47123  0.77418  1.0000
  Fe  Fe42      1.0  0.08196  0.47489  0.75424  1.0000
  S   S86       1.0  0.03661  0.44346  0.75137  1.0000
  Fe  Fe43      1.0  0.04947  0.41338  0.76612  1.0000
  S   S87       1.0  0.02886  0.38547  0.79060  1.0000
  S   S88       1.0  0.09433  0.44618  0.77055  1.0000
  H   H366      1.0  0.02604  0.48948  0.82850  1.0000
  S   S89       1.0  0.99638  0.29572  0.90864  1.0000
  S   S90       1.0  0.05378  0.27337  0.91229  1.0000
  C   C214      1.0  0.01282  0.36391  0.80952  1.0000
  H   H367      1.0  0.99686  0.44688  0.83941  1.0000
  H   H368      1.0  0.28122  0.33887  0.96762  1.0000
  H   H369      1.0  0.26384  0.44170  0.82849  1.0000
  H   H370      1.0  0.04672  0.35320  0.81566  1.0000
  C   C215      1.0  0.10938  0.23123  0.89732  1.0000
  C   C216      1.0  0.08136  0.21971  0.89073  1.0000
  C   C217      1.0  0.06389  0.23232  0.89515  1.0000
  C   C218      1.0  0.07442  0.25646  0.90625  1.0000
  C   C219      1.0  0.10227  0.26769  0.91301  1.0000
  C   C220      1.0  0.11970  0.25517  0.90855  1.0000
  H   H371      1.0  0.07324  0.20115  0.88206  1.0000
  H   H372      1.0  0.04242  0.22350  0.88992  1.0000
  H   H373      1.0  0.11052  0.28635  0.92160  1.0000
  H   H374      1.0  0.14114  0.26408  0.91380  1.0000
  C   C221      1.0  0.22465  0.45632  0.76416  1.0000
  H   H375      1.0  0.15174  0.40300  0.79108  1.0000
  C   C222      1.0  0.17924  0.45701  0.75964  1.0000
  C   C223      1.0  0.16974  0.43288  0.74859  1.0000
  H   H376      1.0  0.26015  0.01528  0.96517  1.0000
  C   C224      1.0  0.21488  0.43198  0.75334  1.0000
  H   H377      1.0  0.09356  0.44210  0.82922  1.0000
  H   H378      1.0  0.98736  0.30887  0.96337  1.0000
  N   N16       1.0  0.02919  0.25041  0.96865  1.0000
  H   H379      1.0  0.00608  0.46272  0.78533  1.0000
  C   C225      1.0  0.27488  0.35011  0.81303  1.0000
  C   C226      1.0  0.28528  0.36910  0.82773  1.0000
  C   C227      1.0  0.28041  0.35949  0.84562  1.0000
  C   C228      1.0  0.26479  0.33077  0.84927  1.0000
  C   C229      1.0  0.25394  0.31185  0.83456  1.0000
  C   C230      1.0  0.25909  0.32143  0.81668  1.0000
  H   H380      1.0  0.29753  0.39118  0.82533  1.0000
  H   H381      1.0  0.28904  0.37446  0.85674  1.0000
  H   H382      1.0  0.24197  0.28974  0.83695  1.0000
  H   H383      1.0  0.25086  0.30640  0.80555  1.0000
  H   H384      1.0  0.21732  0.36646  0.76214  1.0000
  H   H385      1.0  0.09167  0.24248  0.96987  1.0000
  C   C231      1.0  0.25053  0.08931  0.98087  1.0000
  H   H386      1.0  0.21936  0.23481  0.97105  1.0000
  S   S91       1.0  0.39639  0.48900  0.78068  1.0000
  C   C232      1.0  0.22203  0.10586  0.88460  1.0000
  C   C233      1.0  0.22471  0.10888  0.90336  1.0000
  C   C234      1.0  0.22994  0.13473  0.91176  1.0000
  C   C235      1.0  0.23202  0.15764  0.90157  1.0000
  C   C236      1.0  0.22912  0.15454  0.88281  1.0000
  C   C237      1.0  0.22426  0.12881  0.87439  1.0000
  H   H387      1.0  0.22318  0.09147  0.91138  1.0000
  H   H388      1.0  0.23257  0.13706  0.92627  1.0000
  H   H389      1.0  0.23145  0.17223  0.87481  1.0000
  H   H390      1.0  0.22255  0.12678  0.85986  1.0000
  H   H391      1.0  0.31459  0.04570  0.81611  1.0000
  H   H392      1.0  0.20758  0.05836  0.98114  1.0000
  H   H393      1.0  0.18918  0.37445  0.76706  1.0000
  H   H394      1.0  0.23686  0.44615  0.81614  1.0000
  H   H395      1.0  0.21358  0.33633  0.80520  1.0000
  H   H396      1.0  0.02014  0.25866  0.94144  1.0000
  C   C238      1.0  0.02632  0.35073  0.81958  1.0000
  C   C239      1.0  0.22385  0.24883  0.98263  1.0000
  C   C240      1.0  0.20223  0.33930  0.81669  1.0000
  H   H397      1.0  0.11154  0.08775  0.87575  1.0000
  S   S92       1.0  0.05802  0.39700  0.73996  1.0000
  C   C241      1.0  0.05912  0.25607  0.96524  1.0000
  H   H398      1.0  0.36484  0.41166  0.94241  1.0000
  C   C242      1.0  0.00182  0.44871  0.79697  1.0000
  C   C243      1.0  0.02111  0.26700  0.95532  1.0000
  H   H399      1.0  0.33273  0.32806  0.89704  1.0000
  C   C244      1.0  0.26509  0.36420  0.91690  1.0000
  H   H400      1.0  0.25775  0.32494  0.92869  1.0000
  C   C245      1.0  0.98650  0.36051  0.81502  1.0000
  H   H401      1.0  0.32001  0.39536  0.92541  1.0000
  C   C246      1.0  0.02863  0.44687  0.80372  1.0000
  H   H402      1.0  0.25411  0.07839  0.96909  1.0000
  H   H403      1.0  0.06213  0.30358  0.95142  1.0000
  H   H404      1.0  0.26868  0.02369  0.84460  1.0000
  H   H405      1.0  0.35767  0.37686  0.94849  1.0000
  H   H406      1.0  0.30260  0.32243  0.97387  1.0000
  H   H407      1.0  0.13162  0.06541  0.85651  1.0000
  H   H408      1.0  0.24626  0.10649  0.97557  1.0000
  H   H409      1.0  0.99219  0.45573  0.80772  1.0000
  C   C247      1.0  0.24839  0.43318  0.81698  1.0000
  C   C248      1.0  0.14504  0.08775  0.86039  1.0000
  H   H410      1.0  0.02224  0.43291  0.84016  1.0000
  H   H411      1.0  0.28907  0.30994  0.94244  1.0000
  H   H412      1.0  0.21868  0.00979  0.82300  1.0000
  C   C249      1.0  0.35321  0.38925  0.93809  1.0000
  H   H413      1.0  0.15657  0.37374  0.78336  1.0000
  C   C250      1.0  0.30496  0.33196  0.94545  1.0000
  H   H414      1.0  0.06840  0.44531  0.84306  1.0000
  C   C251      1.0  0.01928  0.45200  0.84218  1.0000
  C   C252      1.0  0.07613  0.46859  0.81790  1.0000
  C   C253      1.0  0.06870  0.23410  0.97162  1.0000
  H   H415      1.0  0.17724  0.36014  0.82431  1.0000
  N   N17       1.0  0.20683  0.38691  0.80537  1.0000
  C   C254      1.0  0.22895  0.40192  0.82005  1.0000
  C   C255      1.0  0.19041  0.40366  0.80212  1.0000
  C   C256      1.0  0.22174  0.38544  0.78871  1.0000
  H   H416      1.0  0.26062  0.43604  0.80475  1.0000
  H   H417      1.0  0.36176  0.38692  0.92510  1.0000
  C   C257      1.0  0.20341  0.36647  0.77301  1.0000
  H   H418      1.0  0.21902  0.40074  0.83323  1.0000
  H   H419      1.0  0.24318  0.39179  0.82199  1.0000
  H   H420      1.0  0.18921  0.41438  0.81482  1.0000
  H   H421      1.0  0.20137  0.42087  0.79266  1.0000
  H   H422      1.0  0.23359  0.40662  0.78316  1.0000
  H   H423      1.0  0.23785  0.37813  0.79211  1.0000
  H   H424      1.0  0.02159  0.42745  0.81145  1.0000
  H   H425      1.0  0.01103  0.21390  0.95078  1.0000
  H   H426      1.0  0.15224  0.17042  0.84039  1.0000
  H   H427      1.0  0.18592  0.31818  0.82008  1.0000
  H   H428      1.0  0.34935  0.34264  0.91844  1.0000
  H   H429      1.0  0.31948  0.30852  0.91677  1.0000
  H   H430      1.0  0.02445  0.32473  0.84238  1.0000
  H   H431      1.0  0.32137  0.05272  0.84018  1.0000
  S   S93       1.0  0.20235  0.99286  0.94936  1.0000
  N   N18       1.0  0.27174  0.05997  0.83001  1.0000
  C   C258      1.0  0.27629  0.03407  0.83161  1.0000
  C   C259      1.0  0.24193  0.05271  0.83461  1.0000
  C   C260      1.0  0.29119  0.08304  0.84283  1.0000
  C   C261      1.0  0.27750  0.07006  0.81101  1.0000
  C   C262      1.0  0.30675  0.03836  0.82965  1.0000
  H   H432      1.0  0.08570  0.46735  0.80498  1.0000
  C   C263      1.0  0.29081  0.07514  0.86279  1.0000
  C   C264      1.0  0.26958  0.09378  0.80597  1.0000
  H   H433      1.0  0.07415  0.27664  0.97142  1.0000
  H   H434      1.0  0.22045  0.03699  0.80790  1.0000
  H   H435      1.0  0.23829  0.07175  0.83526  1.0000
  H   H436      1.0  0.23772  0.04425  0.84834  1.0000
  H   H437      1.0  0.31329  0.09165  0.83854  1.0000
  H   H438      1.0  0.28596  0.10110  0.84269  1.0000
  H   H439      1.0  0.30021  0.07803  0.80836  1.0000
  H   H440      1.0  0.26651  0.05243  0.80107  1.0000
  C   C265      1.0  0.30820  0.34324  0.91284  1.0000
  H   H441      1.0  0.00351  0.27193  0.82000  1.0000
  C   C266      1.0  0.98723  0.33116  0.84022  1.0000
  H   H442      1.0  0.22829  0.42210  0.75084  1.0000
  H   H443      1.0  0.26363  0.01814  0.82104  1.0000
  Fe  Fe44      1.0  0.10221  0.43105  0.74400  1.0000
  H   H444      1.0  0.99973  0.26470  0.95751  1.0000
  H   H445      1.0  0.30664  0.09350  0.87064  1.0000
  H   H446      1.0  0.29634  0.05758  0.86490  1.0000
  H   H447      1.0  0.24661  0.08686  0.80613  1.0000
  H   H448      1.0  0.99121  0.24146  0.83336  1.0000
  H   H449      1.0  0.28054  0.11268  0.81482  1.0000
  N   N19       1.0  0.14122  0.13135  0.87305  1.0000
  C   C267      1.0  0.15307  0.13064  0.89163  1.0000
  C   C268      1.0  0.12611  0.10161  0.86570  1.0000
  C   C269      1.0  0.12085  0.14394  0.87354  1.0000
  C   C270      1.0  0.16501  0.14922  0.86140  1.0000
  C   C271      1.0  0.16551  0.15849  0.90263  1.0000
  C   C272      1.0  0.30168  0.33894  0.96522  1.0000
  C   C273      1.0  0.09620  0.12995  0.88619  1.0000
  C   C274      1.0  0.15689  0.15209  0.84167  1.0000
  H   H450      1.0  0.13697  0.11463  0.89996  1.0000
  H   H451      1.0  0.17014  0.12400  0.89088  1.0000
  H   H452      1.0  0.11221  0.09996  0.85382  1.0000
  H   H453      1.0  0.13194  0.16665  0.87723  1.0000
  H   H454      1.0  0.11131  0.14318  0.85990  1.0000
  H   H455      1.0  0.17594  0.17105  0.86699  1.0000
  H   H456      1.0  0.30722  0.01783  0.83121  1.0000
  H   H457      1.0  0.14973  0.16618  0.90546  1.0000
  H   H458      1.0  0.17369  0.15519  0.91587  1.0000
  H   H459      1.0  0.18355  0.17504  0.89606  1.0000
  H   H460      1.0  0.24203  0.35716  0.91672  1.0000
  Fe  Fe45      1.0  0.20941  0.99729  0.91875  1.0000
  H   H461      1.0  0.10336  0.13085  0.90043  1.0000
  H   H462      1.0  0.08236  0.10794  0.88193  1.0000
  H   H463      1.0  0.08324  0.14159  0.88565  1.0000
  H   H464      1.0  0.03843  0.44278  0.79170  1.0000
  H   H465      1.0  0.01529  0.20586  0.97322  1.0000
  H   H466      1.0  0.15761  0.09773  0.84857  1.0000
  H   H467      1.0  0.06297  0.25786  0.95050  1.0000
  C   C275      1.0  0.03862  0.47783  0.83145  1.0000
  H   H468      1.0  0.03218  0.30823  0.94466  1.0000
  C   C276      1.0  0.18788  0.35820  0.81203  1.0000
  Fe  Fe46      1.0  0.00868  0.26097  0.90317  1.0000
  H   H469      1.0  0.31535  0.38820  0.94863  1.0000
  C   C277      1.0  0.21882  0.03065  0.82211  1.0000
  C   C278      1.0  0.07312  0.44310  0.82886  1.0000
  C   C279      1.0  0.15955  0.38759  0.79519  1.0000
  H   H470      1.0  0.15921  0.08794  0.87169  1.0000
  H   H471      1.0  0.27517  0.38697  0.92028  1.0000
  H   H472      1.0  0.32559  0.33147  0.94533  1.0000
  H   H473      1.0  0.21669  0.34730  0.82869  1.0000
  H   H474      1.0  0.28851  0.32747  0.90608  1.0000
  H   H475      1.0  0.27027  0.36062  0.90306  1.0000
  S   S94       1.0  0.98666  0.24900  0.87591  1.0000
  C   C280      1.0  0.04046  0.29884  0.95514  1.0000
  H   H476      1.0  0.27598  0.10015  0.79200  1.0000
  H   H477      1.0  0.26719  0.35343  0.94427  1.0000
  H   H478      1.0  0.02314  0.45742  0.85681  1.0000
  H   H479      1.0  0.31557  0.36152  0.90382  1.0000
  H   H480      1.0  0.31896  0.35918  0.97004  1.0000
  C   C281      1.0  0.18756  0.42031  0.74563  1.0000
  H   H481      1.0  0.13866  0.13325  0.83613  1.0000
  H   H482      1.0  0.17461  0.15506  0.83297  1.0000
  H   H483      1.0  0.16563  0.46687  0.76198  1.0000
  H   H484      1.0  0.14597  0.37503  0.80601  1.0000
  H   H485      1.0  0.17065  0.34609  0.80206  1.0000
  H   H486      1.0  0.18179  0.14221  0.86146  1.0000
  H   H487      1.0  0.19152  0.34434  0.77683  1.0000
  N   N20       1.0  0.30258  0.35123  0.93143  1.0000
  C   C282      1.0  0.27266  0.34745  0.93111  1.0000
  C   C283      1.0  0.22901  0.27671  0.98015  1.0000
  H   H488      1.0  0.98614  0.42755  0.79208  1.0000
  H   H489      1.0  0.05759  0.42287  0.82277  1.0000
  C   C284      1.0  0.21669  0.99815  0.97191  1.0000
  N   N21       1.0  0.04984  0.47216  0.81422  1.0000
  H   H490      1.0  0.05866  0.21459  0.96314  1.0000
  S   S95       1.0  0.19958  0.99724  0.86642  1.0000
  C   C285      1.0  0.00948  0.21986  0.96500  1.0000
  H   H491      1.0  0.21401  0.48746  0.77585  1.0000
  H   H492      1.0  0.98574  0.27156  0.83990  1.0000
  Fe  Fe47      1.0  0.31423  0.43299  0.73782  1.0000
  H   H493      1.0  0.39460  0.44987  0.73917  1.0000
  C   C286      1.0  0.98600  0.25823  0.82845  1.0000
  H   H494      1.0  0.09232  0.48710  0.82547  1.0000
  C   C287      1.0  0.19814  0.99000  0.98622  1.0000
  C   C288      1.0  0.02665  0.26025  0.98731  1.0000
  H   H495      1.0  0.06480  0.22907  0.98595  1.0000
  Fe  Fe48      1.0  0.01007  0.79548  0.09869  1.0000
  H   H496      1.0  0.00414  0.70653  0.12005  1.0000
  S   S96       1.0  0.05051  0.82771  0.11280  1.0000
  H   H497      1.0  0.06333  0.73441  0.15391  1.0000
  H   H498      1.0  0.03996  0.72829  0.11676  1.0000
  H   H499      1.0  0.07471  0.76274  0.16937  1.0000
  H   H500      1.0  0.99238  0.86783  0.13567  1.0000
  H   H501      1.0  0.05260  0.79872  0.14665  1.0000
  S   S97       1.0  0.13576  0.94324  0.07859  1.0000
  H   H502      1.0  0.09610  0.87059  0.00237  1.0000
  H   H503      1.0  0.02370  0.93045  0.10805  1.0000
  S   S98       1.0  0.22252  0.98064  0.08214  1.0000
  H   H504      1.0  0.04860  0.89033  0.12042  1.0000
  C   C289      1.0  0.07494  0.85907  0.10281  1.0000
  C   C290      1.0  0.07035  0.86623  0.08539  1.0000
  C   C291      1.0  0.08936  0.89190  0.07825  1.0000
  C   C292      1.0  0.11348  0.91063  0.08825  1.0000
  C   C293      1.0  0.11829  0.90327  0.10558  1.0000
  C   C294      1.0  0.09906  0.87771  0.11282  1.0000
  H   H505      1.0  0.05210  0.85209  0.07744  1.0000
  H   H506      1.0  0.08543  0.89731  0.06483  1.0000
  H   H507      1.0  0.13665  0.91744  0.11348  1.0000
  H   H508      1.0  0.10290  0.87247  0.12631  1.0000
  H   H509      1.0  0.01370  0.85369  0.10225  1.0000
  H   H510      1.0  0.09453  0.79698  0.14620  1.0000
  C   C295      1.0  0.01205  0.89165  0.08238  1.0000
  S   S99       1.0  0.99638  0.75163  0.03713  1.0000
  C   C296      1.0  0.06467  0.75564  0.15569  1.0000
  N   N22       1.0  0.03615  0.75537  0.15475  1.0000
  C   C297      1.0  0.04977  0.91050  0.11573  1.0000
  C   C298      1.0  0.08756  0.87808  0.99105  1.0000
  H   H511      1.0  0.02975  0.74740  0.18316  1.0000
  H   H512      1.0  0.10372  0.76923  0.14149  1.0000
  C   C299      1.0  0.00987  0.82200  0.99053  1.0000
  H   H513      1.0  0.01720  0.83123  0.02725  1.0000
  H   H514      1.0  0.99798  0.73814  0.13797  1.0000
  H   H515      1.0  0.00531  0.87531  0.05474  1.0000
  H   H516      1.0  0.07633  0.77176  0.12820  1.0000
  H   H517      1.0  0.01257  0.90937  0.12678  1.0000
  C   C300      1.0  0.01157  0.70689  0.16963  1.0000
  H   H518      1.0  0.02906  0.70655  0.13632  1.0000
  H   H519      1.0  0.00358  0.83559  0.99891  1.0000
  C   C301      1.0  0.05532  0.86269  0.98859  1.0000
  C   C302      1.0  0.04082  0.78529  0.15783  1.0000
  C   C303      1.0  0.02086  0.74475  0.13676  1.0000
  H   H520      1.0  0.05074  0.86226  0.02576  1.0000
  C   C304      1.0  0.02419  0.72030  0.12736  1.0000
  H   H521      1.0  0.00000  0.69743  0.18194  1.0000
  C   C305      1.0  0.08573  0.77451  0.14202  1.0000
  C   C306      1.0  0.01416  0.78977  0.15931  1.0000
  H   H522      1.0  0.07418  0.79848  0.99266  1.0000
  H   H523      1.0  0.04634  0.87427  0.99671  1.0000
  H   H524      1.0  0.02819  0.76211  0.12702  1.0000
  C   C307      1.0  0.01895  0.73832  0.16992  1.0000
  H   H525      1.0  0.05409  0.79465  0.17029  1.0000
  H   H526      1.0  0.02005  0.81250  0.15824  1.0000
  H   H527      1.0  0.00454  0.78329  0.17256  1.0000
  S   S100      1.0  0.99155  0.80206  0.07286  1.0000
  H   H528      1.0  0.19350  0.98598  0.01509  1.0000
  H   H529      1.0  0.03127  0.88834  0.08210  1.0000
  S   S101      1.0  0.00353  0.75217  0.09028  1.0000
  H   H530      1.0  0.06185  0.91651  0.10328  1.0000
  H   H531      1.0  0.03032  0.70291  0.16982  1.0000
  Fe  Fe49      1.0  0.17975  0.98068  0.08235  1.0000
  C   C308      1.0  0.02048  0.90967  0.11317  1.0000
  C   C309      1.0  0.04796  0.82494  0.01074  1.0000
  H   H532      1.0  0.06222  0.92675  0.12616  1.0000
  C   C310      1.0  0.04025  0.83908  0.02645  1.0000
  H   H533      1.0  0.01898  0.91395  0.07870  1.0000
  H   H534      1.0  0.99841  0.80059  0.99588  1.0000
  H   H535      1.0  0.09395  0.90052  0.99450  1.0000
  N   N23       1.0  0.04125  0.83168  0.99205  1.0000
  H   H536      1.0  0.01647  0.74832  0.00218  1.0000
  H   H537      1.0  0.07050  0.83036  0.01287  1.0000
  C   C311      1.0  0.99585  0.74741  0.00012  1.0000
  H   H538      1.0  0.04753  0.83357  0.03932  1.0000
  C   C312      1.0  0.99258  0.87350  0.06669  1.0000
  H   H539      1.0  0.03697  0.80186  0.01270  1.0000
  C   C313      1.0  0.99580  0.85762  0.10649  1.0000
  C   C314      1.0  0.99229  0.85107  0.12679  1.0000
  H   H540      1.0  0.99703  0.69560  0.15811  1.0000
  N   N24       1.0  0.99993  0.88634  0.10091  1.0000
  H   H541      1.0  0.99839  0.77873  0.14835  1.0000
  H   H542      1.0  0.99837  0.73896  0.17015  1.0000
  H   H543      1.0  0.21029  0.93034  0.99943  1.0000
  H   H544      1.0  0.23070  0.91560  0.98876  1.0000
  H   H545      1.0  0.00911  0.84566  0.13187  1.0000
  H   H546      1.0  0.05266  0.71082  0.47954  1.0000
  H   H547      1.0  0.04133  0.73671  0.47374  1.0000
  C   C315      1.0  0.37464  0.97408  0.48086  1.0000
  H   H548      1.0  0.09055  0.76056  0.48363  1.0000
  H   H549      1.0  0.31109  0.98866  0.46676  1.0000
  H   H550      1.0  0.35220  0.95869  0.48121  1.0000
  H   H551      1.0  0.01462  0.65060  0.47460  1.0000
  H   H552      1.0  0.38016  0.97650  0.46647  1.0000
  C   C316      1.0  0.04849  0.72793  0.48518  1.0000
  C   C317      1.0  0.99967  0.64890  0.48465  1.0000
  H   H553      1.0  0.47711  0.50087  0.48239  1.0000
  H   H554      1.0  0.39116  0.94400  0.48476  1.0000
  H   H555      1.0  0.47916  0.51539  0.46020  1.0000
  Fe  Fe50      1.0  0.03780  0.67868  0.56049  1.0000
  S   S102      1.0  0.07562  0.67112  0.55629  1.0000
  C   C318      1.0  0.99018  0.65472  0.51607  1.0000
  Fe  Fe51      1.0  0.05784  0.69985  0.60067  1.0000
  S   S103      1.0  0.09662  0.69374  0.59821  1.0000
  S   S104      1.0  0.04874  0.71621  0.62728  1.0000
  Fe  Fe52      1.0  0.10023  0.71293  0.57099  1.0000
  S   S105      1.0  0.14388  0.74259  0.56178  1.0000
  Fe  Fe53      1.0  0.06832  0.65310  0.58390  1.0000
  S   S106      1.0  0.06568  0.61205  0.59365  1.0000
  S   S107      1.0  0.06284  0.72171  0.57399  1.0000
  S   S108      1.0  0.02910  0.65824  0.58759  1.0000
  C   C319      1.0  0.42640  0.69409  0.56183  1.0000
  H   H556      1.0  0.10954  0.71012  0.52919  1.0000
  S   S109      1.0  0.09357  0.71493  0.70803  1.0000
  Fe  Fe54      1.0  0.25991  0.90231  0.56185  1.0000
  S   S110      1.0  0.27620  0.94814  0.57028  1.0000
  S   S111      1.0  0.21228  0.87589  0.55859  1.0000
  Fe  Fe55      1.0  0.31881  0.90671  0.56205  1.0000
  S   S112      1.0  0.33820  0.95176  0.57096  1.0000
  S   S113      1.0  0.34482  0.88346  0.55645  1.0000
  Fe  Fe56      1.0  0.30332  0.93889  0.59049  1.0000
  S   S114      1.0  0.31571  0.95666  0.61944  1.0000
  Fe  Fe57      1.0  0.30981  0.95702  0.54977  1.0000
  S   S115      1.0  0.28572  0.89315  0.58291  1.0000
  S   S116      1.0  0.29156  0.91188  0.54007  1.0000
  Fe  Fe58      1.0  0.29245  0.90779  0.72503  1.0000
  S   S117      1.0  0.27612  0.89877  0.69545  1.0000
  H   H557      1.0  0.03086  0.61483  0.50093  1.0000
  S   S118      1.0  0.37903  0.52558  0.60022  1.0000
  S   S119      1.0  0.08305  0.52476  0.54317  1.0000
  C   C320      1.0  0.30483  0.93988  0.64040  1.0000
  C   C321      1.0  0.28429  0.91212  0.64142  1.0000
  C   C322      1.0  0.27607  0.89991  0.65836  1.0000
  C   C323      1.0  0.28857  0.91501  0.67452  1.0000
  C   C324      1.0  0.30963  0.94252  0.67347  1.0000
  C   C325      1.0  0.31750  0.95491  0.65653  1.0000
  H   H558      1.0  0.31932  0.95452  0.68571  1.0000
  S   S120      1.0  0.00088  0.66497  0.53929  1.0000
  C   C326      1.0  0.11838  0.71681  0.51582  1.0000
  C   C327      1.0  0.38156  0.90081  0.56018  1.0000
  C   C328      1.0  0.39807  0.88713  0.55598  1.0000
  C   C329      1.0  0.42746  0.90084  0.55890  1.0000
  C   C330      1.0  0.44031  0.92823  0.56608  1.0000
  C   C331      1.0  0.42377  0.94175  0.57028  1.0000
  C   C332      1.0  0.39459  0.92813  0.56735  1.0000
  H   H559      1.0  0.38813  0.86593  0.55044  1.0000
  H   H560      1.0  0.44013  0.89025  0.55563  1.0000
  H   H561      1.0  0.43365  0.96298  0.57580  1.0000
  H   H562      1.0  0.38235  0.93901  0.57045  1.0000
  C   C333      1.0  0.43374  0.60378  0.56911  1.0000
  C   C334      1.0  0.44411  0.59684  0.58479  1.0000
  C   C335      1.0  0.42695  0.57291  0.59420  1.0000
  C   C336      1.0  0.39941  0.55552  0.58792  1.0000
  C   C337      1.0  0.38898  0.56233  0.57218  1.0000
  C   C338      1.0  0.40610  0.58652  0.56285  1.0000
  H   H563      1.0  0.45529  0.57317  0.72049  1.0000
  H   H564      1.0  0.43505  0.56787  0.60644  1.0000
  H   H565      1.0  0.36767  0.54918  0.56736  1.0000
  H   H566      1.0  0.39794  0.59185  0.55075  1.0000
  H   H567      1.0  0.37938  0.51241  0.54948  1.0000
  C   C339      1.0  0.06646  0.72838  0.52397  1.0000
  C   C340      1.0  0.07124  0.58844  0.57948  1.0000
  C   C341      1.0  0.06339  0.56106  0.58525  1.0000
  C   C342      1.0  0.06711  0.54145  0.57424  1.0000
  C   C343      1.0  0.07884  0.54918  0.55741  1.0000
  C   C344      1.0  0.08684  0.57662  0.55166  1.0000
  C   C345      1.0  0.08304  0.59625  0.56267  1.0000
  H   H568      1.0  0.05434  0.55497  0.59828  1.0000
  H   H569      1.0  0.06099  0.52040  0.57881  1.0000
  H   H570      1.0  0.09611  0.58271  0.53869  1.0000
  H   H571      1.0  0.08946  0.61744  0.55826  1.0000
  C   C346      1.0  0.16234  0.77978  0.56162  1.0000
  C   C347      1.0  0.19179  0.79237  0.56100  1.0000
  C   C348      1.0  0.20741  0.82174  0.56046  1.0000
  C   C349      1.0  0.19366  0.83887  0.56010  1.0000
  C   C350      1.0  0.16415  0.82626  0.56063  1.0000
  C   C351      1.0  0.14856  0.79690  0.56165  1.0000
  H   H572      1.0  0.20265  0.77932  0.56093  1.0000
  H   H573      1.0  0.23006  0.83111  0.55996  1.0000
  H   H574      1.0  0.15335  0.83936  0.56034  1.0000
  H   H575      1.0  0.12592  0.78755  0.56207  1.0000
  C   C352      1.0  0.05833  0.71165  0.64990  1.0000
  C   C353      1.0  0.04818  0.72143  0.66436  1.0000
  C   C354      1.0  0.05706  0.72054  0.68237  1.0000
  C   C355      1.0  0.07667  0.71023  0.68623  1.0000
  C   C356      1.0  0.08673  0.70034  0.67177  1.0000
  C   C357      1.0  0.07726  0.70051  0.65381  1.0000
  H   H576      1.0  0.03364  0.73020  0.66159  1.0000
  H   H577      1.0  0.04961  0.72893  0.69318  1.0000
  H   H578      1.0  0.10227  0.69279  0.67446  1.0000
  H   H579      1.0  0.08532  0.69284  0.64294  1.0000
  H   H580      1.0  0.03073  0.66210  0.50671  1.0000
  N   N25       1.0  0.13815  0.78383  0.62177  1.0000
  C   C358      1.0  0.12652  0.76802  0.63866  1.0000
  C   C359      1.0  0.15510  0.77151  0.61221  1.0000
  C   C360      1.0  0.11338  0.77896  0.60929  1.0000
  C   C361      1.0  0.15481  0.81461  0.62631  1.0000
  C   C362      1.0  0.14781  0.76582  0.65221  1.0000
  C   C363      1.0  0.18694  0.78446  0.61688  1.0000
  C   C364      1.0  0.09246  0.78947  0.61613  1.0000
  C   C365      1.0  0.16457  0.83379  0.60995  1.0000
  H   H581      1.0  0.11502  0.77753  0.64628  1.0000
  H   H582      1.0  0.11091  0.74616  0.63510  1.0000
  H   H583      1.0  0.15362  0.77323  0.59738  1.0000
  H   H584      1.0  0.14608  0.74845  0.61417  1.0000
  H   H585      1.0  0.12040  0.78876  0.59606  1.0000
  H   H586      1.0  0.10106  0.75611  0.60602  1.0000
  H   H587      1.0  0.14254  0.82229  0.63474  1.0000
  H   H588      1.0  0.17352  0.81894  0.63517  1.0000
  H   H589      1.0  0.16466  0.78663  0.65648  1.0000
  H   H590      1.0  0.13662  0.75564  0.66448  1.0000
  H   H591      1.0  0.15672  0.75207  0.64684  1.0000
  H   H592      1.0  0.19204  0.78581  0.63147  1.0000
  H   H593      1.0  0.19570  0.77118  0.61052  1.0000
  H   H594      1.0  0.19813  0.80561  0.61120  1.0000
  H   H595      1.0  0.08180  0.77850  0.62830  1.0000
  H   H596      1.0  0.07559  0.78464  0.60559  1.0000
  H   H597      1.0  0.10239  0.81245  0.61863  1.0000
  H   H598      1.0  0.14908  0.84164  0.60598  1.0000
  H   H599      1.0  0.16795  0.82298  0.59813  1.0000
  H   H600      1.0  0.18519  0.85197  0.61321  1.0000
  H   H601      1.0  0.40696  0.54596  0.72605  1.0000
  H   H602      1.0  0.41300  0.54714  0.70259  1.0000
  H   H603      1.0  0.18633  0.74974  0.72835  1.0000
  C   C366      1.0  0.06012  0.52969  0.68010  1.0000
  C   C367      1.0  0.15763  0.78256  0.73635  1.0000
  H   H604      1.0  0.18974  0.74129  0.70557  1.0000
  N   N26       1.0  0.04990  0.51831  0.69839  1.0000
  S   S121      1.0  0.45507  0.63378  0.55716  1.0000
  C   C368      1.0  0.44120  0.49669  0.52071  1.0000
  C   C369      1.0  0.46178  0.72547  0.54200  1.0000
  H   H605      1.0  0.45510  0.72873  0.59849  1.0000
  H   H606      1.0  0.21319  0.80746  0.73454  1.0000
  H   H607      1.0  0.39010  0.49606  0.67718  1.0000
  H   H608      1.0  0.12041  0.80545  0.69624  1.0000
  H   H609      1.0  0.44925  0.97366  0.70313  1.0000
  H   H610      1.0  0.13900  0.73553  0.51755  1.0000
  C   C370      1.0  0.41955  0.91333  0.61485  1.0000
  H   H611      1.0  0.45676  0.51658  0.72685  1.0000
  H   H612      1.0  0.03919  0.74989  0.52033  1.0000
  H   H613      1.0  0.10849  0.72874  0.48997  1.0000
  H   H614      1.0  0.04535  0.53671  0.67341  1.0000
  C   C371      1.0  0.44442  0.52888  0.72637  1.0000
  H   H615      1.0  0.38979  0.53153  0.52936  1.0000
  H   H616      1.0  0.44981  0.68267  0.53110  1.0000
  H   H617      1.0  0.40992  0.69300  0.55181  1.0000
  C   C372      1.0  0.06901  0.50852  0.70829  1.0000
  H   H618      1.0  0.15577  0.79529  0.51470  1.0000
  H   H619      1.0  0.17183  0.51091  0.60170  1.0000
  C   C373      1.0  0.46898  0.70238  0.53441  1.0000
  C   C374      1.0  0.46418  0.55792  0.71919  1.0000
  H   H620      1.0  0.30413  0.97075  0.49793  1.0000
  H   H621      1.0  0.08711  0.56469  0.72293  1.0000
  H   H622      1.0  0.32150  0.91055  0.50478  1.0000
  C   C375      1.0  0.12847  0.79219  0.70347  1.0000
  H   H623      1.0  0.03738  0.53188  0.72274  1.0000
  H   H624      1.0  0.00719  0.49952  0.68702  1.0000
  H   H625      1.0  0.42747  0.91173  0.62855  1.0000
  H   H626      1.0  0.41581  0.97917  0.48835  1.0000
  C   C376      1.0  0.41544  0.49632  0.56866  1.0000
  H   H627      1.0  0.07659  0.72368  0.53588  1.0000
  H   H628      1.0  0.33339  0.97639  0.65594  1.0000
  H   H629      1.0  0.01993  0.56501  0.55667  1.0000
  H   H630      1.0  0.30339  0.50822  0.71468  1.0000
  H   H631      1.0  0.40074  0.94058  0.53292  1.0000
  H   H632      1.0  0.99341  0.54382  0.50863  1.0000
  C   C377      1.0  0.35961  0.94558  0.51568  1.0000
  H   H633      1.0  0.34757  0.95750  0.51209  1.0000
  H   H634      1.0  0.35186  0.91233  0.49467  1.0000
  C   C378      1.0  0.02995  0.59547  0.52702  1.0000
  H   H635      1.0  0.12586  0.77483  0.69406  1.0000
  H   H636      1.0  0.08038  0.54879  0.68095  1.0000
  H   H637      1.0  0.48156  0.56121  0.54192  1.0000
  H   H638      1.0  0.06988  0.76881  0.49846  1.0000
  H   H639      1.0  0.24766  0.49923  0.51651  1.0000
  H   H640      1.0  0.45591  0.51890  0.51894  1.0000
  H   H641      1.0  0.44578  0.72683  0.53256  1.0000
  H   H642      1.0  0.03458  0.73104  0.54043  1.0000
  Fe  Fe59      1.0  0.08028  0.70395  0.73736  1.0000
  H   H643      1.0  0.42615  0.74331  0.55577  1.0000
  H   H644      1.0  0.42714  0.54716  0.55485  1.0000
  C   C379      1.0  0.41267  0.68606  0.58018  1.0000
  H   H645      1.0  0.08229  0.57913  0.70166  1.0000
  H   H646      1.0  0.41427  0.51225  0.57798  1.0000
  H   H647      1.0  0.46525  0.61013  0.58985  1.0000
  H   H648      1.0  0.08004  0.70134  0.49990  1.0000
  H   H649      1.0  0.20700  0.49457  0.55829  1.0000
  C   C380      1.0  0.46367  0.52725  0.56161  1.0000
  C   C381      1.0  0.03690  0.59920  0.50692  1.0000
  C   C382      1.0  0.42443  0.53015  0.54500  1.0000
  N   N27       1.0  0.39012  0.96134  0.51129  1.0000
  C   C383      1.0  0.13594  0.78551  0.50633  1.0000
  S   S122      1.0  0.47676  0.94679  0.57024  1.0000
  C   C384      1.0  0.10108  0.52662  0.70691  1.0000
  H   H650      1.0  0.39752  0.92465  0.64233  1.0000
  H   H651      1.0  0.39750  0.92442  0.51173  1.0000
  N   N28       1.0  0.00190  0.57238  0.53181  1.0000
  H   H652      1.0  0.04749  0.59343  0.53427  1.0000
  H   H653      1.0  0.35495  0.93283  0.64679  1.0000
  H   H654      1.0  0.16102  0.82898  0.71701  1.0000
  C   C385      1.0  0.39354  0.51663  0.53808  1.0000
  N   N29       1.0  0.43451  0.51043  0.55341  1.0000
  H   H655      1.0  0.42690  0.92345  0.68377  1.0000
  C   C386      1.0  0.40323  0.53248  0.71371  1.0000
  H   H656      1.0  0.36400  0.50371  0.69870  1.0000
  C   C387      1.0  0.33991  0.87165  0.62153  1.0000
  C   C388      1.0  0.00897  0.65575  0.50291  1.0000
  N   N30       1.0  0.45199  0.72202  0.56111  1.0000
  C   C389      1.0  0.09804  0.72219  0.50302  1.0000
  H   H657      1.0  0.26823  0.49427  0.72182  1.0000
  C   C390      1.0  0.40535  0.94537  0.51860  1.0000
  H   H658      1.0  0.10772  0.54825  0.70245  1.0000
  H   H659      1.0  0.48009  0.70949  0.52165  1.0000
  H   H660      1.0  0.27444  0.49619  0.68745  1.0000
  H   H661      1.0  0.43712  0.54137  0.53356  1.0000
  C   C391      1.0  0.22262  0.83109  0.70992  1.0000
  H   H662      1.0  0.24464  0.83686  0.71450  1.0000
  H   H663      1.0  0.34477  0.90001  0.51724  1.0000
  C   C392      1.0  0.07504  0.75151  0.49434  1.0000
  C   C393      1.0  0.46740  0.77534  0.56345  1.0000
  C   C394      1.0  0.17353  0.77214  0.70797  1.0000
  C   C395      1.0  0.11135  0.76842  0.51850  1.0000
  H   H664      1.0  0.03075  0.71902  0.49439  1.0000
  H   H665      1.0  0.40710  0.93496  0.69715  1.0000
  H   H666      1.0  0.34091  0.91985  0.61635  1.0000
  H   H667      1.0  0.11139  0.52841  0.72041  1.0000
  H   H668      1.0  0.39753  0.95604  0.60163  1.0000
  C   C396      1.0  0.38831  0.89248  0.61179  1.0000
  H   H669      1.0  0.04001  0.54955  0.52340  1.0000
  C   C397      1.0  0.01888  0.53417  0.52738  1.0000
  H   H670      1.0  0.34220  0.85600  0.63042  1.0000
  H   H671      1.0  0.36480  0.53574  0.70669  1.0000
  C   C398      1.0  0.36089  0.92018  0.61196  1.0000
  H   H672      1.0  0.32257  0.87540  0.62705  1.0000
  C   C399      1.0  0.42474  0.92909  0.69778  1.0000
  H   H673      1.0  0.43477  0.52210  0.68992  1.0000
  H   H674      1.0  0.43215  0.90788  0.60524  1.0000
  H   H675      1.0  0.27429  0.90028  0.62918  1.0000
  H   H676      1.0  0.37886  0.88927  0.64782  1.0000
  H   H677      1.0  0.43152  0.67660  0.55814  1.0000
  H   H678      1.0  0.32508  0.87049  0.59329  1.0000
  H   H679      1.0  0.04329  0.49274  0.66148  1.0000
  H   H680      1.0  0.37325  0.96505  0.61295  1.0000
  C   C400      1.0  0.45110  0.95401  0.70591  1.0000
  H   H681      1.0  0.25968  0.87868  0.65898  1.0000
  H   H682      1.0  0.38386  0.89094  0.59700  1.0000
  H   H683      1.0  0.13246  0.80231  0.49962  1.0000
  H   H684      1.0  0.06490  0.76381  0.53895  1.0000
  H   H685      1.0  0.01358  0.51453  0.51945  1.0000
  C   C401      1.0  0.05073  0.74464  0.53111  1.0000
  C   C402      1.0  0.37642  0.90663  0.64098  1.0000
  H   H686      1.0  0.98468  0.60247  0.53004  1.0000
  H   H687      1.0  0.01976  0.52892  0.54171  1.0000
  H   H688      1.0  0.38679  0.87165  0.61556  1.0000
  C   C403      1.0  0.44381  0.74525  0.56504  1.0000
  H   H689      1.0  0.02510  0.61324  0.56147  1.0000
  N   N31       1.0  0.36695  0.89852  0.62156  1.0000
  H   H690      1.0  0.02988  0.54545  0.70260  1.0000
  H   H691      1.0  0.30817  0.83834  0.60463  1.0000
  N   N32       1.0  0.17340  0.79542  0.71970  1.0000
  C   C404      1.0  0.00214  0.56924  0.55199  1.0000
  H   H692      1.0  0.39360  0.66567  0.57851  1.0000
  C   C405      1.0  0.32875  0.85679  0.60300  1.0000
  H   H693      1.0  0.35662  0.91476  0.59736  1.0000
  H   H694      1.0  0.00452  0.58967  0.57788  1.0000
  H   H695      1.0  0.33594  0.89689  0.65369  1.0000
  H   H696      1.0  0.43547  0.74396  0.57863  1.0000
  H   H697      1.0  0.34288  0.84883  0.59713  1.0000
  C   C406      1.0  0.19237  0.75881  0.71490  1.0000
  H   H698      1.0  0.07529  0.52075  0.65502  1.0000
  C   C407      1.0  0.15955  0.81030  0.70928  1.0000
  H   H699      1.0  0.11006  0.51595  0.69805  1.0000
  H   H700      1.0  0.12247  0.69969  0.51004  1.0000
  C   C408      1.0  0.47258  0.90462  0.69909  1.0000
  H   H701      1.0  0.21495  0.77392  0.71529  1.0000
  N   N33       1.0  0.08776  0.74268  0.50992  1.0000
  H   H702      1.0  0.03205  0.61617  0.53198  1.0000
  H   H703      1.0  0.47857  0.97447  0.65568  1.0000
  C   C409      1.0  0.04577  0.54010  0.70941  1.0000
  H   H704      1.0  0.17089  0.81890  0.69673  1.0000
  C   C410      1.0  0.34385  0.91546  0.50763  1.0000
  C   C411      1.0  0.07197  0.56787  0.71381  1.0000
  H   H705      1.0  0.10350  0.78342  0.52332  1.0000
  H   H706      1.0  0.40568  0.70136  0.58548  1.0000
  C   C412      1.0  0.20277  0.81653  0.72530  1.0000
  H   H707      1.0  0.22108  0.85050  0.70607  1.0000
  C   C413      1.0  0.39390  0.96404  0.49124  1.0000
  H   H708      1.0  0.48112  0.74547  0.54073  1.0000
  C   C414      1.0  0.48270  0.95601  0.68081  1.0000
  H   H709      1.0  0.02741  0.57968  0.49864  1.0000
  H   H710      1.0  0.35981  0.50889  0.72223  1.0000
  H   H711      1.0  0.36638  0.92083  0.66619  1.0000
  H   H712      1.0  0.35733  0.94332  0.53048  1.0000
  N   N34       1.0  0.41669  0.51293  0.71614  1.0000
  H   H713      1.0  0.06543  0.58208  0.72131  1.0000
  H   H714      1.0  0.05026  0.70762  0.51894  1.0000
  C   C415      1.0  0.35705  0.91459  0.65234  1.0000
  H   H715      1.0  0.44763  0.98006  0.52461  1.0000
  C   C416      1.0  0.37117  0.51905  0.71005  1.0000
  C   C417      1.0  0.42278  0.50361  0.69822  1.0000
  H   H716      1.0  0.41854  0.91045  0.70635  1.0000
  H   H717      1.0  0.11993  0.76333  0.53101  1.0000
  H   H718      1.0  0.42672  0.68264  0.59014  1.0000
  H   H719      1.0  0.17957  0.77912  0.69404  1.0000
  H   H720      1.0  0.13708  0.76435  0.73285  1.0000
  H   H721      1.0  0.47649  0.92919  0.72298  1.0000
  H   H722      1.0  0.39657  0.95681  0.62584  1.0000
  H   H723      1.0  0.44616  0.94604  0.52319  1.0000
  H   H724      1.0  0.13953  0.77262  0.49588  1.0000
  H   H725      1.0  0.21881  0.81765  0.69774  1.0000
  H   H726      1.0  0.44884  0.95215  0.72075  1.0000
  H   H727      1.0  0.42395  0.93524  0.61231  1.0000
  H   H728      1.0  0.45031  0.89677  0.69478  1.0000
  C   C418      1.0  0.06381  0.50911  0.66683  1.0000
  H   H729      1.0  0.46317  0.54141  0.57266  1.0000
  H   H730      1.0  0.45696  0.97750  0.67272  1.0000
  H   H731      1.0  0.07609  0.49894  0.67291  1.0000
  H   H732      1.0  0.46090  0.79051  0.56968  1.0000
  H   H733      1.0  0.06443  0.50637  0.72288  1.0000
  C   C419      1.0  0.00481  0.59474  0.56340  1.0000
  C   C420      1.0  0.38363  0.95095  0.61323  1.0000
  S   S123      1.0  0.31827  0.88581  0.73364  1.0000
  H   H734      1.0  0.47176  0.51328  0.56790  1.0000
  H   H735      1.0  0.47142  0.78119  0.54916  1.0000
  C   C421      1.0  0.02141  0.49356  0.69532  1.0000
  H   H736      1.0  0.15199  0.75464  0.70626  1.0000
  H   H737      1.0  0.98410  0.58508  0.49730  1.0000
  C   C422      1.0  0.47782  0.97839  0.67032  1.0000
  H   H738      1.0  0.11494  0.78347  0.71511  1.0000
  H   H739      1.0  0.47530  0.70186  0.57346  1.0000
  H   H740      1.0  0.38773  0.49693  0.53018  1.0000
  H   H741      1.0  0.46985  0.55673  0.70510  1.0000
  H   H742      1.0  0.38235  0.98223  0.54617  1.0000
  C   C423      1.0  0.43753  0.95971  0.51708  1.0000
  C   C424      1.0  0.47559  0.73197  0.59341  1.0000
  H   H743      1.0  0.46849  0.93556  0.67433  1.0000
  H   H744      1.0  0.44374  0.96257  0.50286  1.0000
  H   H745      1.0  0.99746  0.49292  0.71931  1.0000
  H   H746      1.0  0.22672  0.49517  0.71065  1.0000
  N   N35       1.0  0.47932  0.95626  0.70088  1.0000
  C   C425      1.0  0.47531  0.72277  0.57353  1.0000
  H   H747      1.0  0.47387  0.88877  0.70818  1.0000
  H   H748      1.0  0.05992  0.60697  0.50569  1.0000
  H   H749      1.0  0.20238  0.83389  0.73356  1.0000
  C   C426      1.0  0.99623  0.54430  0.52346  1.0000
  H   H750      1.0  0.41714  0.98382  0.54637  1.0000
  H   H751      1.0  0.43725  0.49369  0.69981  1.0000
  H   H752      1.0  0.98721  0.60021  0.56081  1.0000
  H   H753      1.0  0.42186  0.49108  0.51216  1.0000
  Fe  Fe60      1.0  0.00990  0.81150  0.91651  1.0000
  S   S124      1.0  0.04801  0.84781  0.92923  1.0000
  S   S125      1.0  0.00724  0.76896  0.92129  1.0000
  Fe  Fe61      1.0  0.05187  0.70413  0.77408  1.0000
  S   S126      1.0  0.07631  0.68501  0.78853  1.0000
  S   S127      1.0  0.02092  0.71534  0.78972  1.0000
  Fe  Fe62      1.0  0.11306  0.71577  0.77352  1.0000
  S   S128      1.0  0.15159  0.74555  0.78988  1.0000
  Fe  Fe63      1.0  0.06732  0.65616  0.76413  1.0000
  S   S129      1.0  0.04592  0.60799  0.76542  1.0000
  S   S130      1.0  0.08900  0.73610  0.75983  1.0000
  S   S131      1.0  0.04048  0.67361  0.75007  1.0000
  Fe  Fe64      1.0  0.34072  0.92181  0.75316  1.0000
  S   S132      1.0  0.38847  0.94423  0.75790  1.0000
  Fe  Fe65      1.0  0.28695  0.86719  0.75518  1.0000
  C   C427      1.0  0.26057  0.96415  0.84375  1.0000
  C   C428      1.0  0.06970  0.79686  0.82413  1.0000
  Fe  Fe66      1.0  0.28630  0.92283  0.76536  1.0000
  S   S133      1.0  0.31169  0.90129  0.77579  1.0000
  H   H754      1.0  0.17155  0.82017  0.75440  1.0000
  S   S134      1.0  0.19924  0.95897  0.90088  1.0000
  S   S135      1.0  0.12611  0.93920  0.87598  1.0000
  H   H755      1.0  0.98800  0.58907  0.79853  1.0000
  S   S136      1.0  0.09980  0.52181  0.76108  1.0000
  C   C429      1.0  0.28303  0.95031  0.81949  1.0000
  H   H756      1.0  0.45150  0.59309  0.80593  1.0000
  H   H757      1.0  0.29995  0.94591  0.81514  1.0000
  H   H758      1.0  0.44087  0.53237  0.74062  1.0000
  N   N36       1.0  0.21184  0.91807  0.95294  1.0000
  C   C430      1.0  0.45353  0.58014  0.76542  1.0000
  C   C431      1.0  0.45225  0.90785  0.75300  1.0000
  C   C432      1.0  0.46054  0.93491  0.76014  1.0000
  C   C433      1.0  0.44088  0.94594  0.76125  1.0000
  C   C434      1.0  0.41286  0.93022  0.75506  1.0000
  H   H759      1.0  0.25485  0.94807  0.96003  1.0000
  H   H760      1.0  0.13786  0.81034  0.74275  1.0000
  S   S137      1.0  0.31674  0.94559  0.74353  1.0000
  S   S138      1.0  0.10672  0.68526  0.75062  1.0000
  H   H761      1.0  0.05073  0.86660  0.97447  1.0000
  C   C435      1.0  0.42426  0.56867  0.76235  1.0000
  C   C436      1.0  0.40649  0.54097  0.76709  1.0000
  C   C437      1.0  0.41778  0.52440  0.77513  1.0000
  C   C438      1.0  0.44705  0.53596  0.77841  1.0000
  C   C439      1.0  0.46488  0.56357  0.77339  1.0000
  H   H762      1.0  0.14920  0.89994  0.95114  1.0000
  H   H763      1.0  0.38404  0.53245  0.76455  1.0000
  C   C440      1.0  0.15997  0.89173  0.94183  1.0000
  C   C441      1.0  0.18331  0.76649  0.77953  1.0000
  C   C442      1.0  0.19663  0.79555  0.78309  1.0000
  C   C443      1.0  0.22296  0.81243  0.77603  1.0000
  C   C444      1.0  0.23656  0.80012  0.76593  1.0000
  S   S139      1.0  0.01020  0.73925  0.87389  1.0000
  C   C445      1.0  0.19657  0.75434  0.76897  1.0000
  H   H764      1.0  0.18662  0.80501  0.79144  1.0000
  H   H765      1.0  0.23307  0.83480  0.77886  1.0000
  C   C446      1.0  0.06131  0.58442  0.76331  1.0000
  C   C447      1.0  0.04372  0.55537  0.76162  1.0000
  C   C448      1.0  0.05503  0.53588  0.76047  1.0000
  C   C449      1.0  0.08416  0.54526  0.76123  1.0000
  C   C450      1.0  0.10169  0.57426  0.76289  1.0000
  C   C451      1.0  0.09039  0.59374  0.76377  1.0000
  H   H766      1.0  0.19572  0.90960  0.92512  1.0000
  H   H767      1.0  0.44728  0.96656  0.76730  1.0000
  H   H768      1.0  0.12424  0.58176  0.76357  1.0000
  H   H769      1.0  0.10422  0.61595  0.76512  1.0000
  C   C452      1.0  0.06916  0.87381  0.91456  1.0000
  C   C453      1.0  0.05973  0.87484  0.89697  1.0000
  C   C454      1.0  0.07714  0.89554  0.88542  1.0000
  C   C455      1.0  0.10423  0.91493  0.89127  1.0000
  C   C456      1.0  0.11357  0.91417  0.90895  1.0000
  C   C457      1.0  0.09592  0.89376  0.92061  1.0000
  H   H770      1.0  0.03891  0.85996  0.89233  1.0000
  H   H771      1.0  0.06968  0.89647  0.87188  1.0000
  H   H772      1.0  0.13430  0.92935  0.91361  1.0000
  H   H773      1.0  0.10302  0.89335  0.93432  1.0000
  C   C458      1.0  0.01319  0.73364  0.85030  1.0000
  C   C459      1.0  0.01931  0.72329  0.81313  1.0000
  C   C460      1.0  0.03669  0.72012  0.82653  1.0000
  C   C461      1.0  0.03344  0.72498  0.84490  1.0000
  H   H774      1.0  0.05243  0.71355  0.82277  1.0000
  C   C462      1.0  0.21736  0.89265  0.95463  1.0000
  H   H775      1.0  0.18201  0.90446  0.97436  1.0000
  C   C463      1.0  0.99730  0.82109  0.97139  1.0000
  S   S140      1.0  0.26156  0.97547  0.86677  1.0000
  H   H776      1.0  0.18664  0.73191  0.76640  1.0000
  C   C464      1.0  0.15197  0.80244  0.74911  1.0000
  H   H777      1.0  0.04125  0.51366  0.75925  1.0000
  H   H778      1.0  0.23367  0.76145  0.75454  1.0000
  C   C465      1.0  0.23956  0.96221  0.83121  1.0000
  N   N37       1.0  0.08097  0.82437  0.85444  1.0000
  C   C466      1.0  0.99268  0.60677  0.80829  1.0000
  H   H779      1.0  0.05010  0.82487  0.96453  1.0000
  H   H780      1.0  0.99042  0.61800  0.77475  1.0000
  H   H781      1.0  0.02119  0.54792  0.76124  1.0000
  H   H782      1.0  0.10993  0.82815  0.83356  1.0000
  H   H783      1.0  0.19268  0.86382  0.93218  1.0000
  H   H784      1.0  0.03196  0.63839  0.82168  1.0000
  S   S141      1.0  0.47463  0.61477  0.75833  1.0000
  H   H785      1.0  0.09591  0.86943  0.85569  1.0000
  C   C467      1.0  0.99906  0.73194  0.81851  1.0000
  H   H786      1.0  0.18834  0.93449  0.93675  1.0000
  H   H787      1.0  0.22743  0.88824  0.92619  1.0000
  C   C468      1.0  0.42442  0.89245  0.74635  1.0000
  H   H788      1.0  0.04681  0.72202  0.85505  1.0000
  H   H789      1.0  0.41790  0.87163  0.74060  1.0000
  H   H790      1.0  0.07424  0.77949  0.82874  1.0000
  H   H791      1.0  0.98539  0.73447  0.80838  1.0000
  H   H792      1.0  0.99928  0.80519  0.96252  1.0000
  H   H793      1.0  0.04729  0.82255  0.87082  1.0000
  H   H794      1.0  0.23452  0.96274  0.94917  1.0000
  C   C469      1.0  0.05076  0.81860  0.85660  1.0000
  C   C470      1.0  0.98468  0.74551  0.98241  1.0000
  N   N38       1.0  0.35219  0.84140  0.79021  1.0000
  C   C471      1.0  0.34896  0.82090  0.77501  1.0000
  C   C472      1.0  0.36325  0.83241  0.80655  1.0000
  C   C473      1.0  0.37323  0.87021  0.78481  1.0000
  C   C474      1.0  0.32375  0.84052  0.79289  1.0000
  H   H795      1.0  0.13749  0.84515  0.86326  1.0000
  C   C475      1.0  0.34377  0.80312  0.81341  1.0000
  C   C476      1.0  0.38706  0.89270  0.79992  1.0000
  C   C477      1.0  0.31984  0.85493  0.81001  1.0000
  H   H796      1.0  0.03506  0.63071  0.79829  1.0000
  H   H797      1.0  0.29859  0.95931  0.84719  1.0000
  H   H798      1.0  0.36805  0.84733  0.81811  1.0000
  H   H799      1.0  0.38385  0.83263  0.80373  1.0000
  H   H800      1.0  0.39106  0.86888  0.77802  1.0000
  H   H801      1.0  0.36357  0.87909  0.77479  1.0000
  H   H802      1.0  0.31796  0.85031  0.78143  1.0000
  H   H803      1.0  0.30663  0.81863  0.79225  1.0000
  C   C478      1.0  0.08563  0.80166  0.86375  1.0000
  H   H804      1.0  0.14126  0.79058  0.76106  1.0000
  H   H805      1.0  0.33626  0.81102  0.74664  1.0000
  H   H806      1.0  0.32276  0.80127  0.81656  1.0000
  H   H807      1.0  0.34149  0.78621  0.80368  1.0000
  H   H808      1.0  0.35318  0.79950  0.82606  1.0000
  H   H809      1.0  0.37176  0.89510  0.80861  1.0000
  H   H810      1.0  0.39915  0.91333  0.79368  1.0000
  H   H811      1.0  0.40241  0.88851  0.80822  1.0000
  H   H812      1.0  0.32474  0.87713  0.80763  1.0000
  H   H813      1.0  0.33188  0.85383  0.82205  1.0000
  H   H814      1.0  0.29749  0.84397  0.81373  1.0000
  H   H815      1.0  0.05623  0.49181  0.84074  1.0000
  H   H816      1.0  0.38367  0.89189  0.74182  1.0000
  H   H817      1.0  0.33085  0.80014  0.77709  1.0000
  H   H818      1.0  0.10334  0.82100  0.89047  1.0000
  Fe  Fe67      1.0  0.16881  0.97099  0.88648  1.0000
  C   C479      1.0  0.08520  0.80236  0.88448  1.0000
  H   H819      1.0  0.08671  0.78353  0.88962  1.0000
  H   H820      1.0  0.01079  0.65179  0.78389  1.0000
  C   C480      1.0  0.28217  0.95794  0.83772  1.0000
  S   S142      1.0  0.26303  0.94116  0.78331  1.0000
  S   S143      1.0  0.25989  0.88710  0.74588  1.0000
  C   C481      1.0  0.04000  0.83598  0.84502  1.0000
  H   H821      1.0  0.14746  0.88601  0.92890  1.0000
  H   H822      1.0  0.05236  0.85882  0.84755  1.0000
  H   H823      1.0  0.22263  0.96659  0.83553  1.0000
  H   H824      1.0  0.20276  0.87742  0.96410  1.0000
  C   C482      1.0  0.24065  0.95500  0.81294  1.0000
  C   C483      1.0  0.13153  0.86251  0.86215  1.0000
  C   C484      1.0  0.23850  0.94392  0.94923  1.0000
  H   H825      1.0  0.03623  0.79609  0.85379  1.0000
  H   H826      1.0  0.08258  0.54221  0.80075  1.0000
  H   H827      1.0  0.03935  0.83098  0.83045  1.0000
  C   C485      1.0  0.34450  0.82967  0.75592  1.0000
  H   H828      1.0  0.22239  0.85949  0.94012  1.0000
  H   H829      1.0  0.14002  0.87383  0.84958  1.0000
  C   C486      1.0  0.04892  0.81566  0.97805  1.0000
  S   S144      1.0  0.27029  0.82017  0.75774  1.0000
  H   H830      1.0  0.41526  0.58131  0.75618  1.0000
  H   H831      1.0  0.08617  0.84192  0.82782  1.0000
  H   H832      1.0  0.23872  0.89877  0.96076  1.0000
  H   H833      1.0  0.09416  0.85489  0.87680  1.0000
  H   H834      1.0  0.22445  0.95399  0.80340  1.0000
  H   H835      1.0  0.45599  0.52322  0.78448  1.0000
  C   C487      1.0  0.22324  0.77108  0.76236  1.0000
  H   H836      1.0  0.06314  0.49233  0.78869  1.0000
  S   S145      1.0  0.99339  0.80192  0.88783  1.0000
  H   H837      1.0  0.46042  0.59040  0.82885  1.0000
  C   C488      1.0  0.26236  0.94898  0.80685  1.0000
  H   H838      1.0  0.10563  0.80154  0.85987  1.0000
  C   C489      1.0  0.09956  0.85291  0.86267  1.0000
  H   H839      1.0  0.27001  0.96516  0.92966  1.0000
  H   H840      1.0  0.36778  0.81680  0.77453  1.0000
  H   H841      1.0  0.01807  0.83059  0.84861  1.0000
  H   H842      1.0  0.03252  0.60627  0.81506  1.0000
  H   H843      1.0  0.08040  0.80317  0.96922  1.0000
  H   H844      1.0  0.26328  0.92967  0.93240  1.0000
  H   H845      1.0  0.14213  0.87692  0.87385  1.0000
  H   H846      1.0  0.09485  0.83310  0.98407  1.0000
  C   C490      1.0  0.98894  0.63471  0.78318  1.0000
  C   C491      1.0  0.40494  0.90374  0.74712  1.0000
  C   C492      1.0  0.21480  0.87545  0.93718  1.0000
  H   H847      1.0  0.04689  0.79048  0.82475  1.0000
  C   C493      1.0  0.08770  0.82430  0.83490  1.0000
  H   H848      1.0  0.06531  0.80150  0.88934  1.0000
  H   H849      1.0  0.06917  0.78059  0.85928  1.0000
  H   H850      1.0  0.07505  0.79985  0.80972  1.0000
  H   H851      1.0  0.17578  0.98131  0.98329  1.0000
  H   H852      1.0  0.46701  0.62417  0.81966  1.0000
  H   H853      1.0  0.10255  0.52447  0.80772  1.0000
  H   H854      1.0  0.16924  0.77361  0.74457  1.0000
  H   H855      1.0  0.07959  0.53010  0.82329  1.0000
  C   C494      1.0  0.18993  0.91445  0.93847  1.0000
  H   H856      1.0  0.15973  0.87240  0.94736  1.0000
  H   H857      1.0  0.99302  0.63383  0.84017  1.0000
  H   H858      1.0  0.36467  0.84497  0.75062  1.0000
  Fe  Fe68      1.0  0.98856  0.75836  0.89270  1.0000
  C   C495      1.0  0.02487  0.62177  0.81098  1.0000
  H   H859      1.0  0.32930  0.83863  0.75532  1.0000
  H   H860      1.0  0.03227  0.79371  0.97654  1.0000
  C   C496      1.0  0.25297  0.94375  0.93161  1.0000
  H   H861      1.0  0.19459  0.94031  0.96926  1.0000
  H   H862      1.0  0.99655  0.74472  0.97102  1.0000
  C   C497      1.0  0.20118  0.92326  0.97056  1.0000
  C   C498      1.0  0.08198  0.52485  0.80918  1.0000
  C   C499      1.0  0.99617  0.73732  0.83688  1.0000
  C   C500      1.0  0.46742  0.60383  0.81697  1.0000
  H   H863      1.0  0.23883  0.93864  0.91950  1.0000
  H   H864      1.0  0.98964  0.66562  0.84140  1.0000
  H   H865      1.0  0.03936  0.50181  0.79976  1.0000
  H   H866      1.0  0.01010  0.66484  0.81288  1.0000
  S   S146      1.0  0.47542  0.89196  0.75276  1.0000
  C   C501      1.0  0.98741  0.65040  0.81391  1.0000
  C   C502      1.0  0.05755  0.49707  0.80223  1.0000
  C   C503      1.0  0.07630  0.81282  0.98144  1.0000
  H   H867      1.0  0.00671  0.84174  0.96492  1.0000
  H   H868      1.0  0.39466  0.49643  0.74052  1.0000
  H   H869      1.0  0.98375  0.59667  0.82113  1.0000
  H   H870      1.0  0.48183  0.94695  0.76539  1.0000
  Fe  Fe69      1.0  0.23092  0.98767  0.88169  1.0000
  H   H871      1.0  0.09772  0.87693  0.97841  1.0000
  H   H872      1.0  0.23886  0.95232  0.98647  1.0000
  C   C504      1.0  0.22173  0.93071  0.98707  1.0000
  Fe  Fe70      1.0  0.77933  0.04384  0.08803  1.0000
  S   S147      1.0  0.74691  0.05778  0.07948  1.0000
  S   S148      1.0  0.82274  0.07175  0.09988  1.0000
  Fe  Fe71      1.0  0.71729  0.02171  0.09562  1.0000
  S   S149      1.0  0.68578  0.03079  0.11224  1.0000
  Fe  Fe72      1.0  0.73663  0.02702  0.05592  1.0000
  S   S150      1.0  0.73133  0.04180  0.02763  1.0000
  C   C505      1.0  0.93543  0.42823  0.16391  1.0000
  H   H873      1.0  0.66218  0.12961  0.16693  1.0000
  Fe  Fe73      1.0  0.65550  0.08346  0.21263  1.0000
  S   S151      1.0  0.63268  0.10731  0.20166  1.0000
  S   S152      1.0  0.67642  0.06161  0.19546  1.0000
  C   C506      1.0  0.75048  0.15623  0.19270  1.0000
  C   C507      1.0  0.92252  0.44441  0.17463  1.0000
  H   H874      1.0  0.97305  0.30747  0.17928  1.0000
  H   H875      1.0  0.73325  0.17213  0.15104  1.0000
  C   C508      1.0  0.97750  0.28650  0.00688  1.0000
  C   C509      1.0  0.74633  0.13117  0.20453  1.0000
  H   H876      1.0  0.81996  0.00041  0.13734  1.0000
  C   C510      1.0  0.72380  0.99882  0.00274  1.0000
  Fe  Fe74      1.0  0.95984  0.27059  0.09479  1.0000
  S   S153      1.0  0.95628  0.22689  0.09738  1.0000
  S   S154      1.0  0.93951  0.28932  0.11500  1.0000
  Fe  Fe75      1.0  0.93610  0.21820  0.06960  1.0000
  S   S155      1.0  0.89553  0.18285  0.05861  1.0000
  S   S156      1.0  0.93732  0.26071  0.06741  1.0000
  Fe  Fe76      1.0  0.90416  0.33050  0.21615  1.0000
  S   S157      1.0  0.86112  0.32203  0.20549  1.0000
  S   S158      1.0  0.93594  0.32436  0.19807  1.0000
  H   H877      1.0  0.90177  0.43027  0.17988  1.0000
  C   C511      1.0  0.76161  0.21149  0.23648  1.0000
  C   C512      1.0  0.61698  0.01510  0.03403  1.0000
  C   C513      1.0  0.51762  0.44513  0.22729  1.0000
  H   H878      1.0  0.68955  0.07739  0.06176  1.0000
  Fe  Fe77      1.0  0.66270  0.14284  0.21988  1.0000
  H   H879      1.0  0.68770  0.04509  0.07086  1.0000
  H   H880      1.0  0.87152  0.03216  0.13215  1.0000
  C   C514      1.0  0.93855  0.29794  0.13837  1.0000
  C   C515      1.0  0.95844  0.29863  0.15139  1.0000
  C   C516      1.0  0.95712  0.30646  0.16952  1.0000
  C   C517      1.0  0.93552  0.31299  0.17513  1.0000
  C   C518      1.0  0.91524  0.31163  0.16219  1.0000
  C   C519      1.0  0.91707  0.30469  0.14397  1.0000
  H   H881      1.0  0.89844  0.31642  0.16617  1.0000
  H   H882      1.0  0.90170  0.30463  0.13411  1.0000
  H   H883      1.0  0.97521  0.29371  0.14745  1.0000
  H   H884      1.0  0.76728  0.18120  0.16016  1.0000
  H   H885      1.0  0.68776  0.05974  0.03430  1.0000
  H   H886      1.0  0.91459  0.43102  0.22103  1.0000
  H   H887      1.0  0.71857  0.03281  0.14561  1.0000
  H   H888      1.0  0.56503  0.12769  0.21502  1.0000
  H   H889      1.0  0.64539  0.03498  0.00221  1.0000
  C   C520      1.0  0.64726  0.04128  0.05949  1.0000
  H   H890      1.0  0.95530  0.38346  0.20489  1.0000
  H   H891      1.0  0.93881  0.39720  0.13444  1.0000
  C   C521      1.0  0.82609  0.01138  0.12450  1.0000
  C   C522      1.0  0.84335  0.10208  0.08803  1.0000
  C   C523      1.0  0.83234  0.10932  0.07277  1.0000
  C   C524      1.0  0.84879  0.13401  0.06380  1.0000
  C   C525      1.0  0.87631  0.15163  0.07001  1.0000
  C   C526      1.0  0.88752  0.14423  0.08515  1.0000
  C   C527      1.0  0.87102  0.11949  0.09416  1.0000
  H   H892      1.0  0.81111  0.09597  0.06789  1.0000
  H   H893      1.0  0.84009  0.13956  0.05203  1.0000
  H   H894      1.0  0.90885  0.15754  0.08985  1.0000
  H   H895      1.0  0.87967  0.11390  0.10593  1.0000
  C   C528      1.0  0.72984  0.02700  0.00562  1.0000
  S   S159      1.0  0.55806  0.07377  0.22915  1.0000
  H   H896      1.0  0.90775  0.39430  0.19431  1.0000
  C   C529      1.0  0.88567  0.37207  0.17005  1.0000
  C   C530      1.0  0.77813  0.23793  0.22954  1.0000
  C   C531      1.0  0.68425  0.04019  0.13541  1.0000
  C   C532      1.0  0.66351  0.04849  0.14035  1.0000
  C   C533      1.0  0.66105  0.05557  0.15846  1.0000
  C   C534      1.0  0.67900  0.05400  0.17210  1.0000
  C   C535      1.0  0.69981  0.04584  0.16715  1.0000
  C   C536      1.0  0.70260  0.03924  0.14900  1.0000
  H   H897      1.0  0.64905  0.04926  0.13009  1.0000
  H   H898      1.0  0.64482  0.06163  0.16191  1.0000
  H   H899      1.0  0.71380  0.04437  0.17749  1.0000
  H   H900      1.0  0.64994  0.99483  0.05681  1.0000
  H   H901      1.0  0.65951  0.06827  0.02943  1.0000
  C   C537      1.0  0.67637  0.05805  0.06893  1.0000
  C   C538      1.0  0.72114  0.20733  0.21842  1.0000
  H   H902      1.0  0.50828  0.42264  0.22507  1.0000
  H   H903      1.0  0.88635  0.38304  0.15747  1.0000
  H   H904      1.0  0.84860  0.02795  0.09233  1.0000
  H   H905      1.0  0.53155  0.14850  0.21171  1.0000
  C   C539      1.0  0.49744  0.11449  0.22417  1.0000
  H   H906      1.0  0.74469  0.17025  0.20105  1.0000
  Fe  Fe78      1.0  0.86823  0.36126  0.22152  1.0000
  Fe  Fe79      1.0  0.84597  0.29947  0.23133  1.0000
  H   H907      1.0  0.56005  0.45078  0.22404  1.0000
  H   H908      1.0  0.61481  0.00632  0.02022  1.0000
  C   C540      1.0  0.97223  0.40254  0.19953  1.0000
  H   H909      1.0  0.59139  0.99986  0.05803  1.0000
  H   H910      1.0  0.76293  0.21055  0.18376  1.0000
  S   S160      1.0  0.75064  0.00907  0.10528  1.0000
  Fe  Fe80      1.0  0.97892  0.27341  0.05484  1.0000
  H   H911      1.0  0.77348  0.16820  0.19076  1.0000
  C   C541      1.0  0.93684  0.38006  0.14348  1.0000
  N   N39       1.0  0.93937  0.40577  0.17407  1.0000
  C   C542      1.0  0.95151  0.39114  0.16206  1.0000
  C   C543      1.0  0.54403  0.11674  0.21993  1.0000
  C   C544      1.0  0.74046  0.12724  0.16534  1.0000
  H   H912      1.0  0.72821  0.24278  0.20195  1.0000
  H   H913      1.0  0.76358  0.13455  0.16480  1.0000
  H   H914      1.0  0.91569  0.36701  0.18768  1.0000
  H   H915      1.0  0.86046  0.05237  0.11734  1.0000
  H   H916      1.0  0.69397  0.11478  0.18054  1.0000
  C   C545      1.0  0.48924  0.08863  0.23237  1.0000
  H   H917      1.0  0.94746  0.36876  0.13679  1.0000
  H   H918      1.0  0.73230  0.10741  0.17291  1.0000
  H   H919      1.0  0.67483  0.02730  0.00787  1.0000
  H   H920      1.0  0.83225  0.00767  0.06313  1.0000
  C   C546      1.0  0.53559  0.09052  0.22763  1.0000
  N   N40       1.0  0.86492  0.21357  0.11572  1.0000
  C   C547      1.0  0.86122  0.23964  0.11965  1.0000
  C   C548      1.0  0.87677  0.21658  0.09723  1.0000
  C   C549      1.0  0.88612  0.21292  0.12942  1.0000
  C   C550      1.0  0.83680  0.18828  0.11707  1.0000
  C   C551      1.0  0.85266  0.24294  0.13890  1.0000
  C   C552      1.0  0.85904  0.22079  0.08184  1.0000
  C   C553      1.0  0.89401  0.18846  0.12772  1.0000
  C   C554      1.0  0.83256  0.16128  0.10664  1.0000
  H   H921      1.0  0.88081  0.25882  0.11704  1.0000
  H   H922      1.0  0.84485  0.24067  0.11044  1.0000
  H   H923      1.0  0.88038  0.19844  0.09318  1.0000
  H   H924      1.0  0.89802  0.23472  0.09719  1.0000
  H   H925      1.0  0.90601  0.23274  0.12914  1.0000
  H   H926      1.0  0.87851  0.21168  0.14330  1.0000
  H   H927      1.0  0.83228  0.18280  0.13142  1.0000
  H   H928      1.0  0.81974  0.19329  0.11182  1.0000
  H   H929      1.0  0.83422  0.22398  0.14314  1.0000
  H   H930      1.0  0.87045  0.24852  0.14882  1.0000
  H   H931      1.0  0.86718  0.21804  0.06872  1.0000
  H   H932      1.0  0.83664  0.20541  0.08199  1.0000
  H   H933      1.0  0.86102  0.24244  0.08220  1.0000
  H   H934      1.0  0.91121  0.19195  0.13775  1.0000
  H   H935      1.0  0.90216  0.18711  0.11441  1.0000
  H   H936      1.0  0.87621  0.16821  0.13094  1.0000
  H   H937      1.0  0.81876  0.14267  0.11429  1.0000
  H   H938      1.0  0.85189  0.15915  0.10446  1.0000
  H   H939      1.0  0.82125  0.15924  0.09350  1.0000
  S   S161      1.0  0.68626  0.18729  0.21008  1.0000
  N   N41       1.0  0.73429  0.14904  0.17481  1.0000
  H   H940      1.0  0.75365  0.13878  0.21859  1.0000
  C   C555      1.0  0.50037  0.45835  0.23003  1.0000
  H   H941      1.0  0.60967  0.03168  0.03265  1.0000
  C   C556      1.0  0.70329  0.13767  0.17826  1.0000
  S   S162      1.0  0.70445  0.99150  0.07128  1.0000
  C   C557      1.0  0.87422  0.47669  0.22051  1.0000
  C   C558      1.0  0.72811  0.11837  0.14604  1.0000
  C   C559      1.0  0.68452  0.14221  0.16367  1.0000
  H   H942      1.0  0.91907  0.45913  0.16556  1.0000
  S   S163      1.0  0.85548  0.39446  0.21167  1.0000
  C   C560      1.0  0.54702  0.46117  0.22674  1.0000
  C   C561      1.0  0.74542  0.20130  0.17351  1.0000
  C   C562      1.0  0.85421  0.03758  0.12857  1.0000
  H   H943      1.0  0.72540  0.19632  0.18010  1.0000
  H   H944      1.0  0.72403  0.11563  0.20481  1.0000
  H   H945      1.0  0.69972  0.14672  0.19095  1.0000
  H   H946      1.0  0.94003  0.48246  0.22723  1.0000
  H   H947      1.0  0.94450  0.24724  0.01479  1.0000
  H   H948      1.0  0.91466  0.36459  0.14443  1.0000
  H   H949      1.0  0.92211  0.41996  0.15152  1.0000
  C   C563      1.0  0.90325  0.44359  0.22082  1.0000
  C   C564      1.0  0.73749  0.23409  0.21169  1.0000
  H   H950      1.0  0.73456  0.13614  0.13680  1.0000
  H   H951      1.0  0.70499  0.10635  0.14596  1.0000
  H   H952      1.0  0.73586  0.10373  0.14045  1.0000
  H   H953      1.0  0.68805  0.16435  0.16351  1.0000
  S   S164      1.0  0.68622  0.11972  0.23008  1.0000
  H   H954      1.0  0.68700  0.13548  0.15001  1.0000
  C   C565      1.0  0.74529  0.17532  0.16398  1.0000
  C   C566      1.0  0.66548  0.05065  0.02931  1.0000
  C   C567      1.0  0.73316  0.04376  0.99047  1.0000
  C   C568      1.0  0.82871  0.00825  0.09213  1.0000
  C   C569      1.0  0.91761  0.47275  0.22435  1.0000
  C   C570      1.0  0.85996  0.44762  0.21659  1.0000
  H   H955      1.0  0.80978  0.01883  0.12180  1.0000
  H   H956      1.0  0.68107  0.01712  0.04646  1.0000
  H   H957      1.0  0.86790  0.37225  0.17748  1.0000
  H   H958      1.0  0.75888  0.12053  0.19980  1.0000
  C   C571      1.0  0.76595  0.24945  0.21727  1.0000
  H   H959      1.0  0.95183  0.37275  0.16888  1.0000
  Fe  Fe81      1.0  0.60576  0.09326  0.22609  1.0000
  H   H960      1.0  0.88006  0.34986  0.16652  1.0000
  H   H961      1.0  0.84697  0.26066  0.13930  1.0000
  H   H962      1.0  0.74858  0.21771  0.16353  1.0000
  S   S165      1.0  0.77171  0.01633  0.06349  1.0000
  S   S166      1.0  0.97641  0.23038  0.05551  1.0000
  H   H963      1.0  0.83762  0.43804  0.21341  1.0000
  C   C572      1.0  0.95401  0.26066  0.00363  1.0000
  C   C573      1.0  0.66605  0.04253  0.00941  1.0000
  N   N42       1.0  0.64689  0.02775  0.04140  1.0000
  H   H964      1.0  0.85167  0.04930  0.14029  1.0000
  H   H965      1.0  0.63481  0.02524  0.06930  1.0000
  H   H966      1.0  0.63730  0.05577  0.05833  1.0000
  H   H967      1.0  0.77849  0.26990  0.21191  1.0000
  H   H968      1.0  0.81161  0.01486  0.09081  1.0000
  C   C574      1.0  0.73322  0.19645  0.23113  1.0000
  C   C575      1.0  0.87431  0.43088  0.21687  1.0000
  H   H969      1.0  0.68059  0.06154  0.00238  1.0000
  C   C576      1.0  0.52497  0.12849  0.21807  1.0000
  H   H970      1.0  0.95186  0.42930  0.19957  1.0000
  S   S167      1.0  0.91200  0.37113  0.23100  1.0000
  C   C577      1.0  0.91272  0.38494  0.18225  1.0000
  H   H971      1.0  0.67349  0.06485  0.08260  1.0000
  C   C578      1.0  0.65793  0.00634  0.04418  1.0000
  C   C579      1.0  0.96072  0.42051  0.18923  1.0000
  H   H972      1.0  0.73768  0.06553  0.99245  1.0000
  C   C580      1.0  0.50813  0.07662  0.23391  1.0000
  H   H973      1.0  0.86980  0.00224  0.10665  1.0000
  H   H974      1.0  0.93671  0.45736  0.18585  1.0000
  H   H975      1.0  0.95591  0.44389  0.15893  1.0000
  C   C581      1.0  0.51302  0.48768  0.23279  1.0000
  N   N43       1.0  0.82602  0.99233  0.10926  1.0000
  S   S168      1.0  0.62661  0.06673  0.23616  1.0000
  H   H976      1.0  0.97384  0.40545  0.15938  1.0000
  C   C582      1.0  0.82824  0.99281  0.07430  1.0000
  H   H977      1.0  0.72078  0.17635  0.23683  1.0000
  H   H978      1.0  0.85861  0.16426  0.98824  1.0000
  H   H979      1.0  0.97935  0.43877  0.18417  1.0000
  C   C583      1.0  0.59542  0.99156  0.04524  1.0000
  S   S169      1.0  0.81378  0.25522  0.23672  1.0000
  C   C584      1.0  0.90317  0.48944  0.22435  1.0000
  H   H980      1.0  0.86286  0.48926  0.22039  1.0000
  Fe  Fe82      1.0  0.65547  0.10544  0.25240  1.0000
  H   H981      1.0  0.57860  0.12391  0.27300  1.0000
  S   S170      1.0  0.67110  0.11541  0.28205  1.0000
  H   H982      1.0  0.54667  0.09768  0.32063  1.0000
  Fe  Fe83      1.0  0.63702  0.08194  0.38601  1.0000
  S   S171      1.0  0.62772  0.11883  0.38831  1.0000
  S   S172      1.0  0.63722  0.06024  0.35922  1.0000
  Fe  Fe84      1.0  0.63326  0.07283  0.42798  1.0000
  S   S173      1.0  0.62490  0.11042  0.43247  1.0000
  S   S174      1.0  0.62644  0.03630  0.44703  1.0000
  Fe  Fe85      1.0  0.59537  0.09439  0.40819  1.0000
  S   S175      1.0  0.54832  0.07966  0.40558  1.0000
  Fe  Fe86      1.0  0.65873  0.13203  0.41219  1.0000
  S   S176      1.0  0.68919  0.17888  0.41139  1.0000
  S   S177      1.0  0.60272  0.05653  0.40437  1.0000
  S   S178      1.0  0.66918  0.09542  0.40915  1.0000
  Fe  Fe87      1.0  0.89174  0.34541  0.25524  1.0000
  H   H983      1.0  0.97064  0.45267  0.40598  1.0000
  S   S179      1.0  0.90133  0.36454  0.28406  1.0000
  C   C585      1.0  0.87528  0.44138  0.26800  1.0000
  H   H984      1.0  0.85914  0.26679  0.29055  1.0000
  Fe  Fe88      1.0  0.85650  0.36216  0.41014  1.0000
  S   S180      1.0  0.90080  0.37306  0.40298  1.0000
  S   S181      1.0  0.83883  0.39181  0.40136  1.0000
  Fe  Fe89      1.0  0.84552  0.30424  0.42305  1.0000
  S   S182      1.0  0.88968  0.31189  0.41681  1.0000
  S   S183      1.0  0.81736  0.26083  0.43386  1.0000
  Fe  Fe90      1.0  0.90379  0.35483  0.43002  1.0000
  S   S184      1.0  0.94422  0.38057  0.44778  1.0000
  Fe  Fe91      1.0  0.88271  0.32959  0.39059  1.0000
  S   S185      1.0  0.88958  0.31360  0.36307  1.0000
  S   S186      1.0  0.85996  0.34628  0.43763  1.0000
  S   S187      1.0  0.83820  0.31966  0.39638  1.0000
  C   C586      1.0  0.93618  0.36821  0.48459  1.0000
  C   C587      1.0  0.95415  0.38454  0.47142  1.0000
  H   H985      1.0  0.77221  0.29843  0.28343  1.0000
  C   C588      1.0  0.49672  0.46118  0.42372  1.0000
  H   H986      1.0  0.70776  0.01944  0.39320  1.0000
  C   C589      1.0  0.89707  0.34947  0.30580  1.0000
  C   C590      1.0  0.89729  0.32362  0.30867  1.0000
  C   C591      1.0  0.89490  0.31302  0.32622  1.0000
  C   C592      1.0  0.89219  0.32802  0.34120  1.0000
  C   C593      1.0  0.89166  0.35374  0.33831  1.0000
  C   C594      1.0  0.89431  0.36445  0.32076  1.0000
  H   H987      1.0  0.90014  0.31219  0.29742  1.0000
  H   H988      1.0  0.89567  0.29328  0.32824  1.0000
  H   H989      1.0  0.88964  0.36559  0.34963  1.0000
  H   H990      1.0  0.89435  0.38457  0.31882  1.0000
  C   C595      1.0  0.72519  0.20080  0.41735  1.0000
  C   C596      1.0  0.73674  0.22933  0.41300  1.0000
  C   C597      1.0  0.76487  0.24789  0.41782  1.0000
  C   C598      1.0  0.78190  0.23816  0.42715  1.0000
  C   C599      1.0  0.77049  0.20957  0.43135  1.0000
  C   C600      1.0  0.74237  0.19094  0.42640  1.0000
  H   H991      1.0  0.72363  0.23727  0.40612  1.0000
  H   H992      1.0  0.77315  0.26986  0.41472  1.0000
  H   H993      1.0  0.78341  0.20183  0.43865  1.0000
  H   H994      1.0  0.73383  0.16913  0.42994  1.0000
  C   C601      1.0  0.53087  0.09688  0.41606  1.0000
  C   C602      1.0  0.50147  0.08316  0.41638  1.0000
  C   C603      1.0  0.96338  0.44698  0.41990  1.0000
  H   H995      1.0  0.93408  0.47342  0.38954  1.0000
  C   C604      1.0  0.53031  0.13765  0.43060  1.0000
  C   C605      1.0  0.54535  0.12399  0.42347  1.0000
  H   H996      1.0  0.58585  0.07232  0.46010  1.0000
  H   H997      1.0  0.55120  0.10604  0.46315  1.0000
  H   H998      1.0  0.56804  0.13468  0.42331  1.0000
  C   C606      1.0  0.61535  0.02569  0.46951  1.0000
  C   C607      1.0  0.81294  0.33200  0.28694  1.0000
  C   C608      1.0  0.61730  0.04472  0.48329  1.0000
  H   H999      1.0  0.54262  0.48301  0.39023  1.0000
  H   H1000     1.0  0.84912  0.39876  0.25779  1.0000
  H   H1001     1.0  0.63092  0.48060  0.39285  1.0000
  H   H1002     1.0  0.63945  0.01002  0.37597  1.0000
  H   H1003     1.0  0.93139  0.43811  0.38839  1.0000
  H   H1004     1.0  0.58407  0.11601  0.32477  1.0000
  H   H1005     1.0  0.52827  0.00224  0.46167  1.0000
  C   C609      1.0  0.65919  0.09951  0.30313  1.0000
  C   C610      1.0  0.64440  0.07044  0.30485  1.0000
  C   C611      1.0  0.63738  0.05881  0.32205  1.0000
  C   C612      1.0  0.64459  0.07604  0.33774  1.0000
  C   C613      1.0  0.65856  0.10514  0.33596  1.0000
  C   C614      1.0  0.66610  0.11671  0.31881  1.0000
  H   H1006     1.0  0.63933  0.05686  0.29300  1.0000
  H   H1007     1.0  0.62673  0.03628  0.32324  1.0000
  H   H1008     1.0  0.66435  0.11870  0.34785  1.0000
  H   H1009     1.0  0.67764  0.13920  0.31769  1.0000
  H   H1010     1.0  0.53212  0.04985  0.28025  1.0000
  C   C615      1.0  0.50972  0.44496  0.42987  1.0000
  C   C616      1.0  0.70094  0.05586  0.38785  1.0000
  C   C617      1.0  0.93779  0.45507  0.44501  1.0000
  H   H1011     1.0  0.78275  0.24924  0.26771  1.0000
  H   H1012     1.0  0.87488  0.43353  0.30424  1.0000
  C   C618      1.0  0.84744  0.42233  0.41453  1.0000
  C   C619      1.0  0.85427  0.42340  0.43292  1.0000
  C   C620      1.0  0.86242  0.44851  0.44293  1.0000
  C   C621      1.0  0.79543  0.27925  0.31019  1.0000
  H   H1013     1.0  0.85334  0.40491  0.43938  1.0000
  H   H1014     1.0  0.86774  0.44929  0.45715  1.0000
  H   H1015     1.0  0.83555  0.31886  0.31538  1.0000
  H   H1016     1.0  0.59527  0.99854  0.39099  1.0000
  S   S188      1.0  0.88874  0.30608  0.24160  1.0000
  H   H1017     1.0  0.56441  0.02309  0.45962  1.0000
  C   C622      1.0  0.57084  0.07775  0.30759  1.0000
  H   H1018     1.0  0.53805  0.09955  0.36372  1.0000
  N   N44       1.0  0.66448  0.00846  0.39932  1.0000
  H   H1019     1.0  0.93797  0.45332  0.25703  1.0000
  C   C623      1.0  0.56598  0.09505  0.32277  1.0000
  H   H1020     1.0  0.59146  0.07793  0.31113  1.0000
  H   H1021     1.0  0.66969  0.04091  0.41918  1.0000
  H   H1022     1.0  0.82540  0.24028  0.28372  1.0000
  C   C624      1.0  0.83631  0.25974  0.29214  1.0000
  C   C625      1.0  0.82074  0.29989  0.32208  1.0000
  H   H1023     1.0  0.78111  0.23348  0.28878  1.0000
  C   C626      1.0  0.92208  0.45150  0.39377  1.0000
  H   H1024     1.0  0.79892  0.46971  0.43322  1.0000
  H   H1025     1.0  0.68534  0.06160  0.38121  1.0000
  C   C627      1.0  0.49050  0.42098  0.28932  1.0000
  H   H1026     1.0  0.74125  0.25592  0.27327  1.0000
  H   H1027     1.0  0.74156  0.24726  0.29688  1.0000
  C   C628      1.0  0.51850  0.07985  0.28874  1.0000
  H   H1028     1.0  0.83557  0.33806  0.28556  1.0000
  H   H1029     1.0  0.56052  0.03592  0.26586  1.0000
  H   H1030     1.0  0.56967  0.12659  0.29540  1.0000
  H   H1031     1.0  0.76105  0.48482  0.48192  1.0000
  N   N45       1.0  0.81382  0.23049  0.37355  1.0000
  C   C629      1.0  0.83359  0.24797  0.38864  1.0000
  C   C630      1.0  0.80622  0.24964  0.36218  1.0000
  C   C631      1.0  0.82746  0.21701  0.36194  1.0000
  C   C632      1.0  0.78831  0.20767  0.38155  1.0000
  C   C633      1.0  0.84568  0.23274  0.40117  1.0000
  C   C634      1.0  0.78458  0.25829  0.37007  1.0000
  C   C635      1.0  0.85558  0.23732  0.35401  1.0000
  C   C636      1.0  0.76505  0.18821  0.36797  1.0000
  H   H1032     1.0  0.85167  0.26650  0.38345  1.0000
  H   H1033     1.0  0.82297  0.25707  0.39733  1.0000
  H   H1034     1.0  0.79811  0.24030  0.34852  1.0000
  H   H1035     1.0  0.82527  0.26952  0.35971  1.0000
  H   H1036     1.0  0.83100  0.20078  0.36941  1.0000
  H   H1037     1.0  0.81321  0.20535  0.35031  1.0000
  H   H1038     1.0  0.79422  0.19356  0.38966  1.0000
  H   H1039     1.0  0.77879  0.21630  0.39153  1.0000
  H   H1040     1.0  0.86067  0.24827  0.41112  1.0000
  H   H1041     1.0  0.82920  0.21667  0.40917  1.0000
  H   H1042     1.0  0.85759  0.22352  0.39388  1.0000
  H   H1043     1.0  0.79067  0.26709  0.38394  1.0000
  H   H1044     1.0  0.78318  0.27482  0.36172  1.0000
  H   H1045     1.0  0.76326  0.24047  0.37004  1.0000
  H   H1046     1.0  0.85338  0.25346  0.34571  1.0000
  H   H1047     1.0  0.86302  0.22531  0.34510  1.0000
  H   H1048     1.0  0.87225  0.24777  0.36463  1.0000
  H   H1049     1.0  0.76768  0.16907  0.36481  1.0000
  H   H1050     1.0  0.76437  0.19833  0.35519  1.0000
  H   H1051     1.0  0.74418  0.18185  0.37391  1.0000
  H   H1052     1.0  0.84310  0.44553  0.39206  1.0000
  H   H1053     1.0  0.58944  0.46272  0.37429  1.0000
  H   H1054     1.0  0.50889  0.14889  0.37294  1.0000
  H   H1055     1.0  0.81585  0.45902  0.45752  1.0000
  H   H1056     1.0  0.49328  0.08116  0.37901  1.0000
  H   H1057     1.0  0.79007  0.25807  0.31554  1.0000
  H   H1058     1.0  0.54071  0.43862  0.37713  1.0000
  C   C637      1.0  0.91815  0.44259  0.28340  1.0000
  H   H1059     1.0  0.58794  0.11879  0.46094  1.0000
  H   H1060     1.0  0.83809  0.40700  0.27896  1.0000
  H   H1061     1.0  0.49721  0.42287  0.43218  1.0000
  N   N46       1.0  0.94624  0.46169  0.42569  1.0000
  H   H1062     1.0  0.71525  0.03633  0.42230  1.0000
  C   C638      1.0  0.91929  0.44933  0.41436  1.0000
  H   H1063     1.0  0.73452  0.22141  0.27936  1.0000
  H   H1064     1.0  0.50151  0.12212  0.32959  1.0000
  H   H1065     1.0  0.92364  0.48639  0.26226  1.0000
  C   C639      1.0  0.55526  0.48618  0.43058  1.0000
  C   C640      1.0  0.74734  0.24393  0.28316  1.0000
  H   H1066     1.0  0.50131  0.05627  0.23982  1.0000
  H   H1067     1.0  0.65107  0.00643  0.42672  1.0000
  C   C641      1.0  0.60465  0.99708  0.47369  1.0000
  C   C642      1.0  0.57875  0.04612  0.27551  1.0000
  H   H1068     1.0  0.90889  0.42324  0.29141  1.0000
  H   H1069     1.0  0.56408  0.08407  0.33566  1.0000
  C   C643      1.0  0.85724  0.47160  0.41620  1.0000
  H   H1070     1.0  0.86072  0.45126  0.26737  1.0000
  C   C644      1.0  0.49009  0.13229  0.33657  1.0000
  H   H1071     1.0  0.90679  0.42671  0.41729  1.0000
  N   N47       1.0  0.79951  0.27906  0.29016  1.0000
  H   H1072     1.0  0.53188  0.12708  0.35417  1.0000
  C   C645      1.0  0.80766  0.46634  0.46895  1.0000
  H   H1073     1.0  0.80878  0.33644  0.30087  1.0000
  C   C646      1.0  0.52676  0.11264  0.36552  1.0000
  H   H1074     1.0  0.54151  0.15890  0.43597  1.0000
  H   H1075     1.0  0.54894  0.44481  0.43804  1.0000
  H   H1076     1.0  0.57971  0.47951  0.34792  1.0000
  C   C647      1.0  0.79387  0.30134  0.28106  1.0000
  C   C648      1.0  0.54795  0.48286  0.37588  1.0000
  C   C649      1.0  0.53897  0.45744  0.43321  1.0000
  C   C650      1.0  0.85655  0.40991  0.27106  1.0000
  C   C651      1.0  0.61095  0.99282  0.39761  1.0000
  C   C652      1.0  0.84839  0.44631  0.40628  1.0000
  N   N48       1.0  0.57015  0.08696  0.28848  1.0000
  C   C653      1.0  0.53912  0.01951  0.43571  1.0000
  C   C654      1.0  0.69566  0.02184  0.42867  1.0000
  H   H1077     1.0  0.79515  0.29960  0.26616  1.0000
  H   H1078     1.0  0.49108  0.47119  0.31104  1.0000
  H   H1079     1.0  0.77081  0.20253  0.24609  1.0000
  H   H1080     1.0  0.57398  0.03571  0.28864  1.0000
  C   C655      1.0  0.59217  0.48096  0.38301  1.0000
  H   H1081     1.0  0.53534  0.12477  0.37836  1.0000
  H   H1082     1.0  0.48799  0.00241  0.46194  1.0000
  H   H1083     1.0  0.51352  0.05361  0.44580  1.0000
  H   H1084     1.0  0.55508  0.05554  0.30900  1.0000
  H   H1085     1.0  0.69634  0.03053  0.44244  1.0000
  H   H1086     1.0  0.62633  0.13536  0.28150  1.0000
  H   H1087     1.0  0.75777  0.45738  0.44959  1.0000
  N   N49       1.0  0.89875  0.45638  0.28178  1.0000
  C   C656      1.0  0.58146  0.11831  0.28710  1.0000
  H   H1088     1.0  0.86765  0.39921  0.27796  1.0000
  H   H1089     1.0  0.50514  0.15113  0.34422  1.0000
  H   H1090     1.0  0.54126  0.07850  0.26566  1.0000
  H   H1091     1.0  0.53958  0.99980  0.43109  1.0000
  N   N50       1.0  0.54174  0.04729  0.46508  1.0000
  H   H1092     1.0  0.56268  0.07519  0.44343  1.0000
  H   H1093     1.0  0.71998  0.06480  0.37969  1.0000
  S   S189      1.0  0.63378  0.13111  0.24298  1.0000
  H   H1094     1.0  0.80795  0.34599  0.27808  1.0000
  C   C657      1.0  0.82846  0.28286  0.28561  1.0000
  H   H1095     1.0  0.83246  0.28905  0.32814  1.0000
  C   C658      1.0  0.51456  0.04846  0.46021  1.0000
  H   H1096     1.0  0.89497  0.46977  0.32773  1.0000
  C   C659      1.0  0.56544  0.07336  0.45815  1.0000
  H   H1097     1.0  0.91525  0.35264  0.48062  1.0000
  C   C660      1.0  0.61285  0.13549  0.29257  1.0000
  C   C661      1.0  0.58813  0.07800  0.27724  1.0000
  H   H1098     1.0  0.83189  0.25506  0.30650  1.0000
  H   H1099     1.0  0.51051  0.44347  0.37134  1.0000
  C   C662      1.0  0.66909  0.01975  0.41847  1.0000
  H   H1100     1.0  0.61004  0.08725  0.28278  1.0000
  H   H1101     1.0  0.88320  0.44382  0.25418  1.0000
  C   C663      1.0  0.54357  0.02242  0.45635  1.0000
  H   H1102     1.0  0.51337  0.06626  0.46749  1.0000
  C   C664      1.0  0.50083  0.12426  0.43035  1.0000
  H   H1103     1.0  0.61747  0.15773  0.29518  1.0000
  H   H1104     1.0  0.81287  0.30736  0.33367  1.0000
  S   S190      1.0  0.84827  0.33744  0.24605  1.0000
  H   H1105     1.0  0.55623  0.03670  0.42886  1.0000
  C   C665      1.0  0.54082  0.07307  0.28010  1.0000
  H   H1106     1.0  0.51857  0.01831  0.43117  1.0000
  C   C666      1.0  0.74768  0.48115  0.46960  1.0000
  H   H1107     1.0  0.51256  0.06973  0.30192  1.0000
  H   H1108     1.0  0.95033  0.42379  0.41954  1.0000
  C   C667      1.0  0.48844  0.13380  0.37801  1.0000
  H   H1109     1.0  0.49910  0.07069  0.27995  1.0000
  C   C668      1.0  0.86449  0.47278  0.43451  1.0000
  H   H1110     1.0  0.52466  0.10260  0.28988  1.0000
  H   H1111     1.0  0.98001  0.47840  0.45884  1.0000
  C   C669      1.0  0.56921  0.10155  0.46661  1.0000
  H   H1112     1.0  0.58952  0.08600  0.26335  1.0000
  H   H1113     1.0  0.83093  0.28403  0.27078  1.0000
  H   H1114     1.0  0.84514  0.30306  0.29083  1.0000
  C   C670      1.0  0.88594  0.45554  0.29970  1.0000
  H   H1115     1.0  0.82074  0.46673  0.48097  1.0000
  C   C671      1.0  0.64029  0.01228  0.39090  1.0000
  H   H1116     1.0  0.77720  0.28356  0.31298  1.0000
  H   H1117     1.0  0.49703  0.42491  0.30378  1.0000
  H   H1118     1.0  0.90556  0.45914  0.41806  1.0000
  H   H1119     1.0  0.59606  0.04252  0.26991  1.0000
  C   C672      1.0  0.77873  0.25098  0.28214  1.0000
  H   H1120     1.0  0.64321  0.03407  0.39334  1.0000
  H   H1121     1.0  0.90934  0.41824  0.25777  1.0000
  H   H1122     1.0  0.94241  0.42611  0.26848  1.0000
  H   H1123     1.0  0.70702  0.06609  0.40139  1.0000
  H   H1124     1.0  0.58113  0.47192  0.39564  1.0000
  C   C673      1.0  0.92728  0.43484  0.26550  1.0000
  C   C674      1.0  0.49504  0.09321  0.36657  1.0000
  H   H1125     1.0  0.61915  0.12767  0.30479  1.0000
  H   H1126     1.0  0.49067  0.44427  0.26588  1.0000
  H   H1127     1.0  0.53600  0.44953  0.35470  1.0000
  C   C675      1.0  0.53343  0.45190  0.36926  1.0000
  H   H1128     1.0  0.93783  0.45643  0.29112  1.0000
  H   H1129     1.0  0.86931  0.46284  0.29863  1.0000
  C   C676      1.0  0.54610  0.04735  0.48529  1.0000
  H   H1130     1.0  0.49020  0.06201  0.41089  1.0000
  H   H1131     1.0  0.60964  0.99527  0.41234  1.0000
  H   H1132     1.0  0.50620  0.41587  0.28268  1.0000
  H   H1133     1.0  0.90068  0.44350  0.38738  1.0000
  H   H1134     1.0  0.68578  0.01604  0.37414  1.0000
  H   H1135     1.0  0.93365  0.43307  0.44794  1.0000
  H   H1136     1.0  0.78578  0.45095  0.47141  1.0000
  H   H1137     1.0  0.51195  0.46444  0.28450  1.0000
  H   H1138     1.0  0.49346  0.12961  0.39198  1.0000
  H   H1139     1.0  0.91740  0.45554  0.44734  1.0000
  C   C677      1.0  0.49089  0.44732  0.28074  1.0000
  H   H1140     1.0  0.72941  0.46055  0.47154  1.0000
  C   C678      1.0  0.69009  0.02379  0.38842  1.0000
  C   C679      1.0  0.48650  0.09676  0.42356  1.0000
  C   C680      1.0  0.91571  0.48613  0.27597  1.0000
  H   H1141     1.0  0.48828  0.31966  0.27216  1.0000
  H   H1142     1.0  0.95099  0.46468  0.47323  1.0000
  H   H1143     1.0  0.62570  0.06681  0.48050  1.0000
  C   C681      1.0  0.90672  0.47251  0.31519  1.0000
  H   H1144     1.0  0.48908  0.07757  0.35521  1.0000
  H   H1145     1.0  0.69539  0.00106  0.43033  1.0000
  C   C682      1.0  0.95796  0.47455  0.46003  1.0000
  C   C683      1.0  0.98136  0.40460  0.47710  1.0000
  H   H1146     1.0  0.57299  0.10278  0.48140  1.0000
  C   C684      1.0  0.48714  0.02253  0.46432  1.0000
  C   C685      1.0  0.76203  0.47961  0.45217  1.0000
  H   H1147     1.0  0.76715  0.48261  0.41449  1.0000
  H   H1148     1.0  0.92284  0.46499  0.31788  1.0000
  H   H1149     1.0  0.74971  0.48355  0.44117  1.0000
  C   C686      1.0  0.94533  0.37175  0.50296  1.0000
  H   H1150     1.0  0.53585  0.02237  0.50939  1.0000
  H   H1151     1.0  0.69253  0.02419  0.57965  1.0000
  H   H1152     1.0  0.60689  0.02934  0.57625  1.0000
  C   C687      1.0  0.59865  0.00671  0.50514  1.0000
  C   C688      1.0  0.60931  0.03533  0.50095  1.0000
  C   C689      1.0  0.53319  0.01877  0.49454  1.0000
  H   H1153     1.0  0.54446  0.00615  0.49113  1.0000
  H   H1154     1.0  0.61158  0.05043  0.51150  1.0000
  H   H1155     1.0  0.67703  0.04711  0.57536  1.0000
  H   H1156     1.0  0.51050  0.00645  0.49136  1.0000
  C   C690      1.0  0.97247  0.39186  0.50864  1.0000
  H   H1157     1.0  0.60713  0.03675  0.59969  1.0000
  C   C691      1.0  0.63718  0.00235  0.56313  1.0000
  H   H1158     1.0  0.63915  0.05351  0.58792  1.0000
  C   C692      1.0  0.97422  0.31550  0.50031  1.0000
  H   H1159     1.0  0.93123  0.35863  0.51287  1.0000
  H   H1160     1.0  0.63130  0.01069  0.60833  1.0000
  H   H1161     1.0  0.49464  0.99981  0.67338  1.0000
  H   H1162     1.0  0.63719  0.02213  0.55839  1.0000
  C   C693      1.0  0.62589  0.00875  0.59375  1.0000
  H   H1163     1.0  0.68278  0.06354  0.60434  1.0000
  H   H1164     1.0  0.96369  0.31807  0.51243  1.0000
  C   C694      1.0  0.61975  0.03369  0.58898  1.0000
  H   H1165     1.0  0.52170  0.00806  0.73292  1.0000
  H   H1166     1.0  0.53807  0.06094  0.49214  1.0000
  H   H1167     1.0  0.70871  0.05126  0.60523  1.0000
  H   H1168     1.0  0.56893  0.05665  0.48911  1.0000
  C   C695      1.0  0.68574  0.04419  0.60331  1.0000
  H   H1169     1.0  0.60553  0.98952  0.59247  1.0000
  C   C696      1.0  0.67615  0.03015  0.58436  1.0000
  H   H1170     1.0  0.67583  0.03069  0.61473  1.0000
  S   S191      1.0  0.58986  0.99646  0.52798  1.0000
  N   N51       1.0  0.64751  0.00537  0.58256  1.0000
  H   H1171     1.0  0.97723  0.29630  0.50123  1.0000
  H   H1172     1.0  0.49842  0.00181  0.70308  1.0000
  H   H1173     1.0  0.67676  0.00815  0.55069  1.0000
  H   H1174     1.0  0.68074  0.99080  0.60959  1.0000
  H   H1175     1.0  0.95944  0.31246  0.48868  1.0000
  H   H1176     1.0  0.64693  0.99730  0.53550  1.0000
  C   C697      1.0  0.65386  0.99457  0.54928  1.0000
  C   C698      1.0  0.70891  0.06912  0.86487  1.0000
  H   H1177     1.0  0.76116  0.07480  0.85335  1.0000
  Fe  Fe92      1.0  0.76364  0.04876  0.89190  1.0000
  S   S192      1.0  0.71949  0.03309  0.90203  1.0000
  S   S193      1.0  0.78830  0.09660  0.88944  1.0000
  C   C699      1.0  0.82219  0.11681  0.93711  1.0000
  H   H1178     1.0  0.96159  0.23663  0.80467  1.0000
  C   C700      1.0  0.72408  0.00431  0.96986  1.0000
  H   H1179     1.0  0.67564  0.04030  0.81162  1.0000
  S   S194      1.0  0.77458  0.02089  0.90992  1.0000
  Fe  Fe93      1.0  0.95876  0.26235  0.92160  1.0000
  Fe  Fe94      1.0  0.94821  0.21975  0.89064  1.0000
  S   S195      1.0  0.93297  0.25221  0.89537  1.0000
  S   S196      1.0  0.92019  0.17425  0.88131  1.0000
  H   H1180     1.0  0.69807  0.07947  0.89102  1.0000
  H   H1181     1.0  0.76542  0.09522  0.83322  1.0000
  C   C701      1.0  0.67636  0.05710  0.83903  1.0000
  H   H1182     1.0  0.70211  0.04651  0.86748  1.0000
  H   H1183     1.0  0.64639  0.04656  0.81633  1.0000
  C   C702      1.0  0.73063  0.03263  0.97275  1.0000
  H   H1184     1.0  0.75553  0.14271  0.84222  1.0000
  C   C703      1.0  0.75516  0.07401  0.83891  1.0000
  H   H1185     1.0  0.92068  0.15429  0.94733  1.0000
  C   C704      1.0  0.74263  0.12560  0.85122  1.0000
  H   H1186     1.0  0.71495  0.03778  0.83861  1.0000
  C   C705      1.0  0.66951  0.05519  0.81859  1.0000
  H   H1187     1.0  0.75693  0.11783  0.85736  1.0000
  H   H1188     1.0  0.72188  0.10647  0.82568  1.0000
  C   C706      1.0  0.95467  0.26938  0.97121  1.0000
  H   H1189     1.0  0.69974  0.10990  0.84200  1.0000
  C   C707      1.0  0.82505  0.11763  0.88710  1.0000
  C   C708      1.0  0.83575  0.14705  0.88791  1.0000
  C   C709      1.0  0.86473  0.16465  0.88641  1.0000
  C   C710      1.0  0.88346  0.15306  0.88379  1.0000
  C   C711      1.0  0.87270  0.12366  0.88274  1.0000
  C   C712      1.0  0.84377  0.10604  0.88454  1.0000
  H   H1190     1.0  0.82150  0.15629  0.88982  1.0000
  H   H1191     1.0  0.87252  0.18718  0.88718  1.0000
  H   H1192     1.0  0.88687  0.11437  0.88063  1.0000
  H   H1193     1.0  0.83595  0.08348  0.88383  1.0000
  H   H1194     1.0  0.66755  0.03524  0.84384  1.0000
  C   C713      1.0  0.71693  0.10361  0.84019  1.0000
  H   H1195     1.0  0.66865  0.06334  0.87564  1.0000
  N   N52       1.0  0.70696  0.07325  0.84493  1.0000
  S   S197      1.0  0.96943  0.31105  0.85927  1.0000
  H   H1196     1.0  0.66351  0.06644  0.84522  1.0000
  H   H1197     1.0  0.76392  0.06116  0.83201  1.0000
  S   S198      1.0  0.74938  0.01826  0.86812  1.0000
  C   C714      1.0  0.69118  0.07868  0.87668  1.0000
  H   H1198     1.0  0.69351  0.09979  0.87331  1.0000
  H   H1199     1.0  0.72048  0.06093  0.82044  1.0000
  H   H1200     1.0  0.67922  0.07592  0.81224  1.0000
  H   H1201     1.0  0.92413  0.23254  0.98372  1.0000
  H   H1202     1.0  0.73311  0.04581  0.96132  1.0000
  C   C715      1.0  0.85355  0.17738  0.93704  1.0000
  H   H1203     1.0  0.91493  0.20695  0.80030  1.0000
  H   H1204     1.0  0.83270  0.16881  0.94311  1.0000
  H   H1205     1.0  0.91150  0.19596  0.93923  1.0000
  C   C716      1.0  0.90846  0.21512  0.81226  1.0000
  H   H1206     1.0  0.81512  0.11745  0.95085  1.0000
  C   C717      1.0  0.94254  0.25234  0.98595  1.0000
  H   H1207     1.0  0.96881  0.22061  0.95873  1.0000
  C   C718      1.0  0.89915  0.22718  0.85115  1.0000
  C   C719      1.0  0.87637  0.16335  0.96240  1.0000
  H   H1208     1.0  0.96511  0.19830  0.81636  1.0000
  H   H1209     1.0  0.89026  0.19647  0.81729  1.0000
  H   H1210     1.0  0.86265  0.11796  0.94287  1.0000
  H   H1211     1.0  0.91584  0.18856  0.84096  1.0000
  Fe  Fe95      1.0  0.72994  0.00378  0.91894  1.0000
  N   N53       1.0  0.86997  0.16151  0.94239  1.0000
  H   H1212     1.0  0.88133  0.22494  0.79417  1.0000
  C   C720      1.0  0.89744  0.23564  0.80510  1.0000
  H   H1213     1.0  0.73577  0.13582  0.86184  1.0000
  H   H1214     1.0  0.85272  0.21783  0.93877  1.0000
  H   H1215     1.0  0.84879  0.17491  0.92226  1.0000
  H   H1216     1.0  0.95120  0.21114  0.84649  1.0000
  S   S199      1.0  0.93899  0.25803  0.94920  1.0000
  C   C721      1.0  0.86790  0.20909  0.94150  1.0000
  S   S200      1.0  0.97221  0.22844  0.91718  1.0000
  H   H1217     1.0  0.81418  0.09433  0.93303  1.0000
  H   H1218     1.0  0.90317  0.21568  0.86236  1.0000
  H   H1219     1.0  0.88139  0.21206  0.84264  1.0000
  H   H1220     1.0  0.89188  0.24219  0.85674  1.0000
  H   H1221     1.0  0.73074  0.07959  0.87046  1.0000
  C   C722      1.0  0.72315  0.06033  0.83528  1.0000
  H   H1222     1.0  0.94671  0.16923  0.83033  1.0000
  H   H1223     1.0  0.85809  0.12952  0.92124  1.0000
  H   H1224     1.0  0.89453  0.17860  0.91881  1.0000
  C   C723      1.0  0.89773  0.17484  0.93319  1.0000
  Fe  Fe96      1.0  0.70617  0.00071  0.87905  1.0000
  H   H1225     1.0  0.89163  0.18493  0.96694  1.0000
  H   H1226     1.0  0.88766  0.15067  0.96586  1.0000
  C   C724      1.0  0.95836  0.24675  0.81700  1.0000
  H   H1227     1.0  0.90483  0.13812  0.92565  1.0000
  H   H1228     1.0  0.88579  0.22024  0.93269  1.0000
  H   H1229     1.0  0.81204  0.12573  0.92757  1.0000
  C   C725      1.0  0.97392  0.34437  0.83011  1.0000
  H   H1230     1.0  0.97572  0.37042  0.80759  1.0000
  H   H1231     1.0  0.83422  0.15825  0.97040  1.0000
  C   C726      1.0  0.92614  0.24351  0.84075  1.0000
  C   C727      1.0  0.85445  0.13130  0.93579  1.0000
  H   H1232     1.0  0.92836  0.17479  0.81151  1.0000
  H   H1233     1.0  0.91427  0.25446  0.79928  1.0000
  C   C728      1.0  0.94452  0.18571  0.82231  1.0000
  C   C729      1.0  0.91532  0.15820  0.93349  1.0000
  H   H1234     1.0  0.93540  0.17058  0.92685  1.0000
  Fe  Fe97      1.0  0.97258  0.28237  0.88173  1.0000
  N   N54       1.0  0.93219  0.22718  0.82624  1.0000
  C   C730      1.0  0.93576  0.20344  0.83491  1.0000
  H   H1235     1.0  0.88709  0.24219  0.81568  1.0000
  H   H1236     1.0  0.92624  0.26319  0.83569  1.0000
  H   H1237     1.0  0.94337  0.25130  0.85121  1.0000
  H   H1238     1.0  0.95362  0.34219  0.83403  1.0000
  H   H1239     1.0  0.95631  0.26553  0.81222  1.0000
  C   C731      1.0  0.97817  0.21106  0.96833  1.0000
  H   H1240     1.0  0.87496  0.21393  0.95583  1.0000
  H   H1241     1.0  0.84283  0.13028  0.97705  1.0000
  C   C732      1.0  0.85135  0.15318  0.97494  1.0000
  H   H1242     1.0  0.96624  0.18801  0.96622  1.0000
  C   C733      1.0  0.97815  0.29521  0.97446  1.0000
  H   H1243     1.0  0.69484  0.99067  0.82767  1.0000
  H   H1244     1.0  0.97474  0.21592  0.98233  1.0000
  Fe  Fe98      1.0  0.95036  0.78276  0.08659  1.0000
  S   S201      1.0  0.93950  0.73862  0.07731  1.0000
  S   S202      1.0  0.92314  0.80457  0.08026  1.0000
  C   C734      1.0  0.95627  0.88385  0.11723  1.0000
  C   C735      1.0  0.54834  0.51156  0.18382  1.0000
  H   H1245     1.0  0.86334  0.64948  0.21673  1.0000
  Fe  Fe99      1.0  0.90835  0.61467  0.22013  1.0000
  S   S203      1.0  0.88240  0.57024  0.20989  1.0000
  S   S204      1.0  0.92489  0.65467  0.20277  1.0000
  H   H1246     1.0  0.76806  0.93021  0.12130  1.0000
  C   C736      1.0  0.69465  0.73930  0.00083  1.0000
  C   C737      1.0  0.97230  0.88794  0.09972  1.0000
  H   H1247     1.0  0.74589  0.77545  0.16617  1.0000
  Fe  Fe100     1.0  0.77571  0.77578  0.10915  1.0000
  S   S205      1.0  0.75269  0.73519  0.09379  1.0000
  S   S206      1.0  0.81537  0.78157  0.12461  1.0000
  Fe  Fe101     1.0  0.72732  0.79151  0.10314  1.0000
  S   S207      1.0  0.70049  0.75057  0.08817  1.0000
  S   S208      1.0  0.71022  0.82309  0.10906  1.0000
  Fe  Fe102     1.0  0.71545  0.73009  0.11009  1.0000
  S   S209      1.0  0.69484  0.68812  0.12513  1.0000
  Fe  Fe103     1.0  0.74029  0.75956  0.07358  1.0000
  S   S210      1.0  0.75189  0.76283  0.04369  1.0000
  S   S211      1.0  0.73912  0.77041  0.12573  1.0000
  S   S212      1.0  0.76642  0.80093  0.08820  1.0000
  H   H1248     1.0  0.77509  0.69230  0.03986  1.0000
  C   C738      1.0  0.75934  0.73230  0.15784  1.0000
  H   H1249     1.0  0.87816  0.98889  0.13396  1.0000
  H   H1250     1.0  0.76942  0.85566  0.01135  1.0000
  C   C739      1.0  0.74491  0.70129  0.18328  1.0000
  H   H1251     1.0  0.72362  0.69325  0.17684  1.0000
  H   H1252     1.0  0.53361  0.50922  0.17237  1.0000
  S   S213      1.0  0.65371  0.65071  0.20572  1.0000
  S   S214      1.0  0.66316  0.58266  0.22045  1.0000
  H   H1253     1.0  0.80741  0.97511  0.07105  1.0000
  H   H1254     1.0  0.77098  0.75379  0.15285  1.0000
  S   S215      1.0  0.74669  0.94269  0.07419  1.0000
  C   C740      1.0  0.59837  0.55734  0.16779  1.0000
  C   C741      1.0  0.55703  0.56604  0.16509  1.0000
  H   H1255     1.0  0.70310  0.79161  0.03034  1.0000
  H   H1256     1.0  0.75066  0.85057  0.05058  1.0000
  C   C742      1.0  0.72166  0.85698  0.10002  1.0000
  C   C743      1.0  0.70787  0.87330  0.10464  1.0000
  C   C744      1.0  0.71568  0.89995  0.09728  1.0000
  C   C745      1.0  0.73729  0.91044  0.08511  1.0000
  C   C746      1.0  0.75149  0.89437  0.08079  1.0000
  C   C747      1.0  0.74379  0.86783  0.08823  1.0000
  H   H1257     1.0  0.69080  0.86513  0.11382  1.0000
  H   H1258     1.0  0.70455  0.91203  0.10073  1.0000
  H   H1259     1.0  0.76843  0.90243  0.07153  1.0000
  H   H1260     1.0  0.75480  0.85566  0.08476  1.0000
  C   C748      1.0  0.75258  0.76787  0.00676  1.0000
  C   C749      1.0  0.73549  0.75753  0.02168  1.0000
  C   C750      1.0  0.70637  0.74323  0.01858  1.0000
  H   H1261     1.0  0.77512  0.77894  0.00890  1.0000
  H   H1262     1.0  0.69287  0.73489  0.02981  1.0000
  C   C751      1.0  0.68335  0.67821  0.14762  1.0000
  C   C752      1.0  0.68032  0.65210  0.15390  1.0000
  C   C753      1.0  0.67166  0.64345  0.17159  1.0000
  C   C754      1.0  0.66527  0.66053  0.18326  1.0000
  C   C755      1.0  0.66791  0.68643  0.17688  1.0000
  C   C756      1.0  0.67710  0.69534  0.15933  1.0000
  H   H1263     1.0  0.68495  0.63855  0.14505  1.0000
  H   H1264     1.0  0.66984  0.62351  0.17615  1.0000
  H   H1265     1.0  0.66285  0.69982  0.18563  1.0000
  H   H1266     1.0  0.67895  0.71531  0.15478  1.0000
  H   H1267     1.0  0.58689  0.53830  0.15901  1.0000
  H   H1268     1.0  0.60868  0.60838  0.17973  1.0000
  H   H1269     1.0  0.94150  0.74619  0.02366  1.0000
  H   H1270     1.0  0.87635  0.72085  0.04275  1.0000
  H   H1271     1.0  0.97201  0.83237  0.12871  1.0000
  H   H1272     1.0  0.83625  0.68807  0.06575  1.0000
  H   H1273     1.0  0.57728  0.54239  0.20298  1.0000
  H   H1274     1.0  0.80006  0.67852  0.06174  1.0000
  C   C757      1.0  0.89392  0.79890  0.09317  1.0000
  C   C758      1.0  0.87378  0.80692  0.08629  1.0000
  C   C759      1.0  0.84944  0.80138  0.09573  1.0000
  C   C760      1.0  0.84562  0.78871  0.11244  1.0000
  C   C761      1.0  0.86627  0.78163  0.11965  1.0000
  C   C762      1.0  0.89019  0.78630  0.10991  1.0000
  H   H1275     1.0  0.87669  0.81691  0.07341  1.0000
  H   H1276     1.0  0.83374  0.80716  0.09018  1.0000
  H   H1277     1.0  0.86345  0.77197  0.13264  1.0000
  H   H1278     1.0  0.90570  0.78020  0.11536  1.0000
  H   H1279     1.0  0.73700  0.72643  0.15396  1.0000
  H   H1280     1.0  0.76785  0.88438  0.02349  1.0000
  H   H1281     1.0  0.97537  0.90847  0.09421  1.0000
  C   C763      1.0  0.93925  0.68530  0.14365  1.0000
  C   C764      1.0  0.94262  0.70377  0.15812  1.0000
  C   C765      1.0  0.93828  0.69401  0.17598  1.0000
  C   C766      1.0  0.93032  0.66561  0.17979  1.0000
  C   C767      1.0  0.92670  0.64708  0.16530  1.0000
  C   C768      1.0  0.93111  0.65687  0.14745  1.0000
  H   H1282     1.0  0.94850  0.72559  0.15557  1.0000
  H   H1283     1.0  0.94103  0.70861  0.18697  1.0000
  H   H1284     1.0  0.92065  0.62522  0.16784  1.0000
  C   C769      1.0  0.81502  0.72638  0.07663  1.0000
  C   C770      1.0  0.81368  0.73243  0.04440  1.0000
  H   H1285     1.0  0.58627  0.59502  0.14574  1.0000
  H   H1286     1.0  0.79444  0.73941  0.19906  1.0000
  H   H1287     1.0  0.82248  0.69609  0.09353  1.0000
  H   H1288     1.0  0.94840  0.86205  0.12190  1.0000
  Fe  Fe104     1.0  0.90357  0.55713  0.23210  1.0000
  H   H1289     1.0  0.75366  0.68709  0.17832  1.0000
  H   H1290     1.0  0.86205  0.76391  0.06245  1.0000
  S   S216      1.0  0.92217  0.52589  0.22949  1.0000
  S   S217      1.0  0.94484  0.69634  0.12069  1.0000
  H   H1291     1.0  0.54868  0.54773  0.15548  1.0000
  H   H1292     1.0  0.83447  0.54848  0.16915  1.0000
  H   H1293     1.0  0.54647  0.54594  0.19814  1.0000
  N   N55       1.0  0.82477  0.60829  0.17888  1.0000
  C   C771      1.0  0.83127  0.58791  0.16792  1.0000
  C   C772      1.0  0.82848  0.63233  0.16695  1.0000
  C   C773      1.0  0.79440  0.59316  0.18387  1.0000
  C   C774      1.0  0.84404  0.61744  0.19554  1.0000
  C   C775      1.0  0.82417  0.55944  0.17654  1.0000
  C   C776      1.0  0.85710  0.64663  0.15796  1.0000
  C   C777      1.0  0.78203  0.61063  0.19357  1.0000
  C   C778      1.0  0.85184  0.64699  0.20362  1.0000
  H   H1294     1.0  0.81994  0.58332  0.15452  1.0000
  H   H1295     1.0  0.85406  0.59711  0.16507  1.0000
  H   H1296     1.0  0.82559  0.64899  0.17440  1.0000
  H   H1297     1.0  0.81196  0.62512  0.15593  1.0000
  H   H1298     1.0  0.78072  0.58339  0.17163  1.0000
  H   H1299     1.0  0.79105  0.57558  0.19298  1.0000
  H   H1300     1.0  0.83500  0.60229  0.20650  1.0000
  H   H1301     1.0  0.86447  0.61714  0.19301  1.0000
  H   H1302     1.0  0.83174  0.56199  0.19075  1.0000
  H   H1303     1.0  0.80123  0.54553  0.17574  1.0000
  C   C779      1.0  0.71470  0.81534  0.99933  1.0000
  H   H1304     1.0  0.86021  0.66724  0.15274  1.0000
  H   H1305     1.0  0.87481  0.65037  0.16752  1.0000
  H   H1306     1.0  0.85808  0.63387  0.14631  1.0000
  H   H1307     1.0  0.75930  0.59713  0.19541  1.0000
  H   H1308     1.0  0.78352  0.62887  0.18585  1.0000
  H   H1309     1.0  0.86641  0.66370  0.19504  1.0000
  H   H1310     1.0  0.95717  0.87145  0.09025  1.0000
  H   H1311     1.0  0.83351  0.65084  0.20622  1.0000
  H   H1312     1.0  0.79075  0.71832  0.14942  1.0000
  H   H1313     1.0  0.78989  0.86938  0.03163  1.0000
  H   H1314     1.0  0.67476  0.80061  0.03170  1.0000
  C   C780      1.0  0.84993  0.98443  0.11074  1.0000
  H   H1315     1.0  0.68969  0.83557  0.00785  1.0000
  C   C781      1.0  0.95368  0.74618  0.01226  1.0000
  C   C782      1.0  0.79805  0.96665  0.10796  1.0000
  H   H1316     1.0  0.71768  0.80858  0.06312  1.0000
  H   H1317     1.0  0.63940  0.96256  0.03438  1.0000
  H   H1318     1.0  0.83581  0.76632  0.17769  1.0000
  H   H1319     1.0  0.72556  0.85846  0.00568  1.0000
  H   H1320     1.0  0.57502  0.98163  0.03751  1.0000
  C   C783      1.0  0.72152  0.88714  0.03598  1.0000
  H   H1321     1.0  0.81763  0.75458  0.04714  1.0000
  H   H1322     1.0  0.81416  0.72056  0.10550  1.0000
  H   H1323     1.0  0.84634  0.96704  0.10096  1.0000
  H   H1324     1.0  0.83510  0.66954  0.03811  1.0000
  H   H1325     1.0  0.76655  0.71765  0.13208  1.0000
  H   H1326     1.0  0.55097  0.59053  0.14363  1.0000
  S   S218      1.0  0.80515  0.54809  0.22513  1.0000
  H   H1327     1.0  0.78845  0.95770  0.13681  1.0000
  H   H1328     1.0  0.57314  0.61178  0.16175  1.0000
  H   H1329     1.0  0.79190  0.71336  0.07640  1.0000
  H   H1330     1.0  0.53815  0.56466  0.17197  1.0000
  H   H1331     1.0  0.74567  0.53097  0.22360  1.0000
  H   H1332     1.0  0.98163  0.85104  0.06987  1.0000
  C   C784      1.0  0.62083  0.55291  0.17902  1.0000
  C   C785      1.0  0.85830  0.74179  0.06033  1.0000
  H   H1333     1.0  0.79143  0.61714  0.20730  1.0000
  C   C786      1.0  0.54249  0.50361  0.23285  1.0000
  H   H1334     1.0  0.84833  0.73226  0.09723  1.0000
  C   C787      1.0  0.82138  0.69241  0.05695  1.0000
  C   C788      1.0  0.78960  0.94717  0.12416  1.0000
  H   H1335     1.0  0.55669  0.59843  0.19274  1.0000
  C   C789      1.0  0.76848  0.71352  0.14655  1.0000
  C   C790      1.0  0.56784  0.59245  0.15351  1.0000
  H   H1336     1.0  0.77479  0.72187  0.02889  1.0000
  H   H1337     1.0  0.92098  0.74087  0.99254  1.0000
  C   C791      1.0  0.75842  0.77820  0.17888  1.0000
  C   C792      1.0  0.82257  0.68162  0.03767  1.0000
  H   H1338     1.0  0.72774  0.67330  0.20556  1.0000
  H   H1339     1.0  0.81820  0.78445  0.18828  1.0000
  S   S219      1.0  0.96943  0.77955  0.11335  1.0000
  H   H1340     1.0  0.72038  0.89091  0.02143  1.0000
  H   H1341     1.0  0.75921  0.75377  0.20159  1.0000
  H   H1342     1.0  0.92838  0.64225  0.13648  1.0000
  C   C793      1.0  0.74072  0.69612  0.20364  1.0000
  N   N56       1.0  0.76270  0.73121  0.17800  1.0000
  H   H1343     1.0  0.71093  0.89826  0.04290  1.0000
  C   C794      1.0  0.69684  0.80699  0.03657  1.0000
  H   H1344     1.0  0.79910  0.72258  0.18007  1.0000
  C   C795      1.0  0.75167  0.74959  0.18723  1.0000
  H   H1345     1.0  0.57298  0.59342  0.21299  1.0000
  H   H1346     1.0  0.76994  0.71888  0.05241  1.0000
  C   C796      1.0  0.78162  0.71507  0.04142  1.0000
  C   C797      1.0  0.76920  0.86439  0.02494  1.0000
  H   H1347     1.0  0.72825  0.73861  0.18745  1.0000
  H   H1348     1.0  0.56378  0.50400  0.17980  1.0000
  H   H1349     1.0  0.76080  0.70221  0.21134  1.0000
  C   C798      1.0  0.59459  0.59153  0.18855  1.0000
  C   C799      1.0  0.82595  0.71822  0.09400  1.0000
  H   H1350     1.0  0.61014  0.57441  0.15843  1.0000
  C   C800      1.0  0.57704  0.60258  0.19943  1.0000
  C   C801      1.0  0.69633  0.80176  0.05698  1.0000
  H   H1351     1.0  0.60948  0.58951  0.19859  1.0000
  H   H1352     1.0  0.61187  0.53711  0.18955  1.0000
  C   C802      1.0  0.87554  0.74124  0.04416  1.0000
  H   H1353     1.0  0.58871  0.62579  0.20094  1.0000
  Fe  Fe105     1.0  0.65069  0.61702  0.22630  1.0000
  C   C803      1.0  0.70664  0.85592  0.04061  1.0000
  H   H1354     1.0  0.80121  0.66659  0.03258  1.0000
  H   H1355     1.0  0.74351  0.89717  0.04133  1.0000
  N   N57       1.0  0.57824  0.56422  0.17828  1.0000
  C   C804      1.0  0.56296  0.54187  0.19161  1.0000
  H   H1356     1.0  0.86827  0.74679  0.03139  1.0000
  H   H1357     1.0  0.83207  0.69792  0.02760  1.0000
  C   C805      1.0  0.79260  0.73900  0.18411  1.0000
  H   H1358     1.0  0.63235  0.54521  0.16998  1.0000
  H   H1359     1.0  0.96850  0.89913  0.12811  1.0000
  H   H1360     1.0  0.63660  0.57298  0.18516  1.0000
  H   H1361     1.0  0.73310  0.81214  0.00380  1.0000
  H   H1362     1.0  0.81836  0.74846  0.07856  1.0000
  H   H1363     1.0  0.74905  0.82359  0.03587  1.0000
  N   N58       1.0  0.71583  0.83641  0.03098  1.0000
  H   H1364     1.0  0.86864  0.73687  0.07203  1.0000
  H   H1365     1.0  0.89762  0.75727  0.04671  1.0000
  N   N59       1.0  0.82715  0.72273  0.05918  1.0000
  Fe  Fe106     1.0  0.96157  0.73639  0.10354  1.0000
  H   H1366     1.0  0.75224  0.79073  0.18825  1.0000
  H   H1367     1.0  0.70971  0.85547  0.05544  1.0000
  H   H1368     1.0  0.81203  0.77368  0.16476  1.0000
  H   H1369     1.0  0.72887  0.70672  0.20954  1.0000
  S   S220      1.0  0.59660  0.50985  0.22708  1.0000
  H   H1370     1.0  0.68445  0.77889  0.05904  1.0000
  H   H1371     1.0  0.78090  0.79075  0.17635  1.0000
  H   H1372     1.0  0.82307  0.73313  0.03123  1.0000
  C   C806      1.0  0.81553  0.76757  0.17840  1.0000
  H   H1373     1.0  0.68367  0.84886  0.03814  1.0000
  C   C807      1.0  0.65171  0.98383  0.02908  1.0000
  H   H1374     1.0  0.75453  0.69093  0.14827  1.0000
  C   C808      1.0  0.71123  0.83776  0.01095  1.0000
  C   C809      1.0  0.94220  0.74346  0.99455  1.0000
  C   C810      1.0  0.74581  0.84293  0.03630  1.0000
  H   H1375     1.0  0.68519  0.81186  0.06434  1.0000
  H   H1376     1.0  0.67212  0.72800  0.99863  1.0000
  C   C811      1.0  0.55968  0.49048  0.22948  1.0000
  Fe  Fe107     1.0  0.98207  0.75789  0.06499  1.0000
  H   H1377     1.0  0.80318  0.93647  0.12599  1.0000
  H   H1378     1.0  0.64056  0.98579  0.01686  1.0000
  H   H1379     1.0  0.78087  0.97290  0.10539  1.0000
  C   C812      1.0  0.78523  0.56544  0.23189  1.0000
  H   H1380     1.0  0.79717  0.95286  0.09639  1.0000
  C   C813      1.0  0.75585  0.55191  0.22956  1.0000
  H   H1381     1.0  0.93728  0.88707  0.11436  1.0000
  C   C814      1.0  0.85611  0.97522  0.12938  1.0000
  H   H1382     1.0  0.90034  0.78035  0.99712  1.0000
  Fe  Fe108     1.0  0.74036  0.98191  0.07994  1.0000
  H   H1383     1.0  0.84242  0.97552  0.14018  1.0000
  Fe  Fe109     1.0  0.85212  0.56787  0.23118  1.0000
  H   H1384     1.0  0.85402  0.95352  0.12830  1.0000
  H   H1385     1.0  0.69558  0.79496  0.99952  1.0000
  H   H1386     1.0  0.49993  0.49822  0.23476  1.0000
  Fe  Fe110     1.0  0.62562  0.55492  0.23653  1.0000
  C   C815      1.0  0.98061  0.74811  0.01517  1.0000
  H   H1387     1.0  0.97716  0.84110  0.09918  1.0000
  H   H1388     1.0  0.84483  0.98560  0.07408  1.0000
  H   H1389     1.0  0.55182  0.52612  0.23493  1.0000
  H   H1390     1.0  0.60187  0.97481  0.04811  1.0000
  H   H1391     1.0  0.71681  0.55429  0.23383  1.0000
  C   C816      1.0  0.73948  0.56508  0.23528  1.0000
  H   H1392     1.0  0.72104  0.98554  0.01415  1.0000
  C   C817      1.0  0.74085  0.76416  0.98903  1.0000
  H   H1393     1.0  0.53572  0.49736  0.19439  1.0000
  H   H1394     1.0  0.67183  0.98453  0.02467  1.0000
  H   H1395     1.0  0.97680  0.88097  0.06270  1.0000
  Fe  Fe111     1.0  0.89782  0.59592  0.26073  1.0000
  S   S221      1.0  0.87093  0.55090  0.25244  1.0000
  S   S222      1.0  0.90063  0.61248  0.28990  1.0000
  H   H1396     1.0  0.89821  0.63364  0.32527  1.0000
  H   H1397     1.0  0.95961  0.53238  0.42535  1.0000
  Fe  Fe112     1.0  0.90299  0.57978  0.39879  1.0000
  S   S223      1.0  0.86119  0.54893  0.40841  1.0000
  S   S224      1.0  0.91148  0.57090  0.36956  1.0000
  Fe  Fe113     1.0  0.92126  0.60627  0.43804  1.0000
  S   S225      1.0  0.87922  0.57753  0.44897  1.0000
  H   H1398     1.0  0.50793  0.55997  0.47127  1.0000
  Fe  Fe114     1.0  0.88381  0.54398  0.43283  1.0000
  S   S226      1.0  0.87680  0.50429  0.44719  1.0000
  Fe  Fe115     1.0  0.85982  0.58527  0.42342  1.0000
  S   S227      1.0  0.81608  0.58206  0.41654  1.0000
  S   S228      1.0  0.92595  0.57190  0.42255  1.0000
  S   S229      1.0  0.90158  0.61682  0.41313  1.0000
  Fe  Fe116     1.0  0.63852  0.59860  0.26677  1.0000
  S   S230      1.0  0.62071  0.60456  0.29361  1.0000
  S   S231      1.0  0.65088  0.56375  0.26277  1.0000
  Fe  Fe117     1.0  0.62582  0.60592  0.44514  1.0000
  S   S232      1.0  0.63901  0.57545  0.45798  1.0000
  S   S233      1.0  0.60138  0.62514  0.46110  1.0000
  Fe  Fe118     1.0  0.64377  0.59533  0.40674  1.0000
  S   S234      1.0  0.65750  0.56422  0.41821  1.0000
  S   S235      1.0  0.65484  0.59847  0.37672  1.0000
  Fe  Fe119     1.0  0.61802  0.54803  0.43357  1.0000
  H   H1399     1.0  0.62765  0.50744  0.34734  1.0000
  Fe  Fe120     1.0  0.67744  0.59462  0.44117  1.0000
  S   S236      1.0  0.72180  0.60703  0.45273  1.0000
  S   S237      1.0  0.60284  0.57714  0.42116  1.0000
  S   S238      1.0  0.66578  0.62715  0.42946  1.0000
  H   H1400     1.0  0.79209  0.62652  0.25125  1.0000
  S   S239      1.0  0.59180  0.50119  0.43508  1.0000
  H   H1401     1.0  0.55442  0.52442  0.42227  1.0000
  C   C818      1.0  0.58502  0.50049  0.35406  1.0000
  H   H1402     1.0  0.75020  0.52920  0.29204  1.0000
  H   H1403     1.0  0.78299  0.53435  0.47705  1.0000
  H   H1404     1.0  0.62657  0.50996  0.40082  1.0000
  H   H1405     1.0  0.57071  0.50724  0.34656  1.0000
  C   C819      1.0  0.63039  0.60226  0.31661  1.0000
  C   C820      1.0  0.61408  0.60514  0.33040  1.0000
  C   C821      1.0  0.62105  0.60394  0.34878  1.0000
  C   C822      1.0  0.64459  0.59991  0.35372  1.0000
  C   C823      1.0  0.66086  0.59693  0.33996  1.0000
  C   C824      1.0  0.65379  0.59796  0.32157  1.0000
  H   H1406     1.0  0.59605  0.60865  0.32681  1.0000
  H   H1407     1.0  0.60845  0.60664  0.35910  1.0000
  H   H1408     1.0  0.67913  0.59383  0.34351  1.0000
  H   H1409     1.0  0.66662  0.59576  0.31121  1.0000
  H   H1410     1.0  0.77942  0.61688  0.38268  1.0000
  H   H1411     1.0  0.58069  0.54867  0.36103  1.0000
  S   S240      1.0  0.61162  0.58850  0.24093  1.0000
  C   C825      1.0  0.74733  0.59810  0.44349  1.0000
  C   C826      1.0  0.77511  0.61109  0.45061  1.0000
  C   C827      1.0  0.79640  0.60594  0.44289  1.0000
  C   C828      1.0  0.79006  0.58770  0.42794  1.0000
  C   C829      1.0  0.76219  0.57435  0.42103  1.0000
  C   C830      1.0  0.74089  0.57930  0.42884  1.0000
  H   H1412     1.0  0.78031  0.62563  0.46198  1.0000
  H   H1413     1.0  0.81778  0.61654  0.44827  1.0000
  H   H1414     1.0  0.75707  0.56022  0.40946  1.0000
  H   H1415     1.0  0.71958  0.56890  0.42335  1.0000
  H   H1416     1.0  0.56948  0.54611  0.45991  1.0000
  C   C831      1.0  0.80041  0.54541  0.46800  1.0000
  C   C832      1.0  0.54223  0.50230  0.42429  1.0000
  C   C833      1.0  0.97126  0.63993  0.47920  1.0000
  S   S241      1.0  0.67579  0.63044  0.25263  1.0000
  Fe  Fe121     1.0  0.68670  0.59482  0.24719  1.0000
  H   H1417     1.0  0.80499  0.65271  0.37987  1.0000
  H   H1418     1.0  0.82349  0.52226  0.28322  1.0000
  C   C834      1.0  0.57603  0.52705  0.48338  1.0000
  H   H1419     1.0  0.80922  0.63262  0.39773  1.0000
  H   H1420     1.0  0.93497  0.49719  0.28474  1.0000
  C   C835      1.0  0.90283  0.59985  0.31187  1.0000
  C   C836      1.0  0.90642  0.57562  0.31459  1.0000
  C   C837      1.0  0.90870  0.56701  0.33228  1.0000
  C   C838      1.0  0.90693  0.58211  0.34754  1.0000
  C   C839      1.0  0.90260  0.60591  0.34478  1.0000
  C   C840      1.0  0.90084  0.61480  0.32712  1.0000
  H   H1421     1.0  0.90812  0.56389  0.30311  1.0000
  H   H1422     1.0  0.91219  0.54867  0.33418  1.0000
  H   H1423     1.0  0.90141  0.61793  0.35628  1.0000
  S   S242      1.0  0.93197  0.60199  0.24132  1.0000
  C   C841      1.0  0.79336  0.63669  0.38985  1.0000
  C   C842      1.0  0.58949  0.52624  0.38340  1.0000
  C   C843      1.0  0.53075  0.56279  0.44726  1.0000
  C   C844      1.0  0.65835  0.97799  0.39962  1.0000
  H   H1424     1.0  0.74003  0.49746  0.46876  1.0000
  H   H1425     1.0  0.84455  0.61757  0.27488  1.0000
  H   H1426     1.0  0.50696  0.51151  0.29329  1.0000
  H   H1427     1.0  0.97100  0.49683  0.40907  1.0000
  C   C845      1.0  0.96215  0.49270  0.42271  1.0000
  N   N60       1.0  0.80810  0.57205  0.29583  1.0000
  C   C846      1.0  0.82893  0.60141  0.30176  1.0000
  C   C847      1.0  0.80207  0.55418  0.31226  1.0000
  C   C848      1.0  0.78159  0.57345  0.28939  1.0000
  C   C849      1.0  0.82048  0.56202  0.28094  1.0000
  C   C850      1.0  0.83748  0.62397  0.28724  1.0000
  C   C851      1.0  0.82769  0.55226  0.32128  1.0000
  C   C852      1.0  0.75733  0.54600  0.28206  1.0000
  C   C853      1.0  0.80858  0.52992  0.27770  1.0000
  H   H1428     1.0  0.82097  0.60908  0.31327  1.0000
  H   H1429     1.0  0.84890  0.60171  0.30684  1.0000
  H   H1430     1.0  0.78595  0.53245  0.30939  1.0000
  H   H1431     1.0  0.79271  0.56225  0.32275  1.0000
  H   H1432     1.0  0.77328  0.58185  0.30033  1.0000
  H   H1433     1.0  0.78584  0.58820  0.27823  1.0000
  H   H1434     1.0  0.81847  0.57122  0.26794  1.0000
  H   H1435     1.0  0.84346  0.56981  0.28362  1.0000
  H   H1436     1.0  0.82046  0.62997  0.28384  1.0000
  H   H1437     1.0  0.85562  0.64326  0.29263  1.0000
  C   C854      1.0  0.65180  0.96239  0.38113  1.0000
  H   H1438     1.0  0.82035  0.53468  0.33078  1.0000
  H   H1439     1.0  0.84100  0.54843  0.31148  1.0000
  H   H1440     1.0  0.67134  0.96393  0.37515  1.0000
  H   H1441     1.0  0.76281  0.53881  0.26934  1.0000
  H   H1442     1.0  0.73904  0.55013  0.27856  1.0000
  H   H1443     1.0  0.80693  0.52538  0.26296  1.0000
  H   H1444     1.0  0.50306  0.50236  0.41593  1.0000
  C   C855      1.0  0.52906  0.56212  0.46796  1.0000
  N   N61       1.0  0.75252  0.65048  0.39542  1.0000
  C   C856      1.0  0.75084  0.67435  0.40565  1.0000
  C   C857      1.0  0.75585  0.65798  0.37583  1.0000
  C   C858      1.0  0.77796  0.64757  0.40282  1.0000
  C   C859      1.0  0.72586  0.62429  0.39836  1.0000
  C   C860      1.0  0.74951  0.67172  0.42633  1.0000
  C   C861      1.0  0.73184  0.66262  0.36667  1.0000
  H   H1445     1.0  0.76916  0.69463  0.40280  1.0000
  H   H1446     1.0  0.73180  0.67673  0.40136  1.0000
  H   H1447     1.0  0.75794  0.64156  0.36755  1.0000
  H   H1448     1.0  0.77569  0.67744  0.37416  1.0000
  H   H1449     1.0  0.79458  0.66817  0.40800  1.0000
  H   H1450     1.0  0.77251  0.63391  0.41469  1.0000
  H   H1451     1.0  0.72477  0.61796  0.41261  1.0000
  H   H1452     1.0  0.70723  0.62834  0.39608  1.0000
  H   H1453     1.0  0.72931  0.65459  0.43028  1.0000
  H   H1454     1.0  0.76706  0.66849  0.43249  1.0000
  H   H1455     1.0  0.75063  0.69137  0.43242  1.0000
  H   H1456     1.0  0.73558  0.66550  0.35205  1.0000
  H   H1457     1.0  0.71107  0.64435  0.36785  1.0000
  H   H1458     1.0  0.73106  0.68186  0.37187  1.0000
  H   H1459     1.0  0.71954  0.60167  0.37220  1.0000
  C   C862      1.0  0.72101  0.59827  0.38679  1.0000
  H   H1460     1.0  0.70056  0.58084  0.39012  1.0000
  H   H1461     1.0  0.51788  0.50409  0.27173  1.0000
  H   H1462     1.0  0.61265  0.53832  0.38368  1.0000
  C   C863      1.0  0.78191  0.60570  0.24513  1.0000
  C   C864      1.0  0.56554  0.54694  0.47447  1.0000
  C   C865      1.0  0.80293  0.49208  0.43376  1.0000
  N   N62       1.0  0.79278  0.49926  0.45097  1.0000
  C   C866      1.0  0.61527  0.51954  0.34851  1.0000
  C   C867      1.0  0.62352  0.49630  0.38878  1.0000
  C   C868      1.0  0.90028  0.50480  0.27530  1.0000
  C   C869      1.0  0.59824  0.63240  0.48444  1.0000
  H   H1463     1.0  0.55509  0.53821  0.37859  1.0000
  H   H1464     1.0  0.61450  0.52852  0.33518  1.0000
  H   H1465     1.0  0.80011  0.49192  0.40456  1.0000
  N   N63       1.0  0.53523  0.54020  0.47712  1.0000
  C   C870      1.0  0.81032  0.49613  0.46631  1.0000
  H   H1466     1.0  0.57338  0.50970  0.47385  1.0000
  H   H1467     1.0  0.58896  0.56682  0.38220  1.0000
  H   H1468     1.0  0.89220  0.50703  0.28849  1.0000
  H   H1469     1.0  0.58445  0.52339  0.39788  1.0000
  H   H1470     1.0  0.62687  0.53808  0.35744  1.0000
  H   H1471     1.0  0.56783  0.64795  0.47843  1.0000
  H   H1472     1.0  0.80053  0.56590  0.46517  1.0000
  H   H1473     1.0  0.85881  0.49022  0.40961  1.0000
  H   H1474     1.0  0.55240  0.56887  0.44293  1.0000
  C   C871      1.0  0.79737  0.52936  0.45002  1.0000
  C   C872      1.0  0.78991  0.49679  0.41604  1.0000
  N   N64       1.0  0.57938  0.49807  0.37391  1.0000
  H   H1475     1.0  0.67666  0.97568  0.40550  1.0000
  H   H1476     1.0  0.93342  0.50485  0.43755  1.0000
  C   C873      1.0  0.57757  0.54572  0.37567  1.0000
  H   H1477     1.0  0.93011  0.50592  0.41335  1.0000
  H   H1478     1.0  0.84085  0.57154  0.32941  1.0000
  H   H1479     1.0  0.82609  0.50450  0.43307  1.0000
  H   H1480     1.0  0.53709  0.49356  0.36852  1.0000
  H   H1481     1.0  0.95721  0.49504  0.46063  1.0000
  H   H1482     1.0  0.83293  0.51049  0.46459  1.0000
  H   H1483     1.0  0.73708  0.59093  0.38975  1.0000
  S   S243      1.0  0.96132  0.63380  0.45561  1.0000
  H   H1484     1.0  0.57997  0.56900  0.47859  1.0000
  H   H1485     1.0  0.78751  0.51714  0.28279  1.0000
  H   H1486     1.0  0.64107  0.97015  0.37129  1.0000
  C   C874      1.0  0.51719  0.51130  0.46925  1.0000
  H   H1487     1.0  0.80561  0.50279  0.47943  1.0000
  H   H1488     1.0  0.78017  0.53086  0.44189  1.0000
  H   H1489     1.0  0.52490  0.57916  0.44226  1.0000
  H   H1490     1.0  0.81698  0.54220  0.44291  1.0000
  H   H1491     1.0  0.63719  0.93993  0.38284  1.0000
  H   H1492     1.0  0.91540  0.52623  0.27147  1.0000
  C   C875      1.0  0.48524  0.50189  0.46872  1.0000
  H   H1493     1.0  0.52326  0.50932  0.45541  1.0000
  H   H1494     1.0  0.51605  0.54273  0.44054  1.0000
  H   H1495     1.0  0.91705  0.49531  0.31267  1.0000
  H   H1496     1.0  0.63704  0.50875  0.37802  1.0000
  S   S244      1.0  0.87673  0.61244  0.24051  1.0000
  H   H1497     1.0  0.79364  0.51887  0.41463  1.0000
  S   S245      1.0  0.73334  0.60861  0.25220  1.0000
  H   H1498     1.0  0.60299  0.98203  0.46326  1.0000
  H   H1499     1.0  0.54399  0.58350  0.47300  1.0000
  H   H1500     1.0  0.60457  0.97053  0.39391  1.0000
  C   C876      1.0  0.94510  0.50960  0.42494  1.0000
  H   H1501     1.0  0.64122  0.96595  0.40888  1.0000
  H   H1502     1.0  0.88313  0.49734  0.26480  1.0000
  C   C877      1.0  0.75253  0.59190  0.24331  1.0000
  H   H1503     1.0  0.52082  0.49516  0.47679  1.0000
  H   H1504     1.0  0.82079  0.55026  0.47507  1.0000
  C   C878      1.0  0.79818  0.59252  0.23950  1.0000
  H   H1505     1.0  0.82070  0.60334  0.24119  1.0000
  C   C879      1.0  0.50106  0.50678  0.27878  1.0000
  H   H1506     1.0  0.98099  0.50247  0.43189  1.0000
  H   H1507     1.0  0.50013  0.52551  0.27297  1.0000
  H   H1508     1.0  0.59866  0.53899  0.48730  1.0000
  C   C880      1.0  0.51309  0.48978  0.42074  1.0000
  Fe  Fe122     1.0  0.54734  0.71477  0.57536  1.0000
  S   S246      1.0  0.57725  0.69722  0.58450  1.0000
  S   S247      1.0  0.55817  0.76083  0.58127  1.0000
  Fe  Fe123     1.0  0.50023  0.65654  0.56752  1.0000
  S   S248      1.0  0.52605  0.63492  0.57636  1.0000
  H   H1509     1.0  0.66383  0.97482  0.57894  1.0000
  Fe  Fe124     1.0  0.54114  0.66616  0.59983  1.0000
  S   S249      1.0  0.53893  0.64926  0.62840  1.0000
  Fe  Fe125     1.0  0.56021  0.66717  0.56022  1.0000
  S   S250      1.0  0.58736  0.65073  0.54460  1.0000
  S   S251      1.0  0.51236  0.68497  0.59195  1.0000
  S   S252      1.0  0.53323  0.68741  0.55006  1.0000
  H   H1510     1.0  0.54221  0.72313  0.71015  1.0000
  S   S253      1.0  0.56011  0.96404  0.69207  1.0000
  S   S254      1.0  0.58541  0.69962  0.70808  1.0000
  Fe  Fe126     1.0  0.50969  0.93200  0.56441  1.0000
  H   H1511     1.0  0.57563  0.76654  0.70420  1.0000
  H   H1512     1.0  0.51226  0.69343  0.70102  1.0000
  Fe  Fe127     1.0  0.53539  0.89342  0.55304  1.0000
  S   S255      1.0  0.57947  0.92693  0.55873  1.0000
  S   S256      1.0  0.52631  0.84981  0.54181  1.0000
  Fe  Fe128     1.0  0.56184  0.93481  0.58448  1.0000
  C   C881      1.0  0.53373  0.77392  0.69082  1.0000
  Fe  Fe129     1.0  0.56555  0.95669  0.54473  1.0000
  S   S257      1.0  0.58493  0.93826  0.61168  1.0000
  S   S258      1.0  0.51856  0.89998  0.57926  1.0000
  S   S259      1.0  0.52233  0.92262  0.53747  1.0000
  Fe  Fe130     1.0  0.56324  0.94311  0.71838  1.0000
  S   S260      1.0  0.53145  0.89848  0.72069  1.0000
  H   H1513     1.0  0.53858  0.71519  0.67590  1.0000
  C   C882      1.0  0.57532  0.94327  0.63380  1.0000
  H   H1514     1.0  0.50758  0.93976  0.71104  1.0000
  H   H1515     1.0  0.95234  0.58394  0.50502  1.0000
  C   C883      1.0  0.56524  0.95462  0.66978  1.0000
  H   H1516     1.0  0.52680  0.76040  0.65571  1.0000
  H   H1517     1.0  0.95966  0.56798  0.53489  1.0000
  H   H1518     1.0  0.53357  0.77003  0.70551  1.0000
  C   C884      1.0  0.55973  0.95816  0.63706  1.0000
  C   C885      1.0  0.95229  0.63783  0.49248  1.0000
  C   C886      1.0  0.54988  0.78551  0.56969  1.0000
  C   C887      1.0  0.53916  0.78095  0.55190  1.0000
  C   C888      1.0  0.53246  0.80100  0.54348  1.0000
  C   C889      1.0  0.53641  0.82585  0.55269  1.0000
  C   C890      1.0  0.54738  0.83049  0.57040  1.0000
  C   C891      1.0  0.55409  0.81047  0.57881  1.0000
  H   H1519     1.0  0.53623  0.76210  0.54459  1.0000
  C   C892      1.0  0.59610  0.98762  0.49125  1.0000
  H   H1520     1.0  0.55057  0.84946  0.57768  1.0000
  H   H1521     1.0  0.56254  0.81435  0.59252  1.0000
  C   C893      1.0  0.55081  0.66509  0.65033  1.0000
  C   C894      1.0  0.57535  0.69015  0.65317  1.0000
  C   C895      1.0  0.58562  0.70021  0.67088  1.0000
  C   C896      1.0  0.57119  0.68588  0.68604  1.0000
  C   C897      1.0  0.54630  0.66120  0.68318  1.0000
  C   C898      1.0  0.53647  0.65072  0.66547  1.0000
  H   H1522     1.0  0.58689  0.70134  0.64175  1.0000
  H   H1523     1.0  0.60500  0.71920  0.67287  1.0000
  H   H1524     1.0  0.53494  0.64984  0.69461  1.0000
  H   H1525     1.0  0.51763  0.63118  0.66351  1.0000
  H   H1526     1.0  0.94684  0.64433  0.52062  1.0000
  C   C899      1.0  0.60956  0.63269  0.51663  1.0000
  C   C900      1.0  0.59095  0.64395  0.52123  1.0000
  C   C901      1.0  0.57584  0.64919  0.50722  1.0000
  H   H1527     1.0  0.62149  0.62855  0.52722  1.0000
  H   H1528     1.0  0.56150  0.65789  0.51035  1.0000
  H   H1529     1.0  0.95557  0.55214  0.50355  1.0000
  H   H1530     1.0  0.53428  0.81404  0.69708  1.0000
  H   H1531     1.0  0.50800  0.53977  0.49837  1.0000
  C   C902      1.0  0.58552  0.93386  0.64867  1.0000
  H   H1532     1.0  0.58832  0.93179  0.67772  1.0000
  H   H1533     1.0  0.62803  0.96024  0.58473  1.0000
  C   C903      1.0  0.52278  0.71673  0.70167  1.0000
  C   C904      1.0  0.96174  0.64541  0.51067  1.0000
  H   H1534     1.0  0.59779  0.92253  0.64638  1.0000
  C   C905      1.0  0.52900  0.72765  0.68239  1.0000
  H   H1535     1.0  0.55115  0.58601  0.50278  1.0000
  H   H1536     1.0  0.57124  0.56718  0.50893  1.0000
  H   H1537     1.0  0.52418  0.79730  0.52973  1.0000
  H   H1538     1.0  0.55203  0.96587  0.62583  1.0000
  H   H1539     1.0  0.50680  0.97126  0.73604  1.0000
  H   H1540     1.0  0.52769  0.52139  0.50352  1.0000
  C   C906      1.0  0.58017  0.93909  0.66650  1.0000
  H   H1541     1.0  0.61488  0.80324  0.69537  1.0000
  H   H1542     1.0  0.93045  0.63124  0.48866  1.0000
  C   C907      1.0  0.54994  0.56616  0.50807  1.0000
  S   S261      1.0  0.55218  0.96729  0.57122  1.0000
  S   S262      1.0  0.57746  0.85771  0.72712  1.0000
  H   H1543     1.0  0.56832  0.81623  0.69581  1.0000
  H   H1544     1.0  0.62767  0.61844  0.49530  1.0000
  H   H1545     1.0  0.58179  0.74814  0.68632  1.0000
  H   H1546     1.0  0.51129  0.76580  0.68622  1.0000
  C   C908      1.0  0.50163  0.98396  0.70839  1.0000
  C   C909      1.0  0.97840  0.57996  0.52676  1.0000
  H   H1547     1.0  0.54434  0.72688  0.64680  1.0000
  H   H1548     1.0  0.49131  0.75416  0.59576  1.0000
  H   H1549     1.0  0.54708  0.81301  0.67541  1.0000
  H   H1550     1.0  0.56345  0.75858  0.63534  1.0000
  H   H1551     1.0  0.57995  0.75046  0.65421  1.0000
  C   C910      1.0  0.65823  0.97645  0.60692  1.0000
  H   H1552     1.0  0.61448  0.78743  0.67420  1.0000
  C   C911      1.0  0.55509  0.96411  0.65491  1.0000
  H   H1553     1.0  0.54270  0.56465  0.52206  1.0000
  Fe  Fe131     1.0  0.56745  0.68835  0.73643  1.0000
  C   C912      1.0  0.61316  0.62692  0.49845  1.0000
  H   H1554     1.0  0.50823  0.72344  0.70830  1.0000
  C   C913      1.0  0.54700  0.80604  0.68939  1.0000
  H   H1555     1.0  0.56085  0.78769  0.65858  1.0000
  H   H1556     1.0  0.59582  0.80834  0.67700  1.0000
  C   C914      1.0  0.57952  0.64351  0.48904  1.0000
  H   H1557     1.0  0.64934  0.97216  0.55006  1.0000
  N   N65       1.0  0.61613  0.64617  0.61107  1.0000
  C   C915      1.0  0.62982  0.67732  0.60786  1.0000
  C   C916      1.0  0.60692  0.64238  0.63028  1.0000
  C   C917      1.0  0.59090  0.63269  0.59820  1.0000
  C   C918      1.0  0.63734  0.63527  0.60747  1.0000
  C   C919      1.0  0.63901  0.68610  0.58846  1.0000
  C   C920      1.0  0.63056  0.65459  0.64499  1.0000
  C   C921      1.0  0.56759  0.60379  0.60304  1.0000
  C   C922      1.0  0.62955  0.60468  0.61237  1.0000
  H   H1558     1.0  0.61551  0.68668  0.61154  1.0000
  H   H1559     1.0  0.64910  0.68839  0.61657  1.0000
  H   H1560     1.0  0.59428  0.62006  0.63346  1.0000
  H   H1561     1.0  0.59257  0.65213  0.63248  1.0000
  H   H1562     1.0  0.58010  0.64637  0.59684  1.0000
  H   H1563     1.0  0.59741  0.63039  0.58439  1.0000
  H   H1564     1.0  0.64187  0.63653  0.59289  1.0000
  H   H1565     1.0  0.65817  0.64895  0.61404  1.0000
  H   H1566     1.0  0.62138  0.67683  0.57836  1.0000
  H   H1567     1.0  0.64721  0.70922  0.58767  1.0000
  H   H1568     1.0  0.65623  0.68100  0.58457  1.0000
  H   H1569     1.0  0.64130  0.67783  0.64508  1.0000
  H   H1570     1.0  0.62109  0.64875  0.65837  1.0000
  H   H1571     1.0  0.64603  0.64601  0.64387  1.0000
  H   H1572     1.0  0.55562  0.60564  0.61457  1.0000
  H   H1573     1.0  0.57544  0.58818  0.60591  1.0000
  H   H1574     1.0  0.55227  0.59538  0.59145  1.0000
  H   H1575     1.0  0.61880  0.59017  0.60075  1.0000
  H   H1576     1.0  0.61657  0.59751  0.62431  1.0000
  H   H1577     1.0  0.64906  0.60278  0.61598  1.0000
  N   N66       1.0  0.54751  0.75873  0.68085  1.0000
  C   C923      1.0  0.60118  0.79263  0.68334  1.0000
  C   C924      1.0  0.54829  0.76515  0.66109  1.0000
  H   H1578     1.0  0.65584  0.95483  0.60884  1.0000
  C   C925      1.0  0.57609  0.76550  0.68925  1.0000
  C   C926      1.0  0.96741  0.57485  0.50697  1.0000
  C   C927      1.0  0.55975  0.74921  0.64888  1.0000
  C   C928      1.0  0.48661  0.54560  0.54886  1.0000
  C   C929      1.0  0.57243  0.80594  0.73555  1.0000
  S   S263      1.0  0.59812  0.93572  0.73123  1.0000
  H   H1579     1.0  0.97588  0.52779  0.52803  1.0000
  H   H1580     1.0  0.48403  0.56676  0.72754  1.0000
  C   C930      1.0  0.52908  0.54050  0.49679  1.0000
  H   H1581     1.0  0.49606  0.73742  0.56844  1.0000
  H   H1582     1.0  0.58809  0.96558  0.49412  1.0000
  H   H1583     1.0  0.50419  0.95862  0.67792  1.0000
  H   H1584     1.0  0.61493  0.98628  0.56162  1.0000
  H   H1585     1.0  0.58771  0.80936  0.72540  1.0000
  H   H1586     1.0  0.98272  0.55089  0.55609  1.0000
  H   H1587     1.0  0.64506  0.97972  0.61708  1.0000
  H   H1588     1.0  0.50836  0.72135  0.67512  1.0000
  H   H1589     1.0  0.50628  0.55792  0.55699  1.0000
  Fe  Fe132     1.0  0.56531  0.89180  0.73517  1.0000
  C   C931      1.0  0.64887  0.97853  0.58743  1.0000
  H   H1590     1.0  0.48532  0.90560  0.68728  1.0000
  H   H1591     1.0  0.48728  0.77833  0.57037  1.0000
  H   H1592     1.0  0.48454  0.98893  0.73428  1.0000
  H   H1593     1.0  0.49152  0.53263  0.53913  1.0000
  H   H1594     1.0  0.48311  0.71972  0.60215  1.0000
  H   H1595     1.0  0.54390  0.97649  0.65718  1.0000
  H   H1596     1.0  0.52283  0.98737  0.70411  1.0000
  C   C932      1.0  0.48463  0.93323  0.70925  1.0000
  C   C933      1.0  0.50341  0.98785  0.72909  1.0000
  H   H1597     1.0  0.56540  0.51782  0.49589  1.0000
  H   H1598     1.0  0.48310  0.69795  0.54368  1.0000
  H   H1599     1.0  0.82588  0.74976  0.84343  1.0000
  H   H1600     1.0  0.82068  0.78033  0.84138  1.0000
  H   H1601     1.0  0.77874  0.78902  0.85905  1.0000
  H   H1602     1.0  0.69223  0.89468  0.80216  1.0000
  H   H1603     1.0  0.80411  0.75130  0.82511  1.0000
  H   H1604     1.0  0.74587  0.70068  0.87230  1.0000
  Fe  Fe133     1.0  0.95026  0.78681  0.89929  1.0000
  S   S264      1.0  0.91884  0.80215  0.88880  1.0000
  S   S265      1.0  0.94409  0.74250  0.90279  1.0000
  Fe  Fe134     1.0  0.75934  0.76631  0.90903  1.0000
  S   S266      1.0  0.71372  0.73549  0.91148  1.0000
  S   S267      1.0  0.78776  0.74553  0.90320  1.0000
  Fe  Fe135     1.0  0.74774  0.81611  0.91785  1.0000
  S   S268      1.0  0.70172  0.78863  0.92042  1.0000
  S   S269      1.0  0.76323  0.86144  0.92692  1.0000
  Fe  Fe136     1.0  0.71556  0.76099  0.93660  1.0000
  S   S270      1.0  0.69565  0.74425  0.96377  1.0000
  Fe  Fe137     1.0  0.70427  0.76594  0.89506  1.0000
  S   S271      1.0  0.67315  0.75936  0.87081  1.0000
  S   S272      1.0  0.76145  0.78941  0.93497  1.0000
  S   S273      1.0  0.74998  0.79585  0.89162  1.0000
  Fe  Fe138     1.0  0.57931  0.68459  0.77759  1.0000
  S   S274      1.0  0.53645  0.68000  0.78426  1.0000
  S   S275      1.0  0.60898  0.68242  0.80045  1.0000
  Fe  Fe139     1.0  0.54488  0.71423  0.76471  1.0000
  S   S276      1.0  0.53252  0.74801  0.77279  1.0000
  Fe  Fe140     1.0  0.51954  0.65019  0.76037  1.0000
  H   H1605     1.0  0.90184  0.83752  0.96057  1.0000
  S   S277      1.0  0.58849  0.72067  0.75908  1.0000
  S   S278      1.0  0.56186  0.65217  0.75440  1.0000
  S   S279      1.0  0.77305  0.95976  0.87586  1.0000
  Fe  Fe141     1.0  0.58562  0.94524  0.75843  1.0000
  S   S280      1.0  0.55390  0.90053  0.76259  1.0000
  H   H1606     1.0  0.65776  0.93572  0.74881  1.0000
  S   S281      1.0  0.52455  0.68461  0.74135  1.0000
  C   C934      1.0  0.97112  0.64610  0.77238  1.0000
  H   H1607     1.0  0.57006  0.76585  0.74302  1.0000
  H   H1608     1.0  0.63619  0.83243  0.78769  1.0000
  C   C935      1.0  0.76798  0.77864  0.84603  1.0000
  H   H1609     1.0  0.76008  0.74694  0.81752  1.0000
  C   C936      1.0  0.72911  0.70382  0.86484  1.0000
  C   C937      1.0  0.65399  0.97917  0.83817  1.0000
  C   C938      1.0  0.54384  0.77755  0.75926  1.0000
  C   C939      1.0  0.53447  0.79793  0.76261  1.0000
  C   C940      1.0  0.65404  0.91478  0.75379  1.0000
  S   S282      1.0  0.71273  0.97006  0.89692  1.0000
  H   H1610     1.0  0.70720  0.73725  0.83090  1.0000
  H   H1611     1.0  0.74993  0.71368  0.82731  1.0000
  C   C941      1.0  0.71173  0.74973  0.98590  1.0000
  C   C942      1.0  0.49630  0.60742  0.81076  1.0000
  H   H1612     1.0  0.54846  0.58666  0.81891  1.0000
  C   C943      1.0  0.76780  0.88904  0.91246  1.0000
  C   C944      1.0  0.77129  0.88725  0.89398  1.0000
  C   C945      1.0  0.77352  0.90935  0.88286  1.0000
  C   C946      1.0  0.77192  0.93307  0.89013  1.0000
  C   C947      1.0  0.76881  0.93494  0.90862  1.0000
  C   C948      1.0  0.76719  0.91319  0.91976  1.0000
  H   H1613     1.0  0.77207  0.86884  0.88827  1.0000
  H   H1614     1.0  0.77610  0.90793  0.86856  1.0000
  H   H1615     1.0  0.76777  0.95322  0.91437  1.0000
  H   H1616     1.0  0.76491  0.91489  0.93408  1.0000
  C   C949      1.0  0.65506  0.73715  0.85155  1.0000
  C   C950      1.0  0.63976  0.74586  0.83941  1.0000
  C   C951      1.0  0.62548  0.72948  0.82387  1.0000
  C   C952      1.0  0.62626  0.70398  0.82009  1.0000
  C   C953      1.0  0.64131  0.69511  0.83233  1.0000
  C   C954      1.0  0.65547  0.71142  0.84793  1.0000
  H   H1617     1.0  0.63903  0.76556  0.84199  1.0000
  H   H1618     1.0  0.61403  0.73673  0.81474  1.0000
  H   H1619     1.0  0.64204  0.67541  0.82971  1.0000
  H   H1620     1.0  0.66667  0.70404  0.85714  1.0000
  H   H1621     1.0  0.82951  0.74819  0.95102  1.0000
  H   H1622     1.0  0.93357  0.56247  0.79713  1.0000
  H   H1623     1.0  0.67828  0.98488  0.79556  1.0000
  H   H1624     1.0  0.93658  0.62063  0.79882  1.0000
  H   H1625     1.0  0.96859  0.66289  0.77989  1.0000
  C   C955      1.0  0.88230  0.78599  0.89253  1.0000
  C   C956      1.0  0.86804  0.75774  0.89688  1.0000
  C   C957      1.0  0.83904  0.74568  0.89988  1.0000
  C   C958      1.0  0.82409  0.76181  0.89893  1.0000
  C   C959      1.0  0.83825  0.79004  0.89447  1.0000
  C   C960      1.0  0.86718  0.80196  0.89111  1.0000
  H   H1626     1.0  0.87933  0.74513  0.89781  1.0000
  H   H1627     1.0  0.82819  0.72377  0.90316  1.0000
  H   H1628     1.0  0.82697  0.80265  0.89357  1.0000
  H   H1629     1.0  0.87802  0.82379  0.88762  1.0000
  H   H1630     1.0  0.94107  0.60016  0.81565  1.0000
  H   H1631     1.0  0.71364  0.72784  0.80919  1.0000
  C   C961      1.0  0.63467  0.97124  0.80119  1.0000
  H   H1632     1.0  0.81369  0.76812  0.94089  1.0000
  H   H1633     1.0  0.49778  0.60153  0.84713  1.0000
  H   H1634     1.0  0.71905  0.73775  0.85911  1.0000
  S   S283      1.0  0.66506  0.98653  0.86155  1.0000
  C   C962      1.0  0.61568  0.96542  0.81502  1.0000
  N   N67       1.0  0.67592  0.86786  0.89860  1.0000
  C   C963      1.0  0.67220  0.88047  0.88123  1.0000
  C   C964      1.0  0.64756  0.84590  0.90385  1.0000
  C   C965      1.0  0.69515  0.85419  0.89648  1.0000
  C   C966      1.0  0.68884  0.89098  0.91276  1.0000
  C   C967      1.0  0.69939  0.89993  0.87196  1.0000
  C   C968      1.0  0.62719  0.85716  0.91057  1.0000
  C   C969      1.0  0.68608  0.83077  0.88184  1.0000
  C   C970      1.0  0.69292  0.88185  0.93185  1.0000
  H   H1635     1.0  0.65901  0.86388  0.87116  1.0000
  H   H1636     1.0  0.66060  0.89319  0.88350  1.0000
  H   H1637     1.0  0.64957  0.83203  0.91431  1.0000
  H   H1638     1.0  0.63656  0.83137  0.89223  1.0000
  H   H1639     1.0  0.71659  0.87007  0.89361  1.0000
  H   H1640     1.0  0.69764  0.84479  0.90932  1.0000
  H   H1641     1.0  0.71014  0.90633  0.90895  1.0000
  H   H1642     1.0  0.67734  0.90407  0.91365  1.0000
  H   H1643     1.0  0.71139  0.88870  0.86731  1.0000
  H   H1644     1.0  0.69385  0.90870  0.85983  1.0000
  H   H1645     1.0  0.71319  0.91807  0.88070  1.0000
  H   H1646     1.0  0.71550  0.96562  0.98303  1.0000
  H   H1647     1.0  0.60658  0.83915  0.91295  1.0000
  H   H1648     1.0  0.63473  0.86898  0.92357  1.0000
  H   H1649     1.0  0.66640  0.81230  0.88518  1.0000
  H   H1650     1.0  0.70259  0.82338  0.88110  1.0000
  H   H1651     1.0  0.68377  0.83809  0.86829  1.0000
  H   H1652     1.0  0.71291  0.88005  0.93320  1.0000
  H   H1653     1.0  0.67563  0.86175  0.93567  1.0000
  H   H1654     1.0  0.69333  0.89768  0.94189  1.0000
  C   C971      1.0  0.64981  0.88846  0.79533  1.0000
  C   C972      1.0  0.68077  0.89854  0.79061  1.0000
  H   H1655     1.0  0.64976  0.90578  0.80384  1.0000
  H   H1656     1.0  0.64394  0.87089  0.80482  1.0000
  H   H1657     1.0  0.59799  0.91078  0.79245  1.0000
  H   H1658     1.0  0.69083  0.92135  0.78794  1.0000
  H   H1659     1.0  0.68378  0.88685  0.77918  1.0000
  S   S284      1.0  0.62437  0.96944  0.77777  1.0000
  H   H1660     1.0  0.79257  0.75216  0.86563  1.0000
  H   H1661     1.0  0.53947  0.59529  0.86185  1.0000
  S   S285      1.0  0.96778  0.80099  0.92733  1.0000
  C   C973      1.0  0.52148  0.64991  0.82957  1.0000
  C   C974      1.0  0.67283  0.98389  0.82433  1.0000
  H   H1662     1.0  0.59364  0.95858  0.81166  1.0000
  C   C975      1.0  0.71622  0.72501  0.82380  1.0000
  Fe  Fe142     1.0  0.52255  0.91170  0.74768  1.0000
  H   H1663     1.0  0.56182  0.62313  0.84891  1.0000
  C   C976      1.0  0.56265  0.78144  0.74558  1.0000
  H   H1664     1.0  0.67469  0.91594  0.75783  1.0000
  Fe  Fe143     1.0  0.96383  0.75767  0.93080  1.0000
  S   S286      1.0  0.55336  0.95715  0.74511  1.0000
  H   H1665     1.0  0.71751  0.82178  0.98507  1.0000
  C   C977      1.0  0.95782  0.74371  0.97949  1.0000
  H   H1666     1.0  0.59979  0.81916  0.77958  1.0000
  C   C978      1.0  0.54060  0.61374  0.85442  1.0000
  H   H1667     1.0  0.87198  0.79890  0.97893  1.0000
  H   H1668     1.0  0.85792  0.73756  0.93607  1.0000
  H   H1669     1.0  0.57008  0.60703  0.80150  1.0000
  H   H1670     1.0  0.74764  0.74657  0.87437  1.0000
  N   N68       1.0  0.88588  0.79364  0.95275  1.0000
  C   C979      1.0  0.90792  0.82374  0.95215  1.0000
  H   H1671     1.0  0.97636  0.66290  0.80948  1.0000
  C   C980      1.0  0.85919  0.79162  0.94360  1.0000
  C   C981      1.0  0.89675  0.77571  0.94292  1.0000
  C   C982      1.0  0.91417  0.83649  0.93326  1.0000
  C   C983      1.0  0.54713  0.62701  0.81416  1.0000
  C   C984      1.0  0.83087  0.76947  0.95033  1.0000
  C   C985      1.0  0.87854  0.74383  0.94304  1.0000
  H   H1672     1.0  0.62344  0.87048  0.90054  1.0000
  N   N69       1.0  0.75898  0.74750  0.84663  1.0000
  C   C986      1.0  0.81000  0.75717  0.83950  1.0000
  H   H1673     1.0  0.56652  0.63944  0.82241  1.0000
  H   H1674     1.0  0.85775  0.81184  0.94491  1.0000
  H   H1675     1.0  0.85932  0.78788  0.92891  1.0000
  H   H1676     1.0  0.89972  0.78123  0.92853  1.0000
  H   H1677     1.0  0.91794  0.77983  0.94832  1.0000
  H   H1678     1.0  0.89516  0.83464  0.92566  1.0000
  H   H1679     1.0  0.92861  0.85921  0.93474  1.0000
  H   H1680     1.0  0.92512  0.82709  0.92510  1.0000
  H   H1681     1.0  0.94820  0.58272  0.77766  1.0000
  H   H1682     1.0  0.73674  0.78277  0.82778  1.0000
  C   C987      1.0  0.51667  0.60381  0.83989  1.0000
  C   C988      1.0  0.88105  0.78606  0.97227  1.0000
  H   H1683     1.0  0.82640  0.77573  0.96371  1.0000
  H   H1684     1.0  0.51382  0.65866  0.81832  1.0000
  H   H1685     1.0  0.87608  0.73551  0.95681  1.0000
  H   H1686     1.0  0.88925  0.73351  0.93541  1.0000
  H   H1687     1.0  0.72282  0.69077  0.85230  1.0000
  H   H1688     1.0  0.50671  0.64695  0.84058  1.0000
  H   H1689     1.0  0.51145  0.58183  0.83573  1.0000
  H   H1690     1.0  0.77970  0.72098  0.85212  1.0000
  N   N70       1.0  0.52091  0.62224  0.82391  1.0000
  H   H1691     1.0  0.54908  0.63987  0.80213  1.0000
  S   S287      1.0  0.94243  0.74041  0.95742  1.0000
  H   H1692     1.0  0.70315  0.70232  0.82596  1.0000
  C   C989      1.0  0.59430  0.89126  0.79944  1.0000
  H   H1693     1.0  0.75433  0.77235  0.97778  1.0000
  H   H1694     1.0  0.59535  0.85190  0.79594  1.0000
  H   H1695     1.0  0.64149  0.92613  0.77859  1.0000
  C   C990      1.0  0.54936  0.60048  0.80766  1.0000
  H   H1696     1.0  0.92848  0.82616  0.95784  1.0000
  H   H1697     1.0  0.53875  0.62879  0.86414  1.0000
  N   N71       1.0  0.62870  0.88141  0.77983  1.0000
  H   H1698     1.0  0.57188  0.88135  0.80302  1.0000
  H   H1699     1.0  0.60690  0.89654  0.81228  1.0000
  H   H1700     1.0  0.75430  0.81127  0.84336  1.0000
  H   H1701     1.0  0.98181  0.65542  0.75981  1.0000
  C   C991      1.0  0.74757  0.73343  0.82845  1.0000
  C   C992      1.0  0.59982  0.87040  0.78748  1.0000
  C   C993      1.0  0.62210  0.83035  0.77591  1.0000
  C   C994      1.0  0.62532  0.96963  0.83330  1.0000
  H   H1702     1.0  0.62519  0.81656  0.76575  1.0000
  H   H1703     1.0  0.71071  0.69606  0.87360  1.0000
  H   H1704     1.0  0.53325  0.58862  0.79701  1.0000
  C   C995      1.0  0.73842  0.73516  0.86139  1.0000
  C   C996      1.0  0.74493  0.78805  0.84190  1.0000
  H   H1705     1.0  0.50008  0.61860  0.79776  1.0000
  C   C997      1.0  0.62877  0.85882  0.76740  1.0000
  H   H1706     1.0  0.64903  0.86544  0.76077  1.0000
  H   H1707     1.0  0.78362  0.78839  0.83552  1.0000
  H   H1708     1.0  0.91444  0.57737  0.78412  1.0000
  C   C998      1.0  0.63368  0.90736  0.76941  1.0000
  H   H1709     1.0  0.58341  0.86299  0.77639  1.0000
  H   H1710     1.0  0.61365  0.90559  0.76310  1.0000
  C   C999      1.0  0.78474  0.74361  0.85178  1.0000
  C   C1000     1.0  0.55013  0.67392  0.83573  1.0000
  H   H1711     1.0  0.91866  0.77910  0.97768  1.0000
  C   C1001     1.0  0.54393  0.82222  0.75239  1.0000
  H   H1712     1.0  0.61332  0.85476  0.75607  1.0000
  H   H1713     1.0  0.98044  0.74391  0.84065  1.0000
  H   H1714     1.0  0.51984  0.79490  0.77315  1.0000
  H   H1715     1.0  0.72755  0.77982  0.85136  1.0000
  H   H1716     1.0  0.54682  0.69160  0.84138  1.0000
  H   H1717     1.0  0.86532  0.76392  0.97363  1.0000
  H   H1718     1.0  0.56384  0.68229  0.82411  1.0000
  H   H1719     1.0  0.56132  0.66780  0.84623  1.0000
  H   H1720     1.0  0.95903  0.63381  0.83659  1.0000
  C   C1002     1.0  0.66329  0.98033  0.80605  1.0000
  H   H1721     1.0  0.95020  0.62919  0.76824  1.0000
  H   H1722     1.0  0.53657  0.83782  0.75504  1.0000
  H   H1723     1.0  0.61041  0.96584  0.84376  1.0000
  C   C1003     1.0  0.94780  0.60769  0.80190  1.0000
  H   H1724     1.0  0.48738  0.57183  0.77538  1.0000
  H   H1725     1.0  0.49346  0.58589  0.80741  1.0000
  C   C1004     1.0  0.93553  0.58107  0.78954  1.0000
  N   N72       1.0  0.97917  0.62482  0.80182  1.0000
  C   C1005     1.0  0.98175  0.64504  0.83409  1.0000
  C   C1006     1.0  0.72065  0.98755  0.98502  1.0000
  H   H1726     1.0  0.97444  0.81465  0.97224  1.0000
  C   C1007     1.0  0.90715  0.78981  0.98380  1.0000
  H   H1727     1.0  0.92162  0.81226  0.98646  1.0000
  H   H1728     1.0  0.64461  0.89969  0.74224  1.0000
  S   S288      1.0  0.71816  0.98826  0.94780  1.0000
  C   C1008     1.0  0.56312  0.82636  0.73896  1.0000
  Fe  Fe144     1.0  0.75651  0.98905  0.88705  1.0000
