data_image0
_chemical_formula_structural       H2C2SCH3SFeS2FeS2FeHFeS2CNC6H12C7H4FeHCHCH2CHNCFeNHC2H3SH3C2H4C3NH5S2CHCHCH3FeH4CNCH3C4H3SH7CHCHCHC2H7C2H3C2H2CH2SH4C2H3CH3C2HCS2FeS2FeS2FeSFeS3FeS2FeSFeSFeS3NH4SHSFe2S3HSCH4C2H3SC6H4C6H4C6H4C6H2C6H4CH3SNC7H20FeHCH3C2HFeCNC2HCH2CH2C4H4CH7CH2CHCH3SCH5NH3C2HC2HC2H2CH7CH3CH2C2H3C2H5NC8H9CH12CHCH3NH7CSCH4FeC3FeC3HCH8SH6CNH2C3H5FeCHCFeH4SFeS2FeS2FeSFeS3NFeSH2SHSFeS2FeSHFeSFeS3FeS2FeS2FeSFeS3HSH2SHCFeS2FeS2FeSFeS3CH2C3H2C3HC2HC3HC2H9C6HCH2C6H4C6H5C3HC6H2C7HCH2C6H4C6H4C6H3NC3SCH2SH5C2H6NC8H20NCFeCH4CH7CH3NH2C2HCHC2HCHCH2CHC2H3CSH8C2NCHCH2CH5NH2CH3CH2CH3CH3CH5CH5C5HFeHCH4C3H5C2HCHNCH3SHCHCHC2H5CH8CHC3H8CHFeH2NH2CH2CH6CH3CHC2H8SCHCH3SCFeSFeSCHCS2FeS2FeSFeS3FeS2FeS2FeSFeS3FeS2FeS2HFeCS2CH2C6H2CHC6H4C6H5CH2SC6H4C6H7SHSCHC2HC4H5CHNC4HC3H8CSH17NCHNHCH2C2H2C3HC3H3FeHFeH5C2H3NH2CH3FeH4CH2CNH6C2HC3HCHCH5CHCH3FeCHCSH2C2H4C2H2CHFeNH2CNC8H20CH2NC4H3C2H7CH23C2H2CH4CH2C2H4NCH3CFeS2FeS2FeSFeS3NHSHSHFeHFeS2FeCS2FeS2FeS2FeSFeS3CH4C6H4C6H3CH2CH7C6H4C6H4C6H4CHC2SHCH5CHC2HC3HCH3SH5FeCHC2H2CH6CH3CH3NHCHC2HCH4C2H4CH4CH4CH4SCHCHCH3CHCSCFeCHC2H2CHCH2CH3CH2NH5NC8H20NH2CHCH6C2HCHNHCHCH5CH5CH2CNHC2H3CH3C2H8CFeHSH4SHFeCHFeS2FeSCS2FeS2FeSFeSFeNS2H3S4H2CHC4S2NC7H4C6H4C6H4C6H4CH2CH3C2H6CS2NH3CSCH5CHCHC4HCH2CHC2H4CHCH5SHC3NH4CH4CH6C2H3CH6CH3FeH4FeH2SH2C3H4CH3CHCH2NC6HCHCH3CHSFeCSH2CH3CHSHSH2C2SFeS2FeHSFeS3HSFeS2FeSFeS3CSFeSHFeSFeS4CHCHC6H4C6H4C6H4CH2NC6H4C6H8CHC2H2CH6CH3SCH3C2HNH2SH2C2HCH5CH2NHC2NFeH4CH4CHCSHCNC8H20NHCHC3HCH6CH6CH5FeNHC3H2C2HCH6CHC2H3CH3CH3CH2CHCH5C2H3C2H4CH2FeHCH3CH2SCHCHCH5CH2CFeS2FeSCFeSFeS3H2SC2SH2FeCSCNSHFeS2FeS2FeSFeS3HCH2FeC6H5CH3CH2CH5C6H4C6H4C6HFeH5C2H2NCH5C3HNC2H2C2H2CHCHCNCH6CH10SH3CH2C2HCH2C4H14C2SH2SNHCH3C2HCH4CHCH2CSC2H2C4HNCHCH3C2H6C2NCH3CH7CH3CH8CH2FeHCNH2C2NCH6CHSCSHFeSFeHCSFeS2FeSFeS3FeS2FeS2FeSFeS3HSFeS2FeCFeSHSC2H2CH2C3HC4H2C6H4C6H5C6H4C6H5CH2C6H5NC8H22CHCH8NH2CH3CH5CHC2H2CH4CHC4HC2HFeCSH7CH3NC8H18C2SH6NH2CNH3CHNH2CSH2NH4C5HCH2C3H2CH2CHSFeHCHCH3FeCH2SHCH6CHSH8NC2H5CH3C2H2C2HSH7CHCFeS2FeS2FeSFeS3H2SFeHFeS2FeHFeNS2FeCFeS2FeS3Fe2HSH2S2FeS2FeS2FeSFeHS2HSH2CH3SCH3CHC6H4C6H4C6H11CH2CH2C6H4C6H4C6H4C6H5SC2HSH2CHCHCHCH4CFeC2H4NC8H20NCH2C2H4CH8FeH3NCNHNC8H20NC6HCH16CH3NC4HC3H5S2H5SH5C3H2C4H4SH3C2HCH2C4HSH2C4HCSCHCHC3H4CHCHCHC2SCH3CHFeH6FeS2FeSHSCHSH2FeSHSH2SHFeS2FeS2FeSFeS3FeSFeS2FeSFeS4HFeSCHC6H4C6H5CH2CSH2C2H4C6H4CHC2H2C2HCH3CHC6H4CH4CH3NC8H25CHNH2CSCH4CH2SH3SH4NH3CHC2HC2HC3HCNHC3H3CH2C2H7CHCHC2HCNH6NCH6FeCH6C4HCHCH6CH2NCHC2H3CHC5H4FeH3C2HC2H3Fe3HCH2CHSHCHCHC2H2CH5C4HCH3CH2CSH2CSFeS2FeSFeHSFeSHC4H2CHSH4C6H4FeCHCH2CH2SH3CHCH5CNCH2C2H7CSHCH2SCH2CH3CH2S2CHNH2CH3C2HCHC2HCHCHCH3CHC2H5CH7C2HCH5CHCFeS2FeS2FeSFeS3FeSHFeS2FeH2FeSFeCS4HSFeS2FeSFeSHSHSHFeSHFeS2FeS2FeSFeS3HC6H4C6H4C6H8CHFeCHC3HCHFeHC2SC7H4C6H4C6H4C6H4NC8H20NC8H27CHNHC2HCH7C2HSH2CHCH3C3H4SH2NC8H10CH5NC6H11NHC2HCH3CHC2H7CH5CHCH4CNH2CH2CH2CH2CNCH2CH4C2H4CH3C2H2CH2CNH3CH3CH2CHC2H2C3H3CH5SH4SH2C3SH4CHFeCSH4SHFeSCHSFeSFeSHSFeS2FeS2FeSFeS3HSFeS2FeSFeS4CSCHSH2CHCH2CH2C7H4C6H4C6H4C2H4C6H4C2SH3CSH2CH4C2H4CH4CH7NCH7CFeHC3HC3H2SHFeH2CH2SCNH2C2H3NC8HNH6C2HCSH7CH2NC6HCH12CH2C2H3NC5HC2H11CH9CH3C3H2C2HFeSH3C2HC2H8CHFeH8NC2H2NH7C2H2C3HC2H2FeH2FeHCH3CH4CH5CNFeS2H2FeHFeS2H3C2H2CHSCH4NH2C2HC4SH3C6H4CHC2NC2H2SCHSH4CFeHCHCH9SC2H6FeH5C4H2C4HCH2C2NH4CSC2H2CHCH7CH7CFeCSFeHSFeSHS2FeS2FeSHFeSFeS3FeSFeS2FeSFeS4HCHNFeS2HC2H2CH2C7H4C6H4C6H4C6H4C7H3CHC3H2CH2C2HCH3C2H6NHCHFeH6NH7CHCH2CHC2SCH5CHC3H2CNCH2C3SHCHCH3CH3CHC2H2CHCHCHCH2CHCH7CH5S2CH2NH3CHC3H5NH2CNC8H30C2H3CHC2H3SH6CHCH3CHNHCHCH2C2HCH6C2H5CH4CHCH3CHCFeS2FeS2FeSFeS2HSHSHSHCFeHSC2SCFeS2FeS2FeSFeS3H8CHC6H4C2SH2FeH2CHC6H4C6H4C6H4SHSCH2CH2CH3FeCHSHNH5CH2CHFeNHCH2CH4CH5SHFeSCNC8H10CH9C2HCH5NC8H12CH7NC8H5CHCHCHC4H2CHSHCH4NHCH4SH2CH3SFeHFeS2FeS3H2FeS2FeH3SFeCSFeSHFeHS2FeS2FeS2FeSFeS3HC6H4C6H7C2HC2HC4H2CSHC6H4C6H4C6H4NC4HC3H8CSCH15CH4CH2CSH3CH4C2SCH9C2H8CHCHNH6CH3NCH2NCH5CHNHC2H2CHCH5CH2SH2C2HCHNCH2CH2CHCH3CHCH4CH3SCHCHNC7H5CHC3HC2H5CH2CH3CH6CHCH2S2H5CH5FeH2C2HC4H3SFeS2FeSFeS3FeH3SHFeS2FeSHFeSFeS3HSFeSHFeSFeS3HSHSNH4CHFeC6H6FeH2CH2C6H4C6H4C6H4C6H2CHCH2C3H2CH2NC4H5SCH5CFeH6CH7SH4C5H4C3H4CHCH5S2H2CHC2NSCH3SNC8H14CH3CHCH8SH2CHNC2HCH2CH2C2H2C3H5CH4CHCHCHCH3CHCH3CHC2HNHNHSCHCH5CHFeHCH3FeH3CHCHCSFeS2FeS2FeSFeS3HC3SH2SFeNFeS2FeS2FeS2FeSFeS3HCH2CH3CFeH3C6H5C5H3CH2SH3C6H5C6H4C6H5CH6NC4H2C2H3CH3C2NH4SH3C2H5C2H2SC3H4CH4C2NCHC2H10C2H2SCHC2HCH8CH2NC8H20CHCH5CH2C2H3CH3CSH3CSHCH2CH2CHCH6FeCH6C2HS2H3FeHSFeS2Fe2S3CSCSFeSFeSFe2S2FeSFeSFeHS2HSFeSH4FeHC6H4C6H2C6H4CHCHC2H2C2SHCHC7H3NHC6H3CH8NC2HCH2CH4CH5CH4CHSH3NC8H21CH7CHCH3CH3CH2CNCNH4FeHC2HSH9CHCH5CH2CH7C2HC2SCH2CHCHC2HCH2CHCHC2H3CH8S2HSFeS2CSFeHFeSCS3H3C7H4C2HC4HCHSC2HCH3CH5CH4CH3C2H5SH10CHC2HCH3CH2C6H6CNCHCHNHFeC2FeCHNCH4C2HSHFeH3CH2C4H2NCH7CHNCH2CFeH2C2H8CH2CH4CHCH2SHSFeHFeS2FeSHFeSFeSFeS2FeS2FeSFeS3FeSHFeS2FeSFeS3HC2HCH2FeC6H5C5H2C6H5CH3NC7H4CFeHCSC6H4CH4CH8C2HCHC2H2CH2CH4CHNC2HCH2SCH3CHC2H2SCH9NC8H21CNC9H3CH22CH2CH4CSH2C5HFeH2C2H2CHSHC2HC2HSH6CH11CH7NH2CH4C2HCH2SHCSHNHCHCH2C2NH3CHC4H3CFeS2FeS2FeSFeS3C2HFeS2FeS2FeSFeS3H2CFeSFeS2FeS3CFeS2FeCSHFeS2FeS2FeSFeS3H3CH2CHC6H4C6H5SC8H5C4H2NC2H3CH2C8H2CHC6H4C6H4C6H3NC8H14CH5NH2C2HSH3CH6CH3CH3CH4NC7H16NC8H17NH3CH5C3H6CH6SC2HCHC2HCHC2H4CH2CH2CH4C4H5CHNH6CHNCHCH2NC5H2FeHCH3CSH5CH2CH6SCH3C3H3CH3CH2CHSH4SHCH7C2HCHCH7SHCHC2H6NHCH3CHCH3
_chemical_formula_sum              "H3936 C2296 S656 Fe328 N164"
_cell_length_a       71.5894
_cell_length_b       72.0897
_cell_length_c       72.4413
_cell_angle_alpha    85.2722
_cell_angle_beta     84.203
_cell_angle_gamma    83.9284

_space_group_name_H-M_alt    "P 1"
_space_group_IT_number       1

loop_
  _space_group_symop_operation_xyz
  'x, y, z'

loop_
  _atom_site_type_symbol
  _atom_site_label
  _atom_site_symmetry_multiplicity
  _atom_site_fract_x
  _atom_site_fract_y
  _atom_site_fract_z
  _atom_site_occupancy
  H   H1        1.0  0.46821  0.22564  0.99604  1.0000
  H   H2        1.0  0.31586  0.99784  0.99596  1.0000
  C   C1        1.0  0.36981  0.02596  0.17133  1.0000
  C   C2        1.0  0.32217  0.09305  0.00700  1.0000
  S   S1        1.0  0.37162  0.03121  0.23032  1.0000
  C   C3        1.0  0.01139  0.01355  0.09598  1.0000
  H   H3        1.0  0.05842  0.20113  0.00043  1.0000
  H   H4        1.0  0.45887  0.19997  0.32097  1.0000
  H   H5        1.0  0.01487  0.03081  0.04891  1.0000
  S   S2        1.0  0.43661  0.22539  0.16731  1.0000
  Fe  Fe1       1.0  0.45957  0.13872  0.24751  1.0000
  S   S3        1.0  0.47266  0.14375  0.27348  1.0000
  S   S4        1.0  0.46917  0.15655  0.22092  1.0000
  Fe  Fe2       1.0  0.44337  0.10255  0.26603  1.0000
  S   S5        1.0  0.45537  0.10596  0.29311  1.0000
  S   S6        1.0  0.43217  0.07375  0.26577  1.0000
  Fe  Fe3       1.0  0.44535  0.13653  0.28930  1.0000
  H   H6        1.0  0.36656  0.01388  0.27164  1.0000
  Fe  Fe4       1.0  0.48173  0.11277  0.27534  1.0000
  S   S7        1.0  0.43143  0.13300  0.26307  1.0000
  S   S8        1.0  0.47047  0.10799  0.24864  1.0000
  C   C4        1.0  0.30092  0.99903  0.00038  1.0000
  N   N1        1.0  0.34410  0.02130  0.29318  1.0000
  C   C5        1.0  0.45968  0.17581  0.20639  1.0000
  C   C6        1.0  0.47129  0.18294  0.19112  1.0000
  C   C7        1.0  0.46453  0.19803  0.17905  1.0000
  C   C8        1.0  0.44595  0.20619  0.18200  1.0000
  C   C9        1.0  0.43437  0.19917  0.19734  1.0000
  C   C10       1.0  0.44117  0.18413  0.20948  1.0000
  H   H7        1.0  0.44449  0.23954  0.03283  1.0000
  H   H8        1.0  0.47363  0.20321  0.16735  1.0000
  H   H9        1.0  0.41996  0.20529  0.19978  1.0000
  H   H10       1.0  0.43201  0.17883  0.22108  1.0000
  H   H11       1.0  0.44128  0.22662  0.22890  1.0000
  H   H12       1.0  0.33672  0.06061  0.27198  1.0000
  H   H13       1.0  0.31262  0.03540  0.01018  1.0000
  H   H14       1.0  0.32995  0.04749  0.30225  1.0000
  H   H15       1.0  0.31108  0.05037  0.15405  1.0000
  H   H16       1.0  0.32801  0.12174  0.99834  1.0000
  H   H17       1.0  0.42167  0.22737  0.07876  1.0000
  H   H18       1.0  0.35336  0.04396  0.30700  1.0000
  C   C11       1.0  0.34180  0.02612  0.19334  1.0000
  C   C12       1.0  0.38899  0.04276  0.23969  1.0000
  C   C13       1.0  0.38882  0.06234  0.23667  1.0000
  C   C14       1.0  0.40200  0.07210  0.24429  1.0000
  C   C15       1.0  0.41544  0.06238  0.25520  1.0000
  C   C16       1.0  0.41554  0.04281  0.25824  1.0000
  C   C17       1.0  0.40250  0.03305  0.25046  1.0000
  H   H19       1.0  0.37842  0.07004  0.22840  1.0000
  H   H20       1.0  0.40169  0.08713  0.24186  1.0000
  H   H21       1.0  0.42585  0.03513  0.26664  1.0000
  H   H22       1.0  0.40289  0.01801  0.25289  1.0000
  Fe  Fe5       1.0  0.45033  0.24143  0.14159  1.0000
  H   H23       1.0  0.44700  0.22293  0.31974  1.0000
  C   C18       1.0  0.32066  0.02454  0.19879  1.0000
  H   H24       1.0  0.31185  0.02689  0.16364  1.0000
  C   C19       1.0  0.34406  0.04171  0.29619  1.0000
  H   H25       1.0  0.33765  0.05329  0.16793  1.0000
  H   H26       1.0  0.33602  0.24127  0.06245  1.0000
  C   C20       1.0  0.30939  0.06422  0.01925  1.0000
  H   H27       1.0  0.44942  0.24076  0.19758  1.0000
  N   N2        1.0  0.00213  0.05799  0.30945  1.0000
  C   C21       1.0  0.01223  0.04318  0.29740  1.0000
  Fe  Fe6       1.0  0.36864  0.99976  0.23275  1.0000
  N   N3        1.0  0.31488  0.07554  0.00137  1.0000
  H   H28       1.0  0.00403  0.04218  0.06944  1.0000
  C   C22       1.0  0.01664  0.06794  0.31748  1.0000
  C   C23       1.0  0.33497  0.23789  0.04798  1.0000
  H   H29       1.0  0.29845  0.07226  0.02825  1.0000
  H   H30       1.0  0.32171  0.06124  0.02769  1.0000
  H   H31       1.0  0.00203  0.03675  0.28988  1.0000
  S   S9        1.0  0.38551  0.21878  0.02626  1.0000
  H   H32       1.0  0.31791  0.02497  0.21413  1.0000
  H   H33       1.0  0.03403  0.03208  0.31624  1.0000
  H   H34       1.0  0.40563  0.20901  0.05857  1.0000
  C   C24       1.0  0.26255  0.00191  0.01212  1.0000
  C   C25       1.0  0.30186  0.04529  0.01726  1.0000
  H   H35       1.0  0.02908  0.06936  0.30709  1.0000
  H   H36       1.0  0.43823  0.22171  0.01139  1.0000
  H   H37       1.0  0.38290  0.03394  0.28836  1.0000
  H   H38       1.0  0.03451  0.20762  0.99675  1.0000
  C   C26       1.0  0.33944  0.03994  0.16091  1.0000
  C   C27       1.0  0.35392  0.00060  0.14784  1.0000
  C   C28       1.0  0.00190  0.03287  0.05856  1.0000
  N   N4        1.0  0.00743  0.00271  0.08012  1.0000
  H   H39       1.0  0.48560  0.17666  0.18849  1.0000
  H   H40       1.0  0.32167  0.03240  0.14011  1.0000
  H   H41       1.0  0.30550  0.11658  0.99289  1.0000
  H   H42       1.0  0.29813  0.03856  0.03131  1.0000
  H   H43       1.0  0.36942  0.99689  0.14703  1.0000
  S   S10       1.0  0.45769  0.23203  0.11249  1.0000
  S   S11       1.0  0.34110  0.21589  0.99799  1.0000
  C   C29       1.0  0.34948  0.05433  0.27859  1.0000
  H   H44       1.0  0.28880  0.04693  0.01001  1.0000
  C   C30       1.0  0.28037  0.08941  0.00024  1.0000
  H   H45       1.0  0.02084  0.02466  0.09118  1.0000
  C   C31       1.0  0.34603  0.00518  0.16775  1.0000
  H   H46       1.0  0.36435  0.99682  0.29036  1.0000
  H   H47       1.0  0.31184  0.03660  0.19267  1.0000
  H   H48       1.0  0.03281  0.01871  0.29672  1.0000
  Fe  Fe7       1.0  0.36999  0.22513  0.99990  1.0000
  H   H49       1.0  0.34972  0.01535  0.20224  1.0000
  H   H50       1.0  0.37717  0.01436  0.17985  1.0000
  H   H51       1.0  0.33722  0.09016  0.00996  1.0000
  H   H52       1.0  0.30336  0.01912  0.29331  1.0000
  C   C32       1.0  0.39660  0.23272  0.04035  1.0000
  N   N5        1.0  0.34879  0.02442  0.17313  1.0000
  C   C33       1.0  0.32004  0.03681  0.15457  1.0000
  H   H53       1.0  0.34877  0.04256  0.14788  1.0000
  H   H54       1.0  0.00430  0.07103  0.26902  1.0000
  H   H55       1.0  0.02205  0.04947  0.28632  1.0000
  C   C34       1.0  0.02420  0.02703  0.30736  1.0000
  C   C35       1.0  0.37613  0.04445  0.17677  1.0000
  C   C36       1.0  0.31083  0.02651  0.28118  1.0000
  C   C37       1.0  0.33177  0.01883  0.27800  1.0000
  H   H56       1.0  0.03341  0.00975  0.06404  1.0000
  H   H57       1.0  0.27021  0.07902  0.00511  1.0000
  H   H58       1.0  0.32102  0.23289  0.04685  1.0000
  S   S12       1.0  0.42905  0.15454  0.31180  1.0000
  H   H59       1.0  0.31472  0.09757  0.02040  1.0000
  H   H60       1.0  0.33740  0.02529  0.26434  1.0000
  H   H61       1.0  0.39157  0.04449  0.17303  1.0000
  H   H62       1.0  0.37393  0.04581  0.19197  1.0000
  H   H63       1.0  0.31606  0.01113  0.19538  1.0000
  H   H64       1.0  0.41774  0.23553  0.00484  1.0000
  H   H65       1.0  0.36918  0.05692  0.16931  1.0000
  C   C38       1.0  0.99995  0.08077  0.28011  1.0000
  H   H66       1.0  0.35751  0.06567  0.28224  1.0000
  C   C39       1.0  0.40567  0.22397  0.05559  1.0000
  H   H67       1.0  0.39356  0.01051  0.29044  1.0000
  C   C40       1.0  0.41480  0.23435  0.06709  1.0000
  H   H68       1.0  0.30361  0.02398  0.26886  1.0000
  C   C41       1.0  0.26948  0.01379  0.99700  1.0000
  C   C42       1.0  0.38060  0.01968  0.29459  1.0000
  H   H69       1.0  0.28328  0.09731  0.01194  1.0000
  H   H70       1.0  0.34125  0.05756  0.99991  1.0000
  H   H71       1.0  0.24763  0.00318  0.01661  1.0000
  H   H72       1.0  0.04514  0.17458  0.99128  1.0000
  H   H73       1.0  0.35886  0.04663  0.26810  1.0000
  H   H74       1.0  0.37949  0.01986  0.30988  1.0000
  H   H75       1.0  0.35053  0.01214  0.13729  1.0000
  C   C43       1.0  0.01038  0.08794  0.32362  1.0000
  C   C44       1.0  0.33597  0.01110  0.31071  1.0000
  H   H76       1.0  0.30904  0.04179  0.28259  1.0000
  H   H77       1.0  0.37594  0.02449  0.15673  1.0000
  H   H78       1.0  0.34444  0.03983  0.19801  1.0000
  C   C45       1.0  0.05251  0.24237  0.00384  1.0000
  C   C46       1.0  0.36357  0.01226  0.28706  1.0000
  H   H79       1.0  0.48628  0.02098  0.25951  1.0000
  H   H80       1.0  0.32221  0.01838  0.31597  1.0000
  C   C47       1.0  0.32041  0.11069  0.99341  1.0000
  H   H81       1.0  0.33202  0.00369  0.27576  1.0000
  H   H82       1.0  0.33100  0.00251  0.16920  1.0000
  S   S13       1.0  0.99987  0.01550  0.01284  1.0000
  H   H83       1.0  0.42040  0.23636  0.21898  1.0000
  H   H84       1.0  0.42011  0.20524  0.99261  1.0000
  H   H85       1.0  0.01233  0.08732  0.28357  1.0000
  H   H86       1.0  0.01584  0.09863  0.31310  1.0000
  C   C48       1.0  0.28876  0.01247  0.99101  1.0000
  C   C49       1.0  0.43208  0.22988  0.99938  1.0000
  H   H87       1.0  0.99838  0.03470  0.11429  1.0000
  H   H88       1.0  0.05203  0.23004  0.01402  1.0000
  H   H89       1.0  0.34573  0.22598  0.04492  1.0000
  C   C50       1.0  0.02600  0.99725  0.06912  1.0000
  H   H90       1.0  0.01522  0.01713  0.31563  1.0000
  H   H91       1.0  0.01969  0.00434  0.10594  1.0000
  H   H92       1.0  0.33291  0.99684  0.30786  1.0000
  C   C51       1.0  0.43343  0.24007  0.22429  1.0000
  C   C52       1.0  0.99500  0.01415  0.06691  1.0000
  H   H93       1.0  0.35273  0.99425  0.17745  1.0000
  C   C53       1.0  0.33039  0.06386  0.99064  1.0000
  S   S14       1.0  0.01780  0.21444  0.40643  1.0000
  S   S15       1.0  0.21214  0.01974  0.40514  1.0000
  Fe  Fe8       1.0  0.24889  0.10848  0.49299  1.0000
  S   S16       1.0  0.23252  0.10817  0.46803  1.0000
  S   S17       1.0  0.23216  0.09818  0.51975  1.0000
  Fe  Fe9       1.0  0.28191  0.12617  0.46971  1.0000
  S   S18       1.0  0.26740  0.12703  0.44349  1.0000
  S   S19       1.0  0.31337  0.13101  0.46905  1.0000
  Fe  Fe10      1.0  0.24075  0.13728  0.46062  1.0000
  S   S20       1.0  0.21915  0.15802  0.44643  1.0000
  Fe  Fe11      1.0  0.25998  0.09794  0.45283  1.0000
  S   S21       1.0  0.26564  0.07587  0.43148  1.0000
  S   S22       1.0  0.25560  0.13847  0.48650  1.0000
  S   S23       1.0  0.27593  0.09621  0.47822  1.0000
  Fe  Fe12      1.0  0.39688  0.20162  0.44145  1.0000
  S   S24       1.0  0.42124  0.17968  0.44467  1.0000
  S   S25       1.0  0.36540  0.19840  0.44892  1.0000
  Fe  Fe13      1.0  0.42303  0.23129  0.42490  1.0000
  S   S26       1.0  0.44909  0.21097  0.42734  1.0000
  Fe  Fe14      1.0  0.43232  0.19040  0.41591  1.0000
  S   S27       1.0  0.44627  0.17078  0.39394  1.0000
  Fe  Fe15      1.0  0.43603  0.20216  0.45591  1.0000
  S   S28       1.0  0.44952  0.19443  0.48367  1.0000
  S   S29       1.0  0.40711  0.21105  0.41205  1.0000
  S   S30       1.0  0.41081  0.22372  0.45408  1.0000
  N   N6        1.0  0.38408  0.18576  0.50774  1.0000
  H   H94       1.0  0.46064  0.14160  0.33430  1.0000
  H   H95       1.0  0.49081  0.19160  0.53491  1.0000
  H   H96       1.0  0.13570  0.02221  0.65519  1.0000
  H   H97       1.0  0.01789  0.23563  0.49917  1.0000
  S   S31       1.0  0.21198  0.02868  0.61490  1.0000
  H   H98       1.0  0.22201  0.13513  0.54843  1.0000
  S   S32       1.0  0.23518  0.04766  0.64400  1.0000
  Fe  Fe16      1.0  0.20608  0.03783  0.64408  1.0000
  Fe  Fe17      1.0  0.24142  0.03597  0.61574  1.0000
  S   S33       1.0  0.25943  0.04716  0.59021  1.0000
  S   S34       1.0  0.25203  0.00718  0.62730  1.0000
  S   S35       1.0  0.01032  0.22174  0.61363  1.0000
  H   H99       1.0  0.22388  0.13983  0.52385  1.0000
  S   S36       1.0  0.15854  0.21969  0.48262  1.0000
  C   C54       1.0  0.47928  0.21627  0.48697  1.0000
  H   H100      1.0  0.40866  0.17711  0.33946  1.0000
  H   H101      1.0  0.25799  0.02261  0.46573  1.0000
  H   H102      1.0  0.18733  0.13548  0.55018  1.0000
  H   H103      1.0  0.04591  0.22945  0.51560  1.0000
  C   C55       1.0  0.46858  0.20188  0.49477  1.0000
  C   C56       1.0  0.25892  0.01437  0.45330  1.0000
  H   H104      1.0  0.46345  0.20646  0.38850  1.0000
  H   H105      1.0  0.03373  0.21651  0.36774  1.0000
  H   H106      1.0  0.03332  0.17217  0.64083  1.0000
  S   S37       1.0  0.10437  0.24211  0.47927  1.0000
  C   C57       1.0  0.20269  0.17549  0.45652  1.0000
  C   C58       1.0  0.20338  0.18046  0.47468  1.0000
  C   C59       1.0  0.18980  0.19408  0.48226  1.0000
  C   C60       1.0  0.17543  0.20302  0.47183  1.0000
  C   C61       1.0  0.17496  0.19836  0.45354  1.0000
  C   C62       1.0  0.18851  0.18466  0.44595  1.0000
  H   H107      1.0  0.21445  0.17388  0.48282  1.0000
  H   H108      1.0  0.19049  0.19787  0.49630  1.0000
  H   H109      1.0  0.16402  0.20512  0.44531  1.0000
  H   H110      1.0  0.18790  0.18103  0.43185  1.0000
  C   C63       1.0  0.25156  0.06175  0.57100  1.0000
  C   C64       1.0  0.23247  0.06768  0.56964  1.0000
  C   C65       1.0  0.22683  0.07883  0.55386  1.0000
  C   C66       1.0  0.24016  0.08412  0.53925  1.0000
  C   C67       1.0  0.25923  0.07815  0.54058  1.0000
  C   C68       1.0  0.26488  0.06707  0.55640  1.0000
  H   H111      1.0  0.22208  0.06371  0.58077  1.0000
  H   H112      1.0  0.21204  0.08338  0.55299  1.0000
  H   H113      1.0  0.26965  0.08215  0.52948  1.0000
  H   H114      1.0  0.27968  0.06257  0.55734  1.0000
  C   C69       1.0  0.32750  0.14992  0.46266  1.0000
  C   C70       1.0  0.31969  0.16835  0.45920  1.0000
  C   C71       1.0  0.33153  0.18291  0.45495  1.0000
  C   C72       1.0  0.35131  0.17929  0.45382  1.0000
  C   C73       1.0  0.35916  0.16082  0.45699  1.0000
  C   C74       1.0  0.34732  0.14629  0.46150  1.0000
  H   H115      1.0  0.30452  0.17142  0.46008  1.0000
  H   H116      1.0  0.32526  0.19713  0.45253  1.0000
  H   H117      1.0  0.37431  0.15776  0.45626  1.0000
  H   H118      1.0  0.35352  0.13210  0.46423  1.0000
  C   C75       1.0  0.45063  0.15087  0.34226  1.0000
  C   C76       1.0  0.45406  0.15474  0.36037  1.0000
  C   C77       1.0  0.44126  0.16674  0.37102  1.0000
  C   C78       1.0  0.42486  0.17478  0.36332  1.0000
  C   C79       1.0  0.42139  0.17083  0.34526  1.0000
  C   C80       1.0  0.45001  0.21045  0.32934  1.0000
  H   H119      1.0  0.46675  0.14832  0.36616  1.0000
  H   H120      1.0  0.41480  0.18393  0.37132  1.0000
  C   C81       1.0  0.22751  0.03469  0.41274  1.0000
  C   C82       1.0  0.22096  0.04592  0.42751  1.0000
  C   C83       1.0  0.23259  0.05822  0.43384  1.0000
  C   C84       1.0  0.25085  0.05956  0.42527  1.0000
  C   C85       1.0  0.25747  0.04814  0.41067  1.0000
  C   C86       1.0  0.24590  0.03574  0.40446  1.0000
  H   H121      1.0  0.20677  0.04510  0.43407  1.0000
  H   H122      1.0  0.22736  0.06679  0.44519  1.0000
  H   H123      1.0  0.27158  0.04907  0.40395  1.0000
  H   H124      1.0  0.25110  0.02720  0.39306  1.0000
  C   C87       1.0  0.22988  0.00868  0.57233  1.0000
  H   H125      1.0  0.42185  0.16657  0.50415  1.0000
  H   H126      1.0  0.49409  0.23384  0.62499  1.0000
  H   H127      1.0  0.37842  0.21702  0.53199  1.0000
  S   S38       1.0  0.17797  0.05583  0.64998  1.0000
  N   N7        1.0  0.22160  0.10806  0.39841  1.0000
  C   C88       1.0  0.20988  0.09219  0.39642  1.0000
  C   C89       1.0  0.22106  0.11059  0.41895  1.0000
  C   C90       1.0  0.24155  0.10208  0.39083  1.0000
  C   C91       1.0  0.21359  0.12536  0.38753  1.0000
  C   C92       1.0  0.21043  0.08536  0.37671  1.0000
  C   C93       1.0  0.20116  0.11445  0.42907  1.0000
  C   C94       1.0  0.25657  0.11536  0.39274  1.0000
  H   H128      1.0  0.21426  0.07975  0.40571  1.0000
  H   H129      1.0  0.19472  0.09606  0.40086  1.0000
  H   H130      1.0  0.22924  0.12204  0.42187  1.0000
  H   H131      1.0  0.22809  0.09795  0.42623  1.0000
  H   H132      1.0  0.24648  0.08822  0.39754  1.0000
  H   H133      1.0  0.24232  0.10014  0.37570  1.0000
  H   H134      1.0  0.21841  0.12482  0.37245  1.0000
  H   H135      1.0  0.19791  0.12584  0.38850  1.0000
  H   H136      1.0  0.19934  0.07567  0.37662  1.0000
  H   H137      1.0  0.20760  0.09701  0.36607  1.0000
  H   H138      1.0  0.22405  0.07714  0.37276  1.0000
  H   H139      1.0  0.20238  0.11977  0.44280  1.0000
  H   H140      1.0  0.19214  0.12518  0.42133  1.0000
  H   H141      1.0  0.19407  0.10139  0.43180  1.0000
  H   H142      1.0  0.25443  0.12845  0.38373  1.0000
  H   H143      1.0  0.27062  0.10842  0.38792  1.0000
  H   H144      1.0  0.25748  0.11836  0.40732  1.0000
  H   H145      1.0  0.40522  0.15020  0.50041  1.0000
  H   H146      1.0  0.08657  0.22046  0.55964  1.0000
  H   H147      1.0  0.20532  0.01018  0.55534  1.0000
  Fe  Fe18      1.0  0.22204  0.00052  0.62790  1.0000
  H   H148      1.0  0.15449  0.01700  0.60869  1.0000
  C   C95       1.0  0.38524  0.20334  0.53724  1.0000
  H   H149      1.0  0.15447  0.10586  0.51878  1.0000
  H   H150      1.0  0.41997  0.15969  0.48150  1.0000
  H   H151      1.0  0.37458  0.19517  0.54543  1.0000
  C   C96       1.0  0.15856  0.02382  0.62063  1.0000
  C   C97       1.0  0.22415  0.23617  0.48463  1.0000
  H   H152      1.0  0.40449  0.22126  0.36971  1.0000
  Fe  Fe19      1.0  0.03624  0.23688  0.61310  1.0000
  C   C98       1.0  0.18021  0.16145  0.51958  1.0000
  N   N8        1.0  0.45206  0.22963  0.35789  1.0000
  C   C99       1.0  0.39671  0.17968  0.49097  1.0000
  C   C100      1.0  0.21920  0.99548  0.45600  1.0000
  H   H153      1.0  0.16759  0.10425  0.53904  1.0000
  C   C101      1.0  0.37397  0.16975  0.51730  1.0000
  H   H154      1.0  0.19343  0.16821  0.51556  1.0000
  H   H155      1.0  0.22757  0.00569  0.53293  1.0000
  C   C102      1.0  0.37703  0.21957  0.49321  1.0000
  H   H156      1.0  0.39228  0.22023  0.49401  1.0000
  H   H157      1.0  0.43700  0.20384  0.33422  1.0000
  C   C103      1.0  0.43425  0.15889  0.33456  1.0000
  C   C104      1.0  0.05335  0.23680  0.50338  1.0000
  C   C105      1.0  0.21780  0.14449  0.39363  1.0000
  C   C106      1.0  0.19504  0.13505  0.50258  1.0000
  H   H158      1.0  0.05288  0.20409  0.42246  1.0000
  H   H159      1.0  0.04857  0.21347  0.48724  1.0000
  H   H160      1.0  0.19529  0.23295  0.48115  1.0000
  H   H161      1.0  0.36348  0.17475  0.52865  1.0000
  C   C107      1.0  0.39607  0.19247  0.52137  1.0000
  H   H162      1.0  0.19352  0.13413  0.47289  1.0000
  H   H163      1.0  0.47517  0.21753  0.33966  1.0000
  H   H164      1.0  0.01691  0.08982  0.33653  1.0000
  H   H165      1.0  0.40687  0.20131  0.51423  1.0000
  H   H166      1.0  0.35222  0.02194  0.33110  1.0000
  H   H167      1.0  0.17799  0.00136  0.63028  1.0000
  H   H168      1.0  0.39542  0.20638  0.54694  1.0000
  C   C108      1.0  0.24010  0.03077  0.53721  1.0000
  H   H169      1.0  0.15577  0.13783  0.51325  1.0000
  H   H170      1.0  0.14695  0.03413  0.62570  1.0000
  C   C109      1.0  0.43452  0.22382  0.36936  1.0000
  H   H171      1.0  0.35840  0.20420  0.51291  1.0000
  C   C110      1.0  0.02452  0.24022  0.46940  1.0000
  H   H172      1.0  0.12454  0.01258  0.63802  1.0000
  H   H173      1.0  0.40464  0.19139  0.48447  1.0000
  H   H174      1.0  0.99818  0.03752  0.33293  1.0000
  S   S39       1.0  0.06040  0.22866  0.59131  1.0000
  C   C111      1.0  0.17076  0.17006  0.53744  1.0000
  H   H175      1.0  0.19924  0.11806  0.53654  1.0000
  H   H176      1.0  0.15796  0.13573  0.53716  1.0000
  H   H177      1.0  0.16926  0.18554  0.53487  1.0000
  H   H178      1.0  0.15632  0.16589  0.54118  1.0000
  H   H179      1.0  0.17932  0.16676  0.54942  1.0000
  N   N9        1.0  0.24312  0.99958  0.55742  1.0000
  H   H180      1.0  0.26510  0.01555  0.56443  1.0000
  H   H181      1.0  0.43611  0.20859  0.37344  1.0000
  H   H182      1.0  0.46497  0.18191  0.51839  1.0000
  C   C112      1.0  0.47461  0.21512  0.38214  1.0000
  C   C113      1.0  0.18365  0.13679  0.48543  1.0000
  H   H183      1.0  0.17633  0.15097  0.48298  1.0000
  C   C114      1.0  0.03354  0.22809  0.41562  1.0000
  C   C115      1.0  0.21441  0.14213  0.53671  1.0000
  H   H184      1.0  0.20193  0.12051  0.50383  1.0000
  C   C116      1.0  0.03833  0.22699  0.35655  1.0000
  C   C117      1.0  0.36951  0.20097  0.50140  1.0000
  H   H185      1.0  0.25304  0.03533  0.54186  1.0000
  H   H186      1.0  0.17941  0.10394  0.51602  1.0000
  C   C118      1.0  0.36308  0.15918  0.50483  1.0000
  H   H187      1.0  0.41136  0.13250  0.36582  1.0000
  H   H188      1.0  0.20580  0.15061  0.40290  1.0000
  H   H189      1.0  0.35180  0.16837  0.49827  1.0000
  H   H190      1.0  0.25221  0.00429  0.52812  1.0000
  H   H191      1.0  0.22749  0.03733  0.54530  1.0000
  H   H192      1.0  0.37257  0.15205  0.49398  1.0000
  H   H193      1.0  0.39153  0.14573  0.35564  1.0000
  C   C119      1.0  0.02901  0.16304  0.65276  1.0000
  H   H194      1.0  0.18832  0.23449  0.44173  1.0000
  H   H195      1.0  0.38831  0.17615  0.47985  1.0000
  H   H196      1.0  0.04893  0.13980  0.64477  1.0000
  C   C120      1.0  0.16700  0.11030  0.52447  1.0000
  H   H197      1.0  0.47615  0.22328  0.47370  1.0000
  H   H198      1.0  0.23338  0.02302  0.57437  1.0000
  C   C121      1.0  0.26311  0.00092  0.56175  1.0000
  C   C122      1.0  0.19563  0.13346  0.53653  1.0000
  H   H199      1.0  0.17335  0.12620  0.48649  1.0000
  H   H200      1.0  0.23934  0.03631  0.52250  1.0000
  H   H201      1.0  0.23098  0.14443  0.40036  1.0000
  C   C123      1.0  0.06372  0.22954  0.42862  1.0000
  C   C124      1.0  0.47303  0.19306  0.51213  1.0000
  H   H202      1.0  0.20704  0.14371  0.49891  1.0000
  H   H203      1.0  0.07050  0.21103  0.49725  1.0000
  H   H204      1.0  0.22261  0.00594  0.46520  1.0000
  H   H205      1.0  0.37434  0.22207  0.47833  1.0000
  H   H206      1.0  0.21892  0.15453  0.38118  1.0000
  N   N10       1.0  0.38375  0.13995  0.39659  1.0000
  C   C125      1.0  0.38325  0.12772  0.38071  1.0000
  C   C126      1.0  0.37101  0.13253  0.41281  1.0000
  C   C127      1.0  0.40397  0.13861  0.40156  1.0000
  C   C128      1.0  0.37712  0.15973  0.39004  1.0000
  C   C129      1.0  0.39644  0.13228  0.36302  1.0000
  C   C130      1.0  0.34995  0.13278  0.40975  1.0000
  C   C131      1.0  0.40717  0.14018  0.42212  1.0000
  C   C132      1.0  0.37450  0.17413  0.40483  1.0000
  H   H207      1.0  0.38687  0.11273  0.38532  1.0000
  H   H208      1.0  0.36885  0.12862  0.37600  1.0000
  H   H209      1.0  0.37124  0.14050  0.42521  1.0000
  H   H210      1.0  0.37617  0.11784  0.41716  1.0000
  H   H211      1.0  0.41179  0.12495  0.39804  1.0000
  H   H212      1.0  0.41191  0.14933  0.39315  1.0000
  H   H213      1.0  0.38720  0.16524  0.37875  1.0000
  H   H214      1.0  0.36351  0.16021  0.38374  1.0000
  H   H215      1.0  0.39625  0.12132  0.35313  1.0000
  C   C133      1.0  0.06034  0.22129  0.49021  1.0000
  H   H216      1.0  0.36169  0.19612  0.49047  1.0000
  H   H217      1.0  0.34212  0.12813  0.42310  1.0000
  H   H218      1.0  0.34348  0.14701  0.40577  1.0000
  H   H219      1.0  0.34759  0.12288  0.39949  1.0000
  H   H220      1.0  0.40358  0.12738  0.43078  1.0000
  H   H221      1.0  0.39915  0.15251  0.42819  1.0000
  H   H222      1.0  0.42239  0.14145  0.42308  1.0000
  H   H223      1.0  0.36363  0.17071  0.41622  1.0000
  H   H224      1.0  0.36954  0.18803  0.39829  1.0000
  H   H225      1.0  0.38795  0.17580  0.41047  1.0000
  H   H226      1.0  0.17084  0.16639  0.50845  1.0000
  H   H227      1.0  0.07673  0.22249  0.43320  1.0000
  C   C134      1.0  0.16564  0.13192  0.52367  1.0000
  H   H228      1.0  0.06795  0.22652  0.47707  1.0000
  C   C135      1.0  0.41162  0.16305  0.49477  1.0000
  H   H229      1.0  0.38391  0.15920  0.52434  1.0000
  H   H230      1.0  0.21219  0.15726  0.53893  1.0000
  H   H231      1.0  0.05383  0.22442  0.35446  1.0000
  N   N11       1.0  0.18413  0.14044  0.52061  1.0000
  H   H232      1.0  0.40455  0.18045  0.52816  1.0000
  H   H233      1.0  0.35600  0.14807  0.51353  1.0000
  H   H234      1.0  0.20114  0.02222  0.57584  1.0000
  H   H235      1.0  0.46279  0.20070  0.35401  1.0000
  H   H236      1.0  0.03202  0.22349  0.34404  1.0000
  H   H237      1.0  0.43242  0.23049  0.38283  1.0000
  H   H238      1.0  0.21796  0.00177  0.44168  1.0000
  C   C136      1.0  0.05020  0.21915  0.42243  1.0000
  S   S40       1.0  0.03808  0.23111  0.64403  1.0000
  C   C137      1.0  0.34813  0.00849  0.32721  1.0000
  H   H239      1.0  0.27341  0.99757  0.54964  1.0000
  H   H240      1.0  0.17046  0.03208  0.61528  1.0000
  H   H241      1.0  0.14018  0.07395  0.65364  1.0000
  H   H242      1.0  0.06283  0.23455  0.38124  1.0000
  Fe  Fe20      1.0  0.01082  0.21818  0.64471  1.0000
  C   C138      1.0  0.03783  0.14464  0.65504  1.0000
  C   C139      1.0  0.08047  0.23473  0.55724  1.0000
  C   C140      1.0  0.24057  0.00928  0.53845  1.0000
  Fe  Fe21      1.0  0.24397  0.01834  0.65558  1.0000
  C   C141      1.0  0.49397  0.22176  0.49644  1.0000
  C   C142      1.0  0.20858  0.00939  0.56997  1.0000
  C   C143      1.0  0.46080  0.21437  0.34570  1.0000
  H   H243      1.0  0.36072  0.99839  0.32439  1.0000
  C   C144      1.0  0.16509  0.00950  0.63634  1.0000
  H   H244      1.0  0.27116  0.01910  0.44413  1.0000
  H   H245      1.0  0.36937  0.23147  0.50052  1.0000
  H   H246      1.0  0.48210  0.21936  0.39358  1.0000
  H   H247      1.0  0.24538  0.99921  0.42545  1.0000
  H   H248      1.0  0.22664  0.22083  0.48804  1.0000
  H   H249      1.0  0.41570  0.22332  0.34670  1.0000
  H   H250      1.0  0.20254  0.99696  0.57742  1.0000
  H   H251      1.0  0.06599  0.24176  0.50853  1.0000
  S   S41       1.0  0.20913  0.99533  0.35722  1.0000
  H   H252      1.0  0.21105  0.23205  0.46056  1.0000
  H   H253      1.0  0.09693  0.23928  0.53077  1.0000
  H   H254      1.0  0.07925  0.24208  0.36177  1.0000
  H   H255      1.0  0.23170  0.00110  0.58613  1.0000
  H   H256      1.0  0.48507  0.20644  0.37329  1.0000
  H   H257      1.0  0.17004  0.01760  0.64700  1.0000
  C   C145      1.0  0.13258  0.00870  0.65038  1.0000
  N   N12       1.0  0.15070  0.99672  0.64513  1.0000
  H   H258      1.0  0.46022  0.24268  0.38151  1.0000
  H   H259      1.0  0.24588  0.01860  0.44652  1.0000
  C   C146      1.0  0.06690  0.24247  0.57065  1.0000
  C   C147      1.0  0.46641  0.23275  0.37099  1.0000
  C   C148      1.0  0.41554  0.22828  0.36071  1.0000
  H   H260      1.0  0.02214  0.05938  0.32965  1.0000
  H   H261      1.0  0.33977  0.00228  0.33950  1.0000
  H   H262      1.0  0.47858  0.23936  0.36329  1.0000
  H   H263      1.0  0.23717  0.24040  0.47649  1.0000
  H   H264      1.0  0.01545  0.22862  0.46944  1.0000
  Fe  Fe22      1.0  0.13603  0.24268  0.47298  1.0000
  C   C149      1.0  0.48775  0.19853  0.52158  1.0000
  H   H265      1.0  0.03871  0.23482  0.46362  1.0000
  C   C150      1.0  0.20703  0.23992  0.47315  1.0000
  Fe  Fe23      1.0  0.21927  0.99598  0.38566  1.0000
  H   H266      1.0  0.41086  0.24346  0.36019  1.0000
  H   H267      1.0  0.27196  0.99500  0.40430  1.0000
  H   H268      1.0  0.99505  0.09139  0.32676  1.0000
  H   H269      1.0  0.22181  0.24271  0.49808  1.0000
  S   S42       1.0  0.21436  0.00921  0.65714  1.0000
  Fe  Fe24      1.0  0.12198  0.10898  0.89251  1.0000
  S   S43       1.0  0.09969  0.11687  0.91546  1.0000
  S   S44       1.0  0.15352  0.11308  0.89112  1.0000
  Fe  Fe25      1.0  0.09269  0.09946  0.86696  1.0000
  S   S45       1.0  0.06821  0.10662  0.88818  1.0000
  S   S46       1.0  0.09373  0.08503  0.83953  1.0000
  Fe  Fe26      1.0  0.08309  0.13184  0.89311  1.0000
  S   S47       1.0  0.06448  0.15917  0.89870  1.0000
  Fe  Fe27      1.0  0.08597  0.09140  0.90957  1.0000
  S   S48       1.0  0.07590  0.07289  0.93511  1.0000
  S   S49       1.0  0.10620  0.12578  0.87016  1.0000
  S   S50       1.0  0.10968  0.08237  0.88829  1.0000
  N   N13       1.0  0.07474  0.15191  0.69804  1.0000
  Fe  Fe28      1.0  0.35218  0.20502  0.97030  1.0000
  S   S51       1.0  0.34460  0.23247  0.95413  1.0000
  H   H270      1.0  0.48715  0.03950  0.77120  1.0000
  H   H271      1.0  0.40645  0.19742  0.86442  1.0000
  S   S52       1.0  0.34990  0.17631  0.95904  1.0000
  H   H272      1.0  0.34675  0.12134  0.70620  1.0000
  S   S53       1.0  0.38179  0.21204  0.97341  1.0000
  Fe  Fe29      1.0  0.34581  0.02521  0.78499  1.0000
  S   S54       1.0  0.34280  0.05085  0.76525  1.0000
  S   S55       1.0  0.32862  0.01839  0.81268  1.0000
  Fe  Fe30      1.0  0.37845  0.00660  0.76014  1.0000
  S   S56       1.0  0.37792  0.03087  0.73844  1.0000
  H   H273      1.0  0.15457  0.08391  0.92198  1.0000
  Fe  Fe31      1.0  0.37466  0.04922  0.76229  1.0000
  S   S57       1.0  0.39001  0.07514  0.76456  1.0000
  Fe  Fe32      1.0  0.34608  0.03096  0.74227  1.0000
  S   S58       1.0  0.33076  0.03887  0.71581  1.0000
  S   S59       1.0  0.37717  0.02512  0.78382  1.0000
  S   S60       1.0  0.34703  0.00516  0.76220  1.0000
  Fe  Fe33      1.0  0.25338  0.06994  0.93082  1.0000
  S   S61       1.0  0.27479  0.04523  0.92466  1.0000
  S   S62       1.0  0.22152  0.06781  0.93179  1.0000
  Fe  Fe34      1.0  0.28352  0.09353  0.94241  1.0000
  S   S63       1.0  0.30654  0.07038  0.93721  1.0000
  S   S64       1.0  0.28479  0.12193  0.95468  1.0000
  Fe  Fe35      1.0  0.29329  0.06686  0.91081  1.0000
  S   S65       1.0  0.31239  0.06790  0.88334  1.0000
  Fe  Fe36      1.0  0.28634  0.05037  0.95152  1.0000
  S   S66       1.0  0.29865  0.02790  0.97278  1.0000
  S   S67       1.0  0.27111  0.09125  0.91537  1.0000
  S   S68       1.0  0.26410  0.07381  0.95837  1.0000
  H   H274      1.0  0.34289  0.08192  0.67139  1.0000
  S   S69       1.0  0.47267  0.09474  0.73198  1.0000
  H   H275      1.0  0.18145  0.06662  0.93730  1.0000
  H   H276      1.0  0.01425  0.08839  0.96147  1.0000
  S   S70       1.0  0.26107  0.00951  0.68077  1.0000
  H   H277      1.0  0.34181  0.07130  0.73065  1.0000
  C   C151      1.0  0.11873  0.00074  0.66601  1.0000
  Fe  Fe37      1.0  0.05291  0.07765  0.73853  1.0000
  S   S71       1.0  0.07252  0.08496  0.71331  1.0000
  S   S72       1.0  0.05027  0.09310  0.76541  1.0000
  Fe  Fe38      1.0  0.03263  0.05057  0.71752  1.0000
  S   S73       1.0  0.05111  0.05623  0.69078  1.0000
  S   S74       1.0  0.00764  0.03219  0.72549  1.0000
  Fe  Fe39      1.0  0.07557  0.05436  0.70852  1.0000
  S   S75       1.0  0.10417  0.03708  0.70304  1.0000
  Fe  Fe40      1.0  0.04704  0.08683  0.69703  1.0000
  S   S76       1.0  0.04524  0.10990  0.67314  1.0000
  S   S77       1.0  0.05745  0.04677  0.73500  1.0000
  S   S78       1.0  0.02709  0.08144  0.72248  1.0000
  C   C152      1.0  0.04961  0.02540  0.78310  1.0000
  H   H278      1.0  0.05314  0.17367  0.70720  1.0000
  H   H279      1.0  0.37921  0.10368  0.72823  1.0000
  C   C153      1.0  0.42959  0.21547  0.98560  1.0000
  C   C154      1.0  0.15797  0.05113  0.66579  1.0000
  C   C155      1.0  0.04758  0.18585  0.98015  1.0000
  H   H280      1.0  0.36660  0.11202  0.69194  1.0000
  H   H281      1.0  0.01333  0.13219  0.91745  1.0000
  C   C156      1.0  0.12484  0.04356  0.68921  1.0000
  C   C157      1.0  0.12436  0.05866  0.67576  1.0000
  C   C158      1.0  0.44229  0.22526  0.92736  1.0000
  H   H282      1.0  0.42339  0.02014  0.74561  1.0000
  C   C159      1.0  0.23931  0.14973  0.96418  1.0000
  C   C160      1.0  0.03835  0.04249  0.79181  1.0000
  H   H283      1.0  0.41545  0.19613  0.92001  1.0000
  C   C161      1.0  0.03267  0.13255  0.67058  1.0000
  C   C162      1.0  0.01814  0.13898  0.68362  1.0000
  C   C163      1.0  0.40914  0.18284  0.91969  1.0000
  H   H284      1.0  0.02132  0.04265  0.75941  1.0000
  C   C164      1.0  0.09412  0.12523  0.67992  1.0000
  C   C165      1.0  0.02648  0.12358  0.91328  1.0000
  H   H285      1.0  0.44842  0.21117  0.93074  1.0000
  H   H286      1.0  0.05386  0.23259  0.94813  1.0000
  H   H287      1.0  0.32655  0.10828  0.97913  1.0000
  H   H288      1.0  0.05336  0.12380  0.92435  1.0000
  H   H289      1.0  0.06747  0.12606  0.96731  1.0000
  H   H290      1.0  0.04986  0.19224  0.67816  1.0000
  H   H291      1.0  0.33327  0.11340  0.73687  1.0000
  H   H292      1.0  0.21896  0.09332  0.96090  1.0000
  H   H293      1.0  0.03398  0.13191  0.90180  1.0000
  C   C166      1.0  0.31117  0.03058  0.70650  1.0000
  C   C167      1.0  0.30487  0.03939  0.68982  1.0000
  C   C168      1.0  0.28956  0.03330  0.68180  1.0000
  C   C169      1.0  0.28031  0.01820  0.69031  1.0000
  C   C170      1.0  0.28663  0.00941  0.70700  1.0000
  C   C171      1.0  0.30188  0.01554  0.71507  1.0000
  H   H294      1.0  0.31189  0.05100  0.68300  1.0000
  C   C172      1.0  0.04430  0.10993  0.96177  1.0000
  H   H295      1.0  0.14269  0.02088  0.70151  1.0000
  H   H296      1.0  0.30646  0.00859  0.72787  1.0000
  C   C173      1.0  0.41287  0.08064  0.75513  1.0000
  C   C174      1.0  0.42149  0.09439  0.76302  1.0000
  C   C175      1.0  0.43973  0.09902  0.75614  1.0000
  C   C176      1.0  0.44940  0.09020  0.74098  1.0000
  C   C177      1.0  0.44058  0.07679  0.73283  1.0000
  C   C178      1.0  0.42257  0.07182  0.73999  1.0000
  H   H297      1.0  0.41410  0.10139  0.77468  1.0000
  H   H298      1.0  0.44626  0.10943  0.76253  1.0000
  H   H299      1.0  0.44788  0.07000  0.72101  1.0000
  H   H300      1.0  0.41621  0.06121  0.73376  1.0000
  C   C179      1.0  0.32402  0.03247  0.83210  1.0000
  C   C180      1.0  0.33218  0.04921  0.83257  1.0000
  C   C181      1.0  0.32840  0.05978  0.84834  1.0000
  C   C182      1.0  0.31635  0.05389  0.86382  1.0000
  C   C183      1.0  0.30815  0.03716  0.86334  1.0000
  C   C184      1.0  0.31203  0.02651  0.84760  1.0000
  H   H301      1.0  0.34143  0.05401  0.82082  1.0000
  H   H302      1.0  0.33484  0.07267  0.84853  1.0000
  H   H303      1.0  0.29888  0.03241  0.87511  1.0000
  H   H304      1.0  0.30561  0.01361  0.84743  1.0000
  H   H305      1.0  0.24572  0.13568  0.96882  1.0000
  C   C185      1.0  0.40263  0.20340  0.87811  1.0000
  C   C186      1.0  0.36597  0.07644  0.70083  1.0000
  C   C187      1.0  0.22167  0.10799  0.96238  1.0000
  H   H306      1.0  0.35430  0.17549  0.89396  1.0000
  C   C188      1.0  0.33140  0.16160  0.95782  1.0000
  C   C189      1.0  0.31286  0.16601  0.96549  1.0000
  C   C190      1.0  0.29886  0.15380  0.96424  1.0000
  C   C191      1.0  0.30304  0.13706  0.95519  1.0000
  C   C192      1.0  0.32154  0.13272  0.94739  1.0000
  C   C193      1.0  0.33558  0.14482  0.94882  1.0000
  H   H307      1.0  0.08241  0.16923  0.71884  1.0000
  H   H308      1.0  0.32508  0.11994  0.94039  1.0000
  C   C194      1.0  0.34664  0.08554  0.72928  1.0000
  C   C195      1.0  0.05482  0.06170  0.94085  1.0000
  C   C196      1.0  0.05225  0.05168  0.95828  1.0000
  C   C197      1.0  0.03546  0.04325  0.96388  1.0000
  C   C198      1.0  0.02093  0.04486  0.95214  1.0000
  C   C199      1.0  0.02353  0.05481  0.93466  1.0000
  C   C200      1.0  0.04040  0.06310  0.92898  1.0000
  H   H309      1.0  0.06331  0.05045  0.96757  1.0000
  C   C201      1.0  0.08304  0.14480  0.67960  1.0000
  H   H310      1.0  0.01240  0.05610  0.92544  1.0000
  H   H311      1.0  0.04219  0.07061  0.91546  1.0000
  C   C202      1.0  0.08155  0.08781  0.81895  1.0000
  C   C203      1.0  0.06694  0.10196  0.81611  1.0000
  C   C204      1.0  0.05778  0.10347  0.79956  1.0000
  C   C205      1.0  0.06303  0.09090  0.78560  1.0000
  C   C206      1.0  0.07763  0.07674  0.78843  1.0000
  C   C207      1.0  0.08679  0.07524  0.80497  1.0000
  H   H312      1.0  0.06272  0.11175  0.82665  1.0000
  H   H313      1.0  0.04649  0.11445  0.79761  1.0000
  H   H314      1.0  0.08187  0.06694  0.77789  1.0000
  H   H315      1.0  0.09806  0.06423  0.80695  1.0000
  C   C208      1.0  0.07154  0.18059  0.90512  1.0000
  C   C209      1.0  0.05813  0.19634  0.90639  1.0000
  C   C210      1.0  0.06304  0.21352  0.91167  1.0000
  C   C211      1.0  0.08139  0.21509  0.91603  1.0000
  C   C212      1.0  0.09476  0.19933  0.91479  1.0000
  C   C213      1.0  0.08991  0.18222  0.90935  1.0000
  H   H316      1.0  0.04391  0.19531  0.90306  1.0000
  H   H317      1.0  0.05260  0.22550  0.91241  1.0000
  H   H318      1.0  0.10900  0.20033  0.91811  1.0000
  H   H319      1.0  0.10040  0.17028  0.90844  1.0000
  C   C214      1.0  0.17218  0.10011  0.90248  1.0000
  C   C215      1.0  0.19094  0.10343  0.89644  1.0000
  C   C216      1.0  0.20623  0.09355  0.90504  1.0000
  C   C217      1.0  0.20293  0.08032  0.91994  1.0000
  C   C218      1.0  0.18418  0.07690  0.92586  1.0000
  C   C219      1.0  0.16889  0.08670  0.91720  1.0000
  H   H320      1.0  0.19366  0.11367  0.88496  1.0000
  H   H321      1.0  0.22056  0.09609  0.90010  1.0000
  H   H322      1.0  0.42960  0.02469  0.80959  1.0000
  N   N14       1.0  0.37846  0.19962  0.90736  1.0000
  C   C220      1.0  0.35733  0.19912  0.91091  1.0000
  C   C221      1.0  0.38294  0.21875  0.91152  1.0000
  C   C222      1.0  0.01450  0.16948  0.66577  1.0000
  S   S79       1.0  0.08816  0.23587  0.92424  1.0000
  C   C223      1.0  0.01540  0.05308  0.76946  1.0000
  H   H323      1.0  0.99772  0.16203  0.69121  1.0000
  H   H324      1.0  0.34978  0.20976  0.90161  1.0000
  S   S80       1.0  0.00250  0.19239  0.66335  1.0000
  H   H325      1.0  0.02276  0.11101  0.90709  1.0000
  H   H326      1.0  0.10525  0.12335  0.68958  1.0000
  H   H327      1.0  0.12444  0.00017  0.67977  1.0000
  H   H328      1.0  0.03032  0.23892  0.98728  1.0000
  H   H329      1.0  0.44263  0.01243  0.72972  1.0000
  C   C224      1.0  0.42350  0.23071  0.93400  1.0000
  C   C225      1.0  0.07567  0.22126  0.97456  1.0000
  H   H330      1.0  0.11128  0.15471  0.72576  1.0000
  H   H331      1.0  0.99741  0.01977  0.82078  1.0000
  H   H332      1.0  0.02276  0.22015  0.94294  1.0000
  H   H333      1.0  0.00818  0.12190  0.96832  1.0000
  H   H334      1.0  0.43921  0.99971  0.75164  1.0000
  H   H335      1.0  0.02731  0.17161  0.94333  1.0000
  N   N15       1.0  0.15819  0.06866  0.84497  1.0000
  C   C226      1.0  0.13928  0.06429  0.83982  1.0000
  C   C227      1.0  0.15517  0.08750  0.85303  1.0000
  C   C228      1.0  0.16470  0.05369  0.85947  1.0000
  C   C229      1.0  0.17171  0.06858  0.82761  1.0000
  C   C230      1.0  0.13844  0.04458  0.83326  1.0000
  C   C231      1.0  0.14811  0.10413  0.83990  1.0000
  C   C232      1.0  0.17885  0.05877  0.87252  1.0000
  C   C233      1.0  0.19145  0.07478  0.82904  1.0000
  H   H336      1.0  0.12838  0.06596  0.85185  1.0000
  H   H337      1.0  0.13424  0.07425  0.82838  1.0000
  H   H338      1.0  0.16811  0.09145  0.85826  1.0000
  H   H339      1.0  0.14483  0.08697  0.86555  1.0000
  H   H340      1.0  0.15243  0.04932  0.86899  1.0000
  H   H341      1.0  0.17110  0.04084  0.85281  1.0000
  H   H342      1.0  0.17436  0.05424  0.82268  1.0000
  H   H343      1.0  0.16546  0.07692  0.81571  1.0000
  H   H344      1.0  0.12369  0.04325  0.83037  1.0000
  H   H345      1.0  0.14742  0.04230  0.82011  1.0000
  H   H346      1.0  0.14207  0.03333  0.84406  1.0000
  H   H347      1.0  0.13343  0.10322  0.83667  1.0000
  H   H348      1.0  0.14785  0.11722  0.84709  1.0000
  H   H349      1.0  0.15758  0.10568  0.82691  1.0000
  H   H350      1.0  0.17178  0.06854  0.88268  1.0000
  H   H351      1.0  0.19129  0.06482  0.86511  1.0000
  H   H352      1.0  0.18410  0.04594  0.88078  1.0000
  H   H353      1.0  0.20129  0.06281  0.83389  1.0000
  H   H354      1.0  0.19146  0.08646  0.83799  1.0000
  H   H355      1.0  0.19719  0.08029  0.81507  1.0000
  N   N16       1.0  0.44858  0.02968  0.77279  1.0000
  C   C234      1.0  0.45636  0.04784  0.77565  1.0000
  Fe  Fe41      1.0  0.37333  0.24004  0.95932  1.0000
  C   C235      1.0  0.45128  0.02674  0.75223  1.0000
  H   H356      1.0  0.30932  0.17878  0.97248  1.0000
  H   H357      1.0  0.05296  0.20818  0.95052  1.0000
  H   H358      1.0  0.28466  0.15737  0.97040  1.0000
  H   H359      1.0  0.07736  0.12440  0.71303  1.0000
  C   C236      1.0  0.01415  0.07795  0.80146  1.0000
  H   H360      1.0  0.44692  0.06001  0.77047  1.0000
  H   H361      1.0  0.41501  0.20015  0.88618  1.0000
  H   H362      1.0  0.00255  0.12839  0.94562  1.0000
  H   H363      1.0  0.04647  0.16007  0.69019  1.0000
  H   H364      1.0  0.44895  0.04029  0.74393  1.0000
  H   H365      1.0  0.08274  0.20032  0.95347  1.0000
  H   H366      1.0  0.35795  0.23875  0.90808  1.0000
  C   C237      1.0  0.45321  0.23784  0.91630  1.0000
  H   H367      1.0  0.27963  0.99774  0.71375  1.0000
  H   H368      1.0  0.10109  0.12290  0.66578  1.0000
  H   H369      1.0  0.07271  0.10124  0.96934  1.0000
  N   N17       1.0  0.03279  0.12236  0.94833  1.0000
  H   H370      1.0  0.41503  0.17554  0.90718  1.0000
  H   H371      1.0  0.01195  0.00094  0.80980  1.0000
  C   C238      1.0  0.47640  0.05051  0.76633  1.0000
  C   C239      1.0  0.42307  0.03580  0.80009  1.0000
  H   H372      1.0  0.08446  0.11410  0.68329  1.0000
  C   C240      1.0  0.37226  0.23542  0.90096  1.0000
  H   H373      1.0  0.02114  0.23927  0.95736  1.0000
  C   C241      1.0  0.37184  0.11552  0.72032  1.0000
  C   C242      1.0  0.38527  0.07352  0.70880  1.0000
  H   H374      1.0  0.36930  0.07971  0.68568  1.0000
  C   C243      1.0  0.02626  0.22422  0.95655  1.0000
  H   H375      1.0  0.39365  0.06135  0.70254  1.0000
  C   C244      1.0  0.03984  0.11764  0.92877  1.0000
  H   H376      1.0  0.03370  0.03566  0.97737  1.0000
  H   H377      1.0  0.23169  0.10704  0.97324  1.0000
  C   C245      1.0  0.00767  0.09881  0.95132  1.0000
  H   H378      1.0  0.25018  0.15739  0.95562  1.0000
  C   C246      1.0  0.00900  0.15726  0.68109  1.0000
  C   C247      1.0  0.02418  0.15773  0.93952  1.0000
  H   H379      1.0  0.37100  0.23289  0.88628  1.0000
  H   H380      1.0  0.10229  0.20757  0.96318  1.0000
  H   H381      1.0  0.41366  0.17373  0.93190  1.0000
  C   C248      1.0  0.99508  0.05944  0.76465  1.0000
  S   S81       1.0  0.47689  0.23015  0.90878  1.0000
  H   H382      1.0  0.05581  0.13019  0.70335  1.0000
  H   H383      1.0  0.17171  0.02774  0.68123  1.0000
  H   H384      1.0  0.20804  0.11521  0.96758  1.0000
  H   H385      1.0  0.00572  0.08637  0.81210  1.0000
  H   H386      1.0  0.17700  0.13340  0.93073  1.0000
  H   H387      1.0  0.02913  0.07759  0.80426  1.0000
  H   H388      1.0  0.37980  0.22075  0.92665  1.0000
  H   H389      1.0  0.00981  0.05230  0.81753  1.0000
  C   C249      1.0  0.08910  0.16104  0.70711  1.0000
  C   C250      1.0  0.06663  0.13627  0.71041  1.0000
  N   N18       1.0  0.01755  0.04512  0.78915  1.0000
  C   C251      1.0  0.38462  0.19517  0.88750  1.0000
  H   H390      1.0  0.38678  0.17974  0.88645  1.0000
  C   C252      1.0  0.35888  0.11029  0.70602  1.0000
  H   H391      1.0  0.36005  0.06264  0.70224  1.0000
  H   H392      1.0  0.37333  0.20020  0.87823  1.0000
  C   C253      1.0  0.00767  0.05812  0.80309  1.0000
  H   H393      1.0  0.28495  0.04022  0.66898  1.0000
  H   H394      1.0  0.34399  0.10684  0.67305  1.0000
  H   H395      1.0  0.44312  0.20741  0.98129  1.0000
  H   H396      1.0  0.42077  0.01927  0.77735  1.0000
  H   H397      1.0  0.11123  0.06727  0.67409  1.0000
  N   N19       1.0  0.35173  0.09120  0.70905  1.0000
  H   H398      1.0  0.04353  0.10230  0.92825  1.0000
  H   H399      1.0  0.10555  0.01040  0.66708  1.0000
  C   C254      1.0  0.33612  0.09466  0.67794  1.0000
  H   H400      1.0  0.35889  0.08425  0.73762  1.0000
  H   H401      1.0  0.40032  0.21878  0.87526  1.0000
  H   H402      1.0  0.33078  0.09484  0.75464  1.0000
  C   C255      1.0  0.46406  0.23832  0.98692  1.0000
  H   H403      1.0  0.06745  0.14721  0.73792  1.0000
  H   H404      1.0  0.01279  0.01004  0.69220  1.0000
  C   C256      1.0  0.33394  0.09146  0.69934  1.0000
  H   H405      1.0  0.32732  0.07811  0.70273  1.0000
  H   H406      1.0  0.46610  0.02121  0.74806  1.0000
  H   H407      1.0  0.35012  0.08390  0.97827  1.0000
  C   C257      1.0  0.46974  0.23356  0.96653  1.0000
  H   H408      1.0  0.04663  0.02431  0.76856  1.0000
  H   H409      1.0  0.36384  0.12504  0.73027  1.0000
  H   H410      1.0  0.23713  0.15932  0.92130  1.0000
  C   C258      1.0  0.14081  0.06239  0.66414  1.0000
  H   H411      1.0  0.05294  0.12862  0.73768  1.0000
  H   H412      1.0  0.01211  0.08542  0.78771  1.0000
  H   H413      1.0  0.24231  0.12024  0.90582  1.0000
  H   H414      1.0  0.21029  0.14480  0.96418  1.0000
  H   H415      1.0  0.32313  0.10265  0.70431  1.0000
  C   C259      1.0  0.23078  0.11622  0.94356  1.0000
  H   H416      1.0  0.02377  0.06522  0.76583  1.0000
  H   H417      1.0  0.23182  0.14211  0.89564  1.0000
  H   H418      1.0  0.23516  0.15752  0.97680  1.0000
  H   H419      1.0  0.41522  0.22083  0.94232  1.0000
  H   H420      1.0  0.04667  0.01220  0.79136  1.0000
  C   C260      1.0  0.33099  0.09842  0.73940  1.0000
  C   C261      1.0  0.04596  0.23863  0.98496  1.0000
  C   C262      1.0  0.34964  0.18045  0.90792  1.0000
  C   C263      1.0  0.34099  0.07389  0.97383  1.0000
  C   C264      1.0  0.45940  0.01418  0.78375  1.0000
  H   H421      1.0  0.33397  0.18254  0.90913  1.0000
  Fe  Fe42      1.0  0.33502  0.24385  0.98196  1.0000
  H   H422      1.0  0.21696  0.16341  0.94868  1.0000
  C   C265      1.0  0.06536  0.11297  0.96108  1.0000
  H   H423      1.0  0.38305  0.12363  0.71289  1.0000
  H   H424      1.0  0.38331  0.17110  0.91949  1.0000
  H   H425      1.0  0.16139  0.99711  0.67196  1.0000
  H   H426      1.0  0.31686  0.09615  0.73545  1.0000
  C   C266      1.0  0.05859  0.16661  0.69437  1.0000
  C   C267      1.0  0.06283  0.18239  0.67923  1.0000
  C   C268      1.0  0.14209  0.03250  0.69108  1.0000
  H   H427      1.0  0.07167  0.14390  0.67040  1.0000
  H   H428      1.0  0.22851  0.10693  0.93265  1.0000
  H   H429      1.0  0.47447  0.01269  0.77811  1.0000
  H   H430      1.0  0.34983  0.14111  0.94289  1.0000
  H   H431      1.0  0.20863  0.12982  0.91549  1.0000
  C   C269      1.0  0.08748  0.20416  0.96656  1.0000
  C   C270      1.0  0.22174  0.14879  0.95368  1.0000
  H   H432      1.0  0.25382  0.14143  0.92973  1.0000
  C   C271      1.0  0.15856  0.03630  0.67953  1.0000
  H   H433      1.0  0.09250  0.15478  0.67201  1.0000
  N   N20       1.0  0.22457  0.13634  0.93768  1.0000
  C   C272      1.0  0.23982  0.14386  0.92397  1.0000
  H   H434      1.0  0.01392  0.12987  0.69559  1.0000
  H   H435      1.0  0.20275  0.15269  0.92305  1.0000
  H   H436      1.0  0.19108  0.11524  0.94226  1.0000
  S   S82       1.0  0.49410  0.14487  0.73929  1.0000
  H   H437      1.0  0.45688  0.04962  0.79070  1.0000
  C   C273      1.0  0.20665  0.13789  0.92807  1.0000
  H   H438      1.0  0.01848  0.21593  0.96777  1.0000
  C   C274      1.0  0.04784  0.22117  0.95742  1.0000
  H   H439      1.0  0.42277  0.22203  0.97334  1.0000
  C   C275      1.0  0.24265  0.13560  0.90477  1.0000
  C   C276      1.0  0.18915  0.13064  0.93934  1.0000
  H   H440      1.0  0.24627  0.11443  0.94477  1.0000
  H   H441      1.0  0.25663  0.13867  0.89772  1.0000
  H   H442      1.0  0.18504  0.13778  0.95230  1.0000
  H   H443      1.0  0.35045  0.06334  0.96611  1.0000
  H   H444      1.0  0.08787  0.19198  0.97697  1.0000
  C   C277      1.0  0.45284  0.99440  0.78434  1.0000
  H   H445      1.0  0.39820  0.22041  0.90862  1.0000
  H   H446      1.0  0.03824  0.11143  0.97642  1.0000
  H   H447      1.0  0.07405  0.19065  0.68264  1.0000
  H   H448      1.0  0.35336  0.16935  0.91879  1.0000
  H   H449      1.0  0.03553  0.18690  0.97152  1.0000
  H   H450      1.0  0.04399  0.09493  0.95937  1.0000
  H   H451      1.0  0.03198  0.14521  0.96606  1.0000
  H   H452      1.0  0.04538  0.05498  0.78581  1.0000
  C   C278      1.0  0.04871  0.20431  0.98925  1.0000
  H   H453      1.0  0.38412  0.07018  0.72401  1.0000
  C   C279      1.0  0.03544  0.14240  0.95114  1.0000
  C   C280      1.0  0.43830  0.01394  0.74472  1.0000
  C   C281      1.0  0.05743  0.14150  0.72970  1.0000
  H   H454      1.0  0.38236  0.18853  0.93556  1.0000
  H   H455      1.0  0.40757  0.03626  0.80352  1.0000
  H   H456      1.0  0.46013  0.01767  0.79834  1.0000
  H   H457      1.0  0.02875  0.15736  0.92446  1.0000
  H   H458      1.0  0.33132  0.08100  0.96390  1.0000
  H   H459      1.0  0.35233  0.20275  0.92538  1.0000
  H   H460      1.0  0.42036  0.04328  0.77101  1.0000
  H   H461      1.0  0.07233  0.11290  0.94677  1.0000
  C   C282      1.0  0.38744  0.18527  0.92101  1.0000
  H   H462      1.0  0.05045  0.14512  0.94753  1.0000
  Fe  Fe43      1.0  0.49413  0.11332  0.74034  1.0000
  H   H463      1.0  0.39347  0.08572  0.70504  1.0000
  H   H464      1.0  0.04086  0.04154  0.80679  1.0000
  N   N21       1.0  0.05452  0.22083  0.97655  1.0000
  H   H465      1.0  0.11771  0.14669  0.70285  1.0000
  H   H466      1.0  0.04451  0.15133  0.72869  1.0000
  C   C283      1.0  0.01031  0.01626  0.81134  1.0000
  H   H467      1.0  0.32187  0.09741  0.67287  1.0000
  H   H468      1.0  0.09539  0.17183  0.69723  1.0000
  C   C284      1.0  0.42785  0.03176  0.77946  1.0000
  H   H469      1.0  0.06061  0.18120  0.97155  1.0000
  H   H470      1.0  0.06644  0.17705  0.66525  1.0000
  H   H471      1.0  0.42695  0.04971  0.80294  1.0000
  H   H472      1.0  0.01176  0.09448  0.93704  1.0000
  H   H473      1.0  0.10250  0.13436  0.72005  1.0000
  H   H474      1.0  0.32471  0.05185  0.98510  1.0000
  C   C285      1.0  0.99589  0.01347  0.71819  1.0000
  H   H475      1.0  0.02267  0.01922  0.81822  1.0000
  H   H476      1.0  0.29440  0.06658  0.98503  1.0000
  H   H477      1.0  0.07964  0.23389  0.96567  1.0000
  C   C286      1.0  0.10603  0.14830  0.71409  1.0000
  H   H478      1.0  0.46054  0.22412  0.96143  1.0000
  C   C287      1.0  0.00881  0.02687  0.79202  1.0000
  C   C288      1.0  0.01244  0.11885  0.95356  1.0000
  H   H479      1.0  0.49271  0.17276  0.82604  1.0000
  H   H480      1.0  0.30195  0.08841  0.97698  1.0000
  H   H481      1.0  0.06495  0.02671  0.78301  1.0000
  H   H482      1.0  0.48432  0.22647  0.96534  1.0000
  H   H483      1.0  0.01438  0.01724  0.78102  1.0000
  H   H484      1.0  0.00873  0.15736  0.94216  1.0000
  H   H485      1.0  0.48048  0.06411  0.77001  1.0000
  H   H486      1.0  0.47696  0.05141  0.75092  1.0000
  S   S83       1.0  0.99898  0.03556  0.95899  1.0000
  C   C289      1.0  0.00112  0.00519  0.70134  1.0000
  H   H487      1.0  0.08109  0.22242  0.98821  1.0000
  C   C290      1.0  0.29829  0.07974  0.98997  1.0000
  H   H488      1.0  0.25990  0.02405  0.99006  1.0000
  H   H489      1.0  0.99564  0.06505  0.74987  1.0000
  H   H490      1.0  0.27308  0.09956  0.99029  1.0000
  S   S84       1.0  0.02534  0.37859  0.25075  1.0000
  C   C291      1.0  0.18484  0.47929  0.28634  1.0000
  Fe  Fe44      1.0  0.21632  0.38179  0.00146  1.0000
  S   S85       1.0  0.20945  0.39523  0.02941  1.0000
  Fe  Fe45      1.0  0.46199  0.28121  0.13085  1.0000
  S   S86       1.0  0.46941  0.30854  0.14158  1.0000
  C   C292      1.0  0.17933  0.45905  0.28647  1.0000
  H   H491      1.0  0.15316  0.48543  0.20213  1.0000
  C   C293      1.0  0.33860  0.25450  0.03369  1.0000
  S   S87       1.0  0.43440  0.26874  0.13165  1.0000
  S   S88       1.0  0.47053  0.27459  0.10101  1.0000
  Fe  Fe46      1.0  0.25596  0.45251  0.10372  1.0000
  S   S89       1.0  0.23658  0.47923  0.10525  1.0000
  S   S90       1.0  0.26176  0.43234  0.08033  1.0000
  Fe  Fe47      1.0  0.27506  0.45982  0.13870  1.0000
  S   S91       1.0  0.29620  0.44566  0.15868  1.0000
  Fe  Fe48      1.0  0.23264  0.47164  0.13635  1.0000
  S   S92       1.0  0.20261  0.47829  0.15016  1.0000
  S   S93       1.0  0.25038  0.44391  0.13430  1.0000
  S   S94       1.0  0.28166  0.46671  0.10816  1.0000
  Fe  Fe49      1.0  0.41274  0.42681  0.23252  1.0000
  S   S95       1.0  0.44085  0.41273  0.22178  1.0000
  S   S96       1.0  0.40504  0.43352  0.26290  1.0000
  Fe  Fe50      1.0  0.40179  0.43942  0.19274  1.0000
  S   S97       1.0  0.42987  0.42689  0.17975  1.0000
  S   S98       1.0  0.38125  0.45654  0.17381  1.0000
  Fe  Fe51      1.0  0.42523  0.40178  0.19981  1.0000
  S   S99       1.0  0.42433  0.37152  0.19164  1.0000
  Fe  Fe52      1.0  0.44323  0.43904  0.20266  1.0000
  S   S100      1.0  0.47103  0.45345  0.19877  1.0000
  S   S101      1.0  0.39665  0.41422  0.21220  1.0000
  S   S102      1.0  0.41564  0.45327  0.21393  1.0000
  Fe  Fe53      1.0  0.13881  0.46929  0.24985  1.0000
  S   S103      1.0  0.13623  0.48248  0.27728  1.0000
  S   S104      1.0  0.16839  0.46409  0.23463  1.0000
  Fe  Fe54      1.0  0.09819  0.45728  0.25676  1.0000
  S   S105      1.0  0.09352  0.46875  0.28504  1.0000
  S   S106      1.0  0.07544  0.44794  0.24041  1.0000
  H   H492      1.0  0.22027  0.43390  0.30059  1.0000
  Fe  Fe55      1.0  0.12338  0.45668  0.28953  1.0000
  C   C294      1.0  0.33240  0.27981  0.05618  1.0000
  S   S107      1.0  0.11052  0.48287  0.24225  1.0000
  S   S108      1.0  0.12674  0.44299  0.26228  1.0000
  C   C295      1.0  0.45056  0.27498  0.18452  1.0000
  H   H493      1.0  0.46071  0.45691  0.23888  1.0000
  H   H494      1.0  0.40810  0.26725  0.20907  1.0000
  C   C296      1.0  0.19362  0.47461  0.17385  1.0000
  C   C297      1.0  0.20414  0.46420  0.18707  1.0000
  C   C298      1.0  0.19618  0.46120  0.20557  1.0000
  C   C299      1.0  0.17767  0.46862  0.21114  1.0000
  C   C300      1.0  0.16724  0.47929  0.19799  1.0000
  C   C301      1.0  0.47254  0.49105  0.15629  1.0000
  H   H495      1.0  0.21835  0.45830  0.18300  1.0000
  H   H496      1.0  0.20441  0.45297  0.21560  1.0000
  C   C302      1.0  0.40228  0.41475  0.31764  1.0000
  H   H497      1.0  0.32275  0.30074  0.02428  1.0000
  C   C303      1.0  0.31989  0.44902  0.16253  1.0000
  C   C304      1.0  0.32926  0.43670  0.17550  1.0000
  C   C305      1.0  0.34801  0.43864  0.17902  1.0000
  C   C306      1.0  0.35770  0.45303  0.16963  1.0000
  C   C307      1.0  0.34838  0.46525  0.15651  1.0000
  C   C308      1.0  0.32965  0.46326  0.15294  1.0000
  H   H498      1.0  0.32193  0.42560  0.18300  1.0000
  H   H499      1.0  0.35490  0.42911  0.18914  1.0000
  H   H500      1.0  0.35565  0.47646  0.14916  1.0000
  H   H501      1.0  0.32271  0.47289  0.14294  1.0000
  C   C309      1.0  0.45625  0.32645  0.15462  1.0000
  C   C310      1.0  0.43716  0.32585  0.16089  1.0000
  C   C311      1.0  0.42767  0.33985  0.17197  1.0000
  C   C312      1.0  0.43690  0.35495  0.17660  1.0000
  C   C313      1.0  0.45587  0.35581  0.16990  1.0000
  C   C314      1.0  0.46547  0.34160  0.15912  1.0000
  H   H502      1.0  0.42972  0.31457  0.15729  1.0000
  H   H503      1.0  0.41300  0.33903  0.17697  1.0000
  H   H504      1.0  0.46324  0.36722  0.17334  1.0000
  H   H505      1.0  0.48019  0.34234  0.15432  1.0000
  H   H506      1.0  0.19759  0.41371  0.29628  1.0000
  C   C315      1.0  0.99886  0.30850  0.02061  1.0000
  H   H507      1.0  0.45799  0.46624  0.16329  1.0000
  H   H508      1.0  0.41787  0.25437  0.18991  1.0000
  S   S109      1.0  0.42616  0.26763  0.07751  1.0000
  C   C316      1.0  0.22424  0.40614  0.04287  1.0000
  C   C317      1.0  0.24387  0.40494  0.03905  1.0000
  C   C318      1.0  0.25503  0.41314  0.05058  1.0000
  C   C319      1.0  0.24677  0.42289  0.06593  1.0000
  C   C320      1.0  0.22711  0.42428  0.06961  1.0000
  C   C321      1.0  0.21597  0.41587  0.05823  1.0000
  H   H509      1.0  0.25049  0.39752  0.02734  1.0000
  H   H510      1.0  0.27019  0.41194  0.04755  1.0000
  H   H511      1.0  0.22050  0.43165  0.08135  1.0000
  H   H512      1.0  0.20082  0.41691  0.06136  1.0000
  C   C322      1.0  0.06103  0.42904  0.24448  1.0000
  C   C323      1.0  0.06527  0.41359  0.25686  1.0000
  C   C324      1.0  0.05408  0.39842  0.25870  1.0000
  C   C325      1.0  0.03833  0.39858  0.24845  1.0000
  C   C326      1.0  0.03393  0.41417  0.23627  1.0000
  C   C327      1.0  0.04532  0.42920  0.23418  1.0000
  H   H513      1.0  0.07733  0.41317  0.26480  1.0000
  H   H514      1.0  0.05767  0.38642  0.26811  1.0000
  H   H515      1.0  0.02197  0.41448  0.22821  1.0000
  H   H516      1.0  0.04196  0.44102  0.22449  1.0000
  H   H517      1.0  0.17154  0.45840  0.27407  1.0000
  H   H518      1.0  0.00087  0.34608  0.14775  1.0000
  H   H519      1.0  0.45964  0.25107  0.21493  1.0000
  S   S110      1.0  0.47733  0.25446  0.14226  1.0000
  H   H520      1.0  0.13914  0.38915  0.02385  1.0000
  S   S111      1.0  0.13521  0.43821  0.31400  1.0000
  C   C328      1.0  0.47610  0.43203  0.24969  1.0000
  H   H521      1.0  0.42978  0.24818  0.23671  1.0000
  C   C329      1.0  0.19241  0.34916  0.04768  1.0000
  C   C330      1.0  0.20491  0.44069  0.26800  1.0000
  H   H522      1.0  0.14993  0.42957  0.22875  1.0000
  C   C331      1.0  0.40569  0.38747  0.29989  1.0000
  C   C332      1.0  0.40655  0.39890  0.28312  1.0000
  C   C333      1.0  0.40492  0.41836  0.28353  1.0000
  C   C334      1.0  0.40277  0.42621  0.30088  1.0000
  H   H523      1.0  0.34304  0.44160  0.30275  1.0000
  H   H524      1.0  0.19472  0.43817  0.25805  1.0000
  H   H525      1.0  0.40820  0.39266  0.26990  1.0000
  H   H526      1.0  0.40150  0.44125  0.30136  1.0000
  H   H527      1.0  0.17435  0.37459  0.04298  1.0000
  C   C335      1.0  0.35322  0.27635  0.06075  1.0000
  H   H528      1.0  0.47864  0.28224  0.17439  1.0000
  N   N22       1.0  0.12135  0.44346  0.19235  1.0000
  C   C336      1.0  0.10496  0.45851  0.19197  1.0000
  C   C337      1.0  0.11381  0.42505  0.19018  1.0000
  C   C338      1.0  0.13571  0.44795  0.17622  1.0000
  C   C339      1.0  0.12955  0.44353  0.21072  1.0000
  H   H529      1.0  0.30333  0.26060  0.05224  1.0000
  C   C340      1.0  0.09804  0.41918  0.20498  1.0000
  C   C341      1.0  0.14837  0.43142  0.16782  1.0000
  C   C342      1.0  0.14602  0.42864  0.21444  1.0000
  H   H530      1.0  0.09646  0.45705  0.18018  1.0000
  H   H531      1.0  0.09510  0.45715  0.20480  1.0000
  H   H532      1.0  0.12512  0.41329  0.19027  1.0000
  H   H533      1.0  0.10815  0.42535  0.17636  1.0000
  H   H534      1.0  0.12860  0.45507  0.16418  1.0000
  H   H535      1.0  0.14515  0.45803  0.18008  1.0000
  H   H536      1.0  0.13495  0.45716  0.21218  1.0000
  H   H537      1.0  0.11840  0.44201  0.22244  1.0000
  C   C343      1.0  0.40585  0.26247  0.04826  1.0000
  S   S112      1.0  0.25681  0.48688  0.14278  1.0000
  H   H538      1.0  0.35577  0.30064  0.02888  1.0000
  H   H539      1.0  0.09428  0.40516  0.20223  1.0000
  H   H540      1.0  0.10253  0.41790  0.21927  1.0000
  H   H541      1.0  0.08491  0.42879  0.20439  1.0000
  H   H542      1.0  0.15506  0.42156  0.17825  1.0000
  H   H543      1.0  0.15993  0.43704  0.15825  1.0000
  H   H544      1.0  0.14024  0.42353  0.15939  1.0000
  H   H545      1.0  0.01990  0.31100  0.99700  1.0000
  H   H546      1.0  0.48837  0.31414  0.09436  1.0000
  H   H547      1.0  0.15879  0.43129  0.20502  1.0000
  H   H548      1.0  0.45235  0.26177  0.03467  1.0000
  H   H549      1.0  0.17855  0.33217  0.01489  1.0000
  H   H550      1.0  0.18747  0.36595  0.02287  1.0000
  H   H551      1.0  0.26981  0.27939  0.99787  1.0000
  H   H552      1.0  0.32410  0.27287  0.06815  1.0000
  H   H553      1.0  0.34780  0.39843  0.30896  1.0000
  H   H554      1.0  0.00785  0.29598  0.23802  1.0000
  N   N23       1.0  0.43798  0.26943  0.20162  1.0000
  C   C344      1.0  0.45625  0.42990  0.29198  1.0000
  H   H555      1.0  0.14229  0.41422  0.21373  1.0000
  N   N24       1.0  0.45852  0.45904  0.26860  1.0000
  H   H556      1.0  0.21708  0.45819  0.29621  1.0000
  C   C345      1.0  0.44334  0.25870  0.00736  1.0000
  H   H557      1.0  0.48638  0.44991  0.27780  1.0000
  H   H558      1.0  0.32709  0.28237  0.00905  1.0000
  C   C346      1.0  0.44803  0.44962  0.28529  1.0000
  C   C347      1.0  0.29304  0.28782  0.04137  1.0000
  H   H559      1.0  0.16859  0.45728  0.29855  1.0000
  H   H560      1.0  0.47086  0.42954  0.29585  1.0000
  C   C348      1.0  0.47765  0.46287  0.27362  1.0000
  C   C349      1.0  0.45257  0.25047  0.02505  1.0000
  C   C350      1.0  0.30705  0.27009  0.03980  1.0000
  H   H561      1.0  0.47215  0.28744  0.19794  1.0000
  C   C351      1.0  0.21526  0.45709  0.25847  1.0000
  C   C352      1.0  0.45954  0.44761  0.25188  1.0000
  C   C353      1.0  0.17515  0.48216  0.17944  1.0000
  H   H562      1.0  0.32801  0.29507  0.05665  1.0000
  H   H563      1.0  0.21534  0.42806  0.26839  1.0000
  H   H564      1.0  0.40670  0.37243  0.29942  1.0000
  Fe  Fe56      1.0  0.44381  0.26013  0.10249  1.0000
  H   H565      1.0  0.16540  0.40710  0.28875  1.0000
  Fe  Fe57      1.0  0.10685  0.49374  0.27071  1.0000
  H   H566      1.0  0.36214  0.28035  0.01531  1.0000
  H   H567      1.0  0.18883  0.45899  0.32200  1.0000
  H   H568      1.0  0.17827  0.48806  0.27490  1.0000
  H   H569      1.0  0.18544  0.34286  0.06062  1.0000
  H   H570      1.0  0.22619  0.46123  0.26666  1.0000
  C   C354      1.0  0.44772  0.47783  0.26433  1.0000
  C   C355      1.0  0.34904  0.41231  0.31416  1.0000
  H   H571      1.0  0.27864  0.28360  0.04556  1.0000
  H   H572      1.0  0.43829  0.30842  0.19766  1.0000
  H   H573      1.0  0.47608  0.47107  0.28618  1.0000
  N   N25       1.0  0.32780  0.27298  0.03814  1.0000
  H   H574      1.0  0.41062  0.29742  0.18656  1.0000
  H   H575      1.0  0.41766  0.47392  0.27246  1.0000
  C   C356      1.0  0.42159  0.47655  0.15610  1.0000
  H   H576      1.0  0.40754  0.48472  0.15526  1.0000
  H   H577      1.0  0.20296  0.35794  0.05177  1.0000
  H   H578      1.0  0.45108  0.28096  0.22347  1.0000
  Fe  Fe58      1.0  0.99629  0.37396  0.24223  1.0000
  H   H579      1.0  0.35122  0.42515  0.28594  1.0000
  H   H580      1.0  0.18095  0.41234  0.26858  1.0000
  H   H581      1.0  0.20050  0.33805  0.03955  1.0000
  H   H582      1.0  0.44745  0.48694  0.27609  1.0000
  C   C357      1.0  0.33139  0.28724  0.02204  1.0000
  H   H583      1.0  0.35538  0.26376  0.07051  1.0000
  H   H584      1.0  0.43343  0.44779  0.28241  1.0000
  C   C358      1.0  0.44602  0.25031  0.20901  1.0000
  N   N26       1.0  0.44371  0.24561  0.99204  1.0000
  H   H585      1.0  0.44617  0.44103  0.25164  1.0000
  H   H586      1.0  0.30354  0.26293  0.02775  1.0000
  H   H587      1.0  0.11817  0.48203  0.20167  1.0000
  H   H588      1.0  0.42701  0.27884  0.22855  1.0000
  H   H589      1.0  0.14754  0.39115  0.99984  1.0000
  H   H590      1.0  0.06684  0.24721  0.00212  1.0000
  C   C359      1.0  0.41832  0.26778  0.19643  1.0000
  C   C360      1.0  0.43755  0.28259  0.21686  1.0000
  H   H591      1.0  0.44516  0.28834  0.17740  1.0000
  C   C361      1.0  0.47119  0.27705  0.18771  1.0000
  C   C362      1.0  0.15085  0.32247  0.02074  1.0000
  C   C363      1.0  0.11002  0.47896  0.19031  1.0000
  H   H592      1.0  0.35247  0.30186  0.00477  1.0000
  C   C364      1.0  0.00523  0.28658  0.99628  1.0000
  H   H593      1.0  0.45071  0.26457  0.17395  1.0000
  C   C365      1.0  0.39686  0.25206  0.03666  1.0000
  H   H594      1.0  0.48599  0.48247  0.15241  1.0000
  H   H595      1.0  0.42864  0.26374  0.01233  1.0000
  H   H596      1.0  0.00618  0.33334  0.11780  1.0000
  H   H597      1.0  0.17790  0.42688  0.30745  1.0000
  H   H598      1.0  0.32744  0.42547  0.29627  1.0000
  C   C366      1.0  0.42501  0.46463  0.13913  1.0000
  H   H599      1.0  0.41207  0.45767  0.13799  1.0000
  C   C367      1.0  0.00907  0.30282  0.00393  1.0000
  H   H600      1.0  0.41973  0.46625  0.16831  1.0000
  H   H601      1.0  0.44751  0.42509  0.30469  1.0000
  H   H602      1.0  0.47100  0.41985  0.24401  1.0000
  Fe  Fe59      1.0  0.48382  0.24709  0.11252  1.0000
  C   C368      1.0  0.47967  0.47433  0.20530  1.0000
  H   H603      1.0  0.43964  0.31186  0.22105  1.0000
  C   C369      1.0  0.41489  0.25371  0.06355  1.0000
  S   S113      1.0  0.22066  0.35056  0.99857  1.0000
  H   H604      1.0  0.33509  0.25044  0.02003  1.0000
  H   H605      1.0  0.47889  0.26344  0.19192  1.0000
  C   C370      1.0  0.42712  0.47751  0.25986  1.0000
  C   C371      1.0  0.20916  0.44596  0.30049  1.0000
  H   H606      1.0  0.15646  0.30778  0.01846  1.0000
  H   H607      1.0  0.45531  0.41967  0.28155  1.0000
  H   H608      1.0  0.43654  0.45325  0.14102  1.0000
  H   H609      1.0  0.03424  0.27517  0.31766  1.0000
  C   C372      1.0  0.40999  0.28307  0.18256  1.0000
  C   C373      1.0  0.43274  0.30365  0.21181  1.0000
  H   H610      1.0  0.29645  0.29691  0.05192  1.0000
  H   H611      1.0  0.11782  0.48276  0.17675  1.0000
  C   C374      1.0  0.40344  0.39530  0.31724  1.0000
  H   H612      1.0  0.44662  0.45850  0.29733  1.0000
  Fe  Fe60      1.0  0.26178  0.49273  0.11170  1.0000
  N   N27       1.0  0.19496  0.44331  0.28712  1.0000
  H   H613      1.0  0.04983  0.25637  0.30871  1.0000
  H   H614      1.0  0.17892  0.48561  0.29943  1.0000
  C   C375      1.0  0.17306  0.41840  0.28101  1.0000
  N   N28       1.0  0.32117  0.41485  0.11386  1.0000
  C   C376      1.0  0.32783  0.43420  0.11242  1.0000
  C   C377      1.0  0.32424  0.40610  0.13312  1.0000
  C   C378      1.0  0.30026  0.41744  0.11176  1.0000
  C   C379      1.0  0.33180  0.40381  0.09863  1.0000
  C   C380      1.0  0.32797  0.44499  0.09304  1.0000
  C   C381      1.0  0.34480  0.40386  0.13829  1.0000
  C   C382      1.0  0.28998  0.39967  0.11257  1.0000
  C   C383      1.0  0.33279  0.38220  0.10152  1.0000
  H   H615      1.0  0.31920  0.44317  0.12256  1.0000
  H   H616      1.0  0.34257  0.43373  0.11609  1.0000
  H   H617      1.0  0.31900  0.39215  0.13561  1.0000
  H   H618      1.0  0.31573  0.41442  0.14381  1.0000
  H   H619      1.0  0.29277  0.42630  0.12267  1.0000
  H   H620      1.0  0.29730  0.42500  0.09825  1.0000
  H   H621      1.0  0.32581  0.40810  0.08512  1.0000
  H   H622      1.0  0.34674  0.40720  0.09668  1.0000
  H   H623      1.0  0.33223  0.45920  0.09423  1.0000
  H   H624      1.0  0.33841  0.43817  0.08271  1.0000
  H   H625      1.0  0.31400  0.44704  0.08749  1.0000
  H   H626      1.0  0.35499  0.39832  0.12706  1.0000
  H   H627      1.0  0.34903  0.41729  0.14221  1.0000
  H   H628      1.0  0.34592  0.39394  0.15081  1.0000
  H   H629      1.0  0.29448  0.39158  0.10025  1.0000
  H   H630      1.0  0.27465  0.40395  0.11196  1.0000
  H   H631      1.0  0.29131  0.39083  0.12570  1.0000
  H   H632      1.0  0.33192  0.37644  0.08790  1.0000
  H   H633      1.0  0.32146  0.37659  0.11115  1.0000
  H   H634      1.0  0.34671  0.37635  0.10608  1.0000
  C   C384      1.0  0.20101  0.44817  0.32085  1.0000
  H   H635      1.0  0.36379  0.27526  0.04863  1.0000
  H   H636      1.0  0.22267  0.45270  0.24508  1.0000
  N   N29       1.0  0.16158  0.35305  0.03066  1.0000
  C   C385      1.0  0.15522  0.36366  0.01314  1.0000
  C   C386      1.0  0.16690  0.33296  0.02629  1.0000
  C   C387      1.0  0.17863  0.36156  0.03571  1.0000
  C   C388      1.0  0.14554  0.35512  0.04572  1.0000
  H   H637      1.0  0.14205  0.35876  0.00920  1.0000
  H   H638      1.0  0.16384  0.39179  0.01670  1.0000
  H   H639      1.0  0.48730  0.43667  0.23907  1.0000
  C   C389      1.0  0.14810  0.34393  0.06452  1.0000
  C   C390      1.0  0.35173  0.29255  0.01779  1.0000
  H   H640      1.0  0.13899  0.32200  0.03181  1.0000
  H   H641      1.0  0.17285  0.32435  0.03806  1.0000
  H   H642      1.0  0.35661  0.28819  0.06831  1.0000
  H   H643      1.0  0.29226  0.29590  0.02767  1.0000
  H   H644      1.0  0.42172  0.49172  0.25441  1.0000
  H   H645      1.0  0.14270  0.36998  0.04914  1.0000
  H   H646      1.0  0.13199  0.35204  0.04085  1.0000
  C   C391      1.0  0.18638  0.42538  0.29383  1.0000
  H   H647      1.0  0.16223  0.42955  0.27669  1.0000
  H   H648      1.0  0.39019  0.25898  0.02488  1.0000
  H   H649      1.0  0.36447  0.41283  0.31441  1.0000
  H   H650      1.0  0.39489  0.28121  0.18177  1.0000
  H   H651      1.0  0.40588  0.27743  0.04534  1.0000
  H   H652      1.0  0.20005  0.48095  0.28419  1.0000
  H   H653      1.0  0.41729  0.30763  0.21375  1.0000
  H   H654      1.0  0.00300  0.29128  0.30396  1.0000
  H   H655      1.0  0.15532  0.35189  0.07370  1.0000
  H   H656      1.0  0.15569  0.32988  0.06324  1.0000
  H   H657      1.0  0.13399  0.34128  0.07152  1.0000
  H   H658      1.0  0.00201  0.32107  0.02636  1.0000
  H   H659      1.0  0.45035  0.27145  0.00209  1.0000
  H   H660      1.0  0.04290  0.25397  0.00984  1.0000
  H   H661      1.0  0.41704  0.28165  0.16832  1.0000
  H   H662      1.0  0.45296  0.48734  0.21654  1.0000
  H   H663      1.0  0.45478  0.48545  0.25207  1.0000
  H   H664      1.0  0.42588  0.46786  0.24902  1.0000
  H   H665      1.0  0.48233  0.42657  0.26261  1.0000
  H   H666      1.0  0.35404  0.25523  0.03188  1.0000
  H   H667      1.0  0.09674  0.48847  0.19131  1.0000
  H   H668      1.0  0.20516  0.46927  0.25478  1.0000
  H   H669      1.0  0.00365  0.34181  0.08680  1.0000
  C   C392      1.0  0.15128  0.38512  0.01376  1.0000
  C   C393      1.0  0.34208  0.42712  0.29913  1.0000
  H   H670      1.0  0.43899  0.47951  0.18783  1.0000
  H   H671      1.0  0.14560  0.32838  0.00740  1.0000
  C   C394      1.0  0.46787  0.48873  0.21359  1.0000
  H   H672      1.0  0.49004  0.46808  0.24451  1.0000
  H   H673      1.0  0.00501  0.37032  0.10341  1.0000
  H   H674      1.0  0.00335  0.37520  0.07914  1.0000
  H   H675      1.0  0.48470  0.48882  0.25722  1.0000
  C   C395      1.0  0.48971  0.47369  0.25833  1.0000
  H   H676      1.0  0.42797  0.47293  0.12586  1.0000
  H   H677      1.0  0.45798  0.47504  0.14000  1.0000
  C   C396      1.0  0.45594  0.47953  0.15438  1.0000
  C   C397      1.0  0.04088  0.26088  0.32129  1.0000
  H   H678      1.0  0.40416  0.49029  0.18698  1.0000
  H   H679      1.0  0.99835  0.30418  0.10725  1.0000
  H   H680      1.0  0.46750  0.24488  0.02211  1.0000
  H   H681      1.0  0.99796  0.31266  0.08295  1.0000
  N   N30       1.0  0.43646  0.48916  0.15899  1.0000
  C   C398      1.0  0.43474  0.49264  0.17941  1.0000
  H   H682      1.0  0.16596  0.36110  0.00118  1.0000
  H   H683      1.0  0.99716  0.28204  0.22370  1.0000
  H   H684      1.0  0.16693  0.49034  0.16936  1.0000
  C   C399      1.0  0.99548  0.37025  0.09232  1.0000
  Fe  Fe61      1.0  0.36459  0.40396  0.39644  1.0000
  S   S114      1.0  0.38185  0.39527  0.42071  1.0000
  S   S115      1.0  0.33666  0.42265  0.39692  1.0000
  Fe  Fe62      1.0  0.39523  0.38758  0.36809  1.0000
  S   S116      1.0  0.41482  0.37735  0.39009  1.0000
  S   S117      1.0  0.40166  0.38021  0.33787  1.0000
  Fe  Fe63      1.0  0.38912  0.36788  0.40712  1.0000
  S   S118      1.0  0.38797  0.34081  0.42580  1.0000
  Fe  Fe64      1.0  0.40649  0.40529  0.40225  1.0000
  S   S119      1.0  0.43009  0.42168  0.40984  1.0000
  S   S120      1.0  0.36997  0.37597  0.38441  1.0000
  S   S121      1.0  0.38886  0.41607  0.37881  1.0000
  N   N31       1.0  0.33897  0.41380  0.33336  1.0000
  H   H685      1.0  0.35889  0.45320  0.34543  1.0000
  S   S122      1.0  0.44553  0.45851  0.48378  1.0000
  H   H686      1.0  0.17182  0.25427  0.46523  1.0000
  S   S123      1.0  0.02029  0.26514  0.61607  1.0000
  H   H687      1.0  0.44319  0.34924  0.47466  1.0000
  Fe  Fe65      1.0  0.10528  0.26912  0.49232  1.0000
  H   H688      1.0  0.08007  0.24962  0.38448  1.0000
  Fe  Fe66      1.0  0.13291  0.28486  0.46037  1.0000
  S   S124      1.0  0.13350  0.25866  0.44506  1.0000
  S   S125      1.0  0.15279  0.30617  0.44634  1.0000
  Fe  Fe67      1.0  0.10187  0.26012  0.45243  1.0000
  C   C400      1.0  0.45522  0.37580  0.47143  1.0000
  S   S126      1.0  0.10137  0.28726  0.46589  1.0000
  S   S127      1.0  0.13687  0.26882  0.48795  1.0000
  Fe  Fe68      1.0  0.20538  0.44703  0.44425  1.0000
  S   S128      1.0  0.21346  0.41608  0.44998  1.0000
  S   S129      1.0  0.21525  0.46994  0.46067  1.0000
  Fe  Fe69      1.0  0.19067  0.44053  0.40643  1.0000
  S   S130      1.0  0.19814  0.40939  0.40947  1.0000
  S   S131      1.0  0.17650  0.45865  0.38319  1.0000
  Fe  Fe70      1.0  0.18600  0.41121  0.43920  1.0000
  S   S132      1.0  0.16424  0.39233  0.45375  1.0000
  Fe  Fe71      1.0  0.22522  0.41619  0.41990  1.0000
  S   S133      1.0  0.25294  0.39847  0.41254  1.0000
  S   S134      1.0  0.17692  0.44229  0.43572  1.0000
  S   S135      1.0  0.21874  0.44715  0.41457  1.0000
  C   C401      1.0  0.18476  0.29006  0.48268  1.0000
  H   H689      1.0  0.20009  0.25386  0.42984  1.0000
  H   H690      1.0  0.03592  0.24885  0.53744  1.0000
  H   H691      1.0  0.47051  0.37289  0.43231  1.0000
  H   H692      1.0  0.00835  0.29815  0.37116  1.0000
  C   C402      1.0  0.15594  0.32998  0.44924  1.0000
  C   C403      1.0  0.14360  0.34112  0.46099  1.0000
  C   C404      1.0  0.14652  0.36005  0.46236  1.0000
  C   C405      1.0  0.16185  0.36808  0.45217  1.0000
  C   C406      1.0  0.17431  0.35687  0.44059  1.0000
  C   C407      1.0  0.17128  0.33802  0.43907  1.0000
  H   H693      1.0  0.13173  0.33521  0.46890  1.0000
  H   H694      1.0  0.13678  0.36852  0.47138  1.0000
  H   H695      1.0  0.18617  0.36277  0.43264  1.0000
  H   H696      1.0  0.18092  0.32959  0.42992  1.0000
  C   C408      1.0  0.14686  0.44432  0.33294  1.0000
  C   C409      1.0  0.15612  0.42999  0.34409  1.0000
  C   C410      1.0  0.16560  0.43410  0.35921  1.0000
  C   C411      1.0  0.16550  0.45261  0.36375  1.0000
  C   C412      1.0  0.15641  0.46696  0.35249  1.0000
  C   C413      1.0  0.14726  0.46288  0.33711  1.0000
  H   H697      1.0  0.43699  0.27684  0.34725  1.0000
  H   H698      1.0  0.17316  0.42298  0.36720  1.0000
  H   H699      1.0  0.15633  0.48135  0.35571  1.0000
  C   C414      1.0  0.45885  0.37854  0.42390  1.0000
  H   H700      1.0  0.20444  0.26950  0.49515  1.0000
  H   H701      1.0  0.06326  0.24796  0.33703  1.0000
  C   C415      1.0  0.34010  0.43271  0.34050  1.0000
  H   H702      1.0  0.31177  0.39433  0.35902  1.0000
  H   H703      1.0  0.05929  0.28601  0.54892  1.0000
  H   H704      1.0  0.19307  0.29848  0.47201  1.0000
  H   H705      1.0  0.02909  0.29246  0.38303  1.0000
  H   H706      1.0  0.41230  0.39444  0.46185  1.0000
  H   H707      1.0  0.42892  0.47339  0.51908  1.0000
  H   H708      1.0  0.29194  0.40741  0.34959  1.0000
  C   C416      1.0  0.43381  0.43223  0.43042  1.0000
  C   C417      1.0  0.42088  0.43201  0.44625  1.0000
  C   C418      1.0  0.42474  0.44010  0.46239  1.0000
  C   C419      1.0  0.44144  0.44872  0.46289  1.0000
  C   C420      1.0  0.45430  0.44907  0.44702  1.0000
  C   C421      1.0  0.45052  0.44080  0.43094  1.0000
  H   H709      1.0  0.40786  0.42572  0.44599  1.0000
  H   H710      1.0  0.41466  0.43977  0.47456  1.0000
  H   H711      1.0  0.46719  0.45563  0.44714  1.0000
  H   H712      1.0  0.46062  0.44111  0.41878  1.0000
  C   C422      1.0  0.39842  0.31818  0.42032  1.0000
  C   C423      1.0  0.41101  0.31541  0.40450  1.0000
  C   C424      1.0  0.41975  0.29734  0.40123  1.0000
  C   C425      1.0  0.41594  0.28182  0.41364  1.0000
  C   C426      1.0  0.40329  0.28459  0.42942  1.0000
  C   C427      1.0  0.39465  0.30268  0.43275  1.0000
  H   H713      1.0  0.41412  0.32719  0.39485  1.0000
  H   H714      1.0  0.42954  0.29539  0.38901  1.0000
  H   H715      1.0  0.40023  0.27283  0.43911  1.0000
  H   H716      1.0  0.38500  0.30468  0.44508  1.0000
  C   C428      1.0  0.27605  0.40550  0.40752  1.0000
  C   C429      1.0  0.27935  0.42425  0.40345  1.0000
  C   C430      1.0  0.29799  0.42922  0.40019  1.0000
  C   C431      1.0  0.31352  0.41554  0.40084  1.0000
  C   C432      1.0  0.31021  0.39678  0.40460  1.0000
  C   C433      1.0  0.29157  0.39181  0.40789  1.0000
  H   H717      1.0  0.26754  0.43490  0.40285  1.0000
  H   H718      1.0  0.30042  0.44377  0.39717  1.0000
  H   H719      1.0  0.32200  0.38609  0.40509  1.0000
  H   H720      1.0  0.28916  0.37725  0.41092  1.0000
  C   C434      1.0  0.18386  0.26027  0.45671  1.0000
  H   H721      1.0  0.13534  0.47704  0.61421  1.0000
  C   C435      1.0  0.07035  0.24635  0.37441  1.0000
  C   C436      1.0  0.08638  0.24537  0.54087  1.0000
  S   S136      1.0  0.07845  0.26316  0.43262  1.0000
  H   H722      1.0  0.44499  0.38839  0.47122  1.0000
  C   C437      1.0  0.19029  0.48462  0.48964  1.0000
  H   H723      1.0  0.45235  0.34365  0.42922  1.0000
  H   H724      1.0  0.22383  0.26013  0.44653  1.0000
  H   H725      1.0  0.06504  0.27582  0.36660  1.0000
  H   H726      1.0  0.41183  0.35168  0.46518  1.0000
  H   H727      1.0  0.41900  0.32590  0.45130  1.0000
  C   C438      1.0  0.43940  0.37937  0.43531  1.0000
  H   H728      1.0  0.18038  0.47541  0.48619  1.0000
  C   C439      1.0  0.41544  0.36442  0.45643  1.0000
  C   C440      1.0  0.03534  0.26630  0.51093  1.0000
  H   H729      1.0  0.23225  0.27177  0.48102  1.0000
  C   C441      1.0  0.13735  0.48981  0.60484  1.0000
  C   C442      1.0  0.44262  0.26523  0.35684  1.0000
  C   C443      1.0  0.06001  0.35793  0.65472  1.0000
  H   H730      1.0  0.43770  0.31558  0.43642  1.0000
  C   C444      1.0  0.06519  0.27165  0.55114  1.0000
  H   H731      1.0  0.46250  0.35079  0.45728  1.0000
  H   H732      1.0  0.31954  0.42998  0.43921  1.0000
  H   H733      1.0  0.40570  0.36613  0.44522  1.0000
  S   S137      1.0  0.47512  0.47218  0.52122  1.0000
  H   H734      1.0  0.02076  0.35740  0.65621  1.0000
  H   H735      1.0  0.27539  0.40692  0.48564  1.0000
  H   H736      1.0  0.46910  0.37949  0.46465  1.0000
  H   H737      1.0  0.20934  0.28171  0.44751  1.0000
  H   H738      1.0  0.16073  0.47646  0.45519  1.0000
  Fe  Fe72      1.0  0.46830  0.47617  0.49132  1.0000
  C   C445      1.0  0.02565  0.25778  0.52923  1.0000
  H   H739      1.0  0.19211  0.48453  0.58051  1.0000
  C   C446      1.0  0.26406  0.39561  0.46295  1.0000
  C   C447      1.0  0.43409  0.32664  0.44639  1.0000
  H   H740      1.0  0.01265  0.27520  0.38203  1.0000
  H   H741      1.0  0.38954  0.48911  0.53618  1.0000
  C   C448      1.0  0.43779  0.34577  0.43617  1.0000
  H   H742      1.0  0.27745  0.39008  0.45535  1.0000
  H   H743      1.0  0.25326  0.39918  0.45300  1.0000
  H   H744      1.0  0.36528  0.48603  0.50821  1.0000
  H   H745      1.0  0.33481  0.43273  0.35549  1.0000
  H   H746      1.0  0.36125  0.37350  0.33361  1.0000
  H   H747      1.0  0.18027  0.48166  0.41544  1.0000
  C   C449      1.0  0.05915  0.26096  0.56741  1.0000
  H   H748      1.0  0.19386  0.48024  0.54691  1.0000
  H   H749      1.0  0.36351  0.40097  0.34639  1.0000
  H   H750      1.0  0.01918  0.28046  0.34599  1.0000
  C   C450      1.0  0.31842  0.41117  0.33268  1.0000
  H   H751      1.0  0.25187  0.46054  0.43095  1.0000
  H   H752      1.0  0.31429  0.43844  0.46182  1.0000
  H   H753      1.0  0.02671  0.24583  0.37746  1.0000
  N   N32       1.0  0.27417  0.42904  0.46347  1.0000
  H   H754      1.0  0.22675  0.29358  0.46755  1.0000
  C   C451      1.0  0.05234  0.26374  0.48034  1.0000
  H   H755      1.0  0.05068  0.28674  0.45901  1.0000
  C   C452      1.0  0.27731  0.44275  0.47724  1.0000
  C   C453      1.0  0.18938  0.49287  0.41706  1.0000
  H   H756      1.0  0.40092  0.42095  0.33086  1.0000
  C   C454      1.0  0.20813  0.48444  0.47970  1.0000
  H   H757      1.0  0.33075  0.44374  0.33335  1.0000
  H   H758      1.0  0.30273  0.44977  0.44232  1.0000
  H   H759      1.0  0.28784  0.43628  0.48679  1.0000
  H   H760      1.0  0.26362  0.46113  0.49801  1.0000
  C   C455      1.0  0.07888  0.26396  0.53782  1.0000
  C   C456      1.0  0.03021  0.24755  0.41582  1.0000
  H   H761      1.0  0.44291  0.32293  0.45812  1.0000
  H   H762      1.0  0.45896  0.37019  0.41167  1.0000
  H   H763      1.0  0.43152  0.26294  0.36836  1.0000
  H   H764      1.0  0.25397  0.43926  0.49939  1.0000
  C   C457      1.0  0.40971  0.38066  0.46899  1.0000
  H   H765      1.0  0.39427  0.38122  0.47299  1.0000
  H   H766      1.0  0.42832  0.34833  0.42471  1.0000
  H   H767      1.0  0.41664  0.37837  0.48211  1.0000
  H   H768      1.0  0.06243  0.27241  0.33420  1.0000
  C   C458      1.0  0.35988  0.43967  0.33889  1.0000
  H   H769      1.0  0.04377  0.38500  0.65584  1.0000
  H   H770      1.0  0.18229  0.26169  0.49373  1.0000
  H   H771      1.0  0.34264  0.40049  0.36105  1.0000
  H   H772      1.0  0.26423  0.46723  0.44896  1.0000
  C   C459      1.0  0.23030  0.27825  0.46692  1.0000
  H   H773      1.0  0.25908  0.38398  0.47258  1.0000
  H   H774      1.0  0.02799  0.28006  0.46812  1.0000
  H   H775      1.0  0.17856  0.27483  0.45231  1.0000
  H   H776      1.0  0.14899  0.47927  0.57911  1.0000
  S   S138      1.0  0.42764  0.25943  0.40898  1.0000
  C   C460      1.0  0.34832  0.39904  0.34629  1.0000
  H   H777      1.0  0.15611  0.41560  0.34086  1.0000
  C   C461      1.0  0.03025  0.28084  0.35563  1.0000
  H   H778      1.0  0.24434  0.27662  0.45883  1.0000
  C   C462      1.0  0.44915  0.35855  0.46299  1.0000
  H   H779      1.0  0.19977  0.48624  0.42662  1.0000
  H   H780      1.0  0.29036  0.41692  0.43961  1.0000
  H   H781      1.0  0.27663  0.45465  0.42981  1.0000
  C   C463      1.0  0.30794  0.43613  0.44894  1.0000
  H   H782      1.0  0.01176  0.25873  0.48969  1.0000
  C   C464      1.0  0.15455  0.48572  0.59061  1.0000
  S   S139      1.0  0.08586  0.27812  0.51756  1.0000
  C   C465      1.0  0.25966  0.45028  0.48948  1.0000
  Fe  Fe73      1.0  0.02017  0.25871  0.64724  1.0000
  C   C466      1.0  0.18740  0.24987  0.43869  1.0000
  H   H783      1.0  0.25204  0.41623  0.48135  1.0000
  C   C467      1.0  0.04381  0.25795  0.42180  1.0000
  C   C468      1.0  0.04223  0.28196  0.47191  1.0000
  H   H784      1.0  0.01672  0.24983  0.35599  1.0000
  H   H785      1.0  0.45493  0.27003  0.36259  1.0000
  C   C469      1.0  0.26632  0.41233  0.47435  1.0000
  H   H786      1.0  0.01729  0.25460  0.41105  1.0000
  C   C470      1.0  0.39929  0.48602  0.52355  1.0000
  H   H787      1.0  0.16399  0.47408  0.59680  1.0000
  H   H788      1.0  0.17013  0.29065  0.47878  1.0000
  C   C471      1.0  0.01961  0.28677  0.37415  1.0000
  H   H789      1.0  0.42573  0.49277  0.49432  1.0000
  H   H790      1.0  0.25871  0.42731  0.43951  1.0000
  H   H791      1.0  0.42850  0.38215  0.42526  1.0000
  C   C472      1.0  0.29274  0.42225  0.45305  1.0000
  H   H792      1.0  0.40572  0.48451  0.48767  1.0000
  H   H793      1.0  0.17072  0.49155  0.54535  1.0000
  N   N33       1.0  0.04268  0.26252  0.35652  1.0000
  H   H794      1.0  0.04909  0.26654  0.38442  1.0000
  H   H795      1.0  0.04874  0.26711  0.57760  1.0000
  H   H796      1.0  0.04132  0.27304  0.42132  1.0000
  H   H797      1.0  0.24841  0.45715  0.48110  1.0000
  H   H798      1.0  0.45751  0.37205  0.48628  1.0000
  N   N34       1.0  0.13309  0.39961  0.40541  1.0000
  C   C473      1.0  0.14717  0.38268  0.40274  1.0000
  C   C474      1.0  0.12116  0.39600  0.42350  1.0000
  C   C475      1.0  0.14415  0.41596  0.40722  1.0000
  C   C476      1.0  0.12169  0.40292  0.38876  1.0000
  C   C477      1.0  0.16154  0.38379  0.38538  1.0000
  C   C478      1.0  0.11160  0.37762  0.42550  1.0000
  C   C479      1.0  0.13275  0.43509  0.40942  1.0000
  C   C480      1.0  0.10141  0.41257  0.39192  1.0000
  H   H799      1.0  0.15536  0.37959  0.41507  1.0000
  H   H800      1.0  0.13990  0.36998  0.40156  1.0000
  H   H801      1.0  0.10994  0.40758  0.42604  1.0000
  H   H802      1.0  0.12983  0.39555  0.43551  1.0000
  H   H803      1.0  0.15290  0.41307  0.41921  1.0000
  H   H804      1.0  0.15427  0.41822  0.39485  1.0000
  H   H805      1.0  0.12924  0.41137  0.37733  1.0000
  H   H806      1.0  0.12015  0.38948  0.38272  1.0000
  H   H807      1.0  0.15478  0.38851  0.37247  1.0000
  H   H808      1.0  0.17265  0.39289  0.38719  1.0000
  H   H809      1.0  0.16890  0.36963  0.38343  1.0000
  H   H810      1.0  0.10552  0.37488  0.41263  1.0000
  H   H811      1.0  0.12179  0.36554  0.42940  1.0000
  H   H812      1.0  0.10005  0.37832  0.43696  1.0000
  H   H813      1.0  0.12681  0.44056  0.39625  1.0000
  H   H814      1.0  0.14248  0.44531  0.41229  1.0000
  H   H815      1.0  0.12164  0.43488  0.42121  1.0000
  H   H816      1.0  0.09186  0.40327  0.40026  1.0000
  H   H817      1.0  0.09564  0.41583  0.37821  1.0000
  H   H818      1.0  0.10065  0.42591  0.39856  1.0000
  N   N35       1.0  0.20049  0.26010  0.46803  1.0000
  H   H819      1.0  0.19683  0.43474  0.32778  1.0000
  H   H820      1.0  0.02543  0.27829  0.50621  1.0000
  C   C481      1.0  0.21580  0.26982  0.45638  1.0000
  H   H821      1.0  0.03859  0.29256  0.34985  1.0000
  C   C482      1.0  0.34784  0.37853  0.34160  1.0000
  H   H822      1.0  0.36996  0.42994  0.34641  1.0000
  H   H823      1.0  0.24565  0.43918  0.45770  1.0000
  H   H824      1.0  0.06546  0.26754  0.48554  1.0000
  H   H825      1.0  0.17444  0.46980  0.55954  1.0000
  H   H826      1.0  0.29992  0.41004  0.46091  1.0000
  H   H827      1.0  0.17518  0.25356  0.43033  1.0000
  C   C483      1.0  0.26374  0.45597  0.43956  1.0000
  C   C484      1.0  0.19336  0.26959  0.48556  1.0000
  H   H828      1.0  0.30769  0.41936  0.36085  1.0000
  C   C485      1.0  0.05654  0.26378  0.37062  1.0000
  H   H829      1.0  0.01858  0.25141  0.45956  1.0000
  N   N36       1.0  0.43566  0.36229  0.44807  1.0000
  H   H830      1.0  0.43800  0.39226  0.44281  1.0000
  C   C486      1.0  0.25998  0.43718  0.45021  1.0000
  H   H831      1.0  0.43716  0.24667  0.33674  1.0000
  C   C487      1.0  0.30703  0.40789  0.35172  1.0000
  H   H832      1.0  0.04128  0.29332  0.48151  1.0000
  H   H833      1.0  0.28349  0.45525  0.47018  1.0000
  H   H834      1.0  0.46170  0.39291  0.41832  1.0000
  H   H835      1.0  0.18386  0.29690  0.49598  1.0000
  H   H836      1.0  0.14025  0.47408  0.32868  1.0000
  C   C488      1.0  0.06077  0.24907  0.42795  1.0000
  H   H837      1.0  0.39346  0.47466  0.51709  1.0000
  H   H838      1.0  0.01979  0.26926  0.53812  1.0000
  H   H839      1.0  0.05963  0.36149  0.63953  1.0000
  H   H840      1.0  0.34605  0.36943  0.35467  1.0000
  H   H841      1.0  0.15255  0.48406  0.43307  1.0000
  C   C489      1.0  0.18002  0.48338  0.55503  1.0000
  H   H842      1.0  0.46117  0.25039  0.33652  1.0000
  H   H843      1.0  0.42397  0.48650  0.53954  1.0000
  C   C490      1.0  0.03042  0.24679  0.36217  1.0000
  N   N37       1.0  0.04092  0.25320  0.49560  1.0000
  H   H844      1.0  0.05749  0.25507  0.46864  1.0000
  C   C491      1.0  0.44838  0.24760  0.34604  1.0000
  C   C492      1.0  0.02322  0.24699  0.48931  1.0000
  H   H845      1.0  0.31102  0.42364  0.32546  1.0000
  H   H846      1.0  0.04782  0.27266  0.51464  1.0000
  H   H847      1.0  0.17544  0.48894  0.61943  1.0000
  C   C493      1.0  0.05328  0.26076  0.33756  1.0000
  H   H848      1.0  0.01380  0.24980  0.52687  1.0000
  H   H849      1.0  0.21204  0.45253  0.32886  1.0000
  H   H850      1.0  0.33607  0.37631  0.33355  1.0000
  C   C494      1.0  0.41816  0.47724  0.53056  1.0000
  C   C495      1.0  0.15557  0.48897  0.44642  1.0000
  H   H851      1.0  0.20764  0.48353  0.39309  1.0000
  H   H852      1.0  0.41571  0.46413  0.53923  1.0000
  H   H853      1.0  0.02968  0.25127  0.32427  1.0000
  H   H854      1.0  0.31662  0.39947  0.32413  1.0000
  H   H855      1.0  0.36569  0.44226  0.32425  1.0000
  H   H856      1.0  0.12432  0.49368  0.59770  1.0000
  H   H857      1.0  0.07511  0.35384  0.65673  1.0000
  H   H858      1.0  0.25737  0.37394  0.93537  1.0000
  C   C496      1.0  0.06155  0.36512  0.86738  1.0000
  Fe  Fe74      1.0  0.21715  0.39055  0.95927  1.0000
  H   H859      1.0  0.07061  0.36519  0.71167  1.0000
  S   S140      1.0  0.21198  0.41260  0.93538  1.0000
  H   H860      1.0  0.11208  0.35847  0.88727  1.0000
  H   H861      1.0  0.47379  0.24880  0.98934  1.0000
  H   H862      1.0  0.10890  0.44454  0.82822  1.0000
  H   H863      1.0  0.08459  0.32977  0.90627  1.0000
  S   S141      1.0  0.22175  0.36007  0.95343  1.0000
  H   H864      1.0  0.01454  0.38363  0.67524  1.0000
  Fe  Fe75      1.0  0.01294  0.35864  0.74456  1.0000
  C   C497      1.0  0.28820  0.38890  0.94889  1.0000
  H   H865      1.0  0.09228  0.31581  0.87507  1.0000
  Fe  Fe76      1.0  0.03646  0.39143  0.74931  1.0000
  S   S142      1.0  0.02551  0.39345  0.77931  1.0000
  S   S143      1.0  0.05765  0.40905  0.73197  1.0000
  Fe  Fe77      1.0  0.02942  0.36187  0.78188  1.0000
  S   S144      1.0  0.04617  0.34286  0.80287  1.0000
  C   C498      1.0  0.15889  0.47161  0.81533  1.0000
  S   S145      1.0  0.04237  0.36001  0.75214  1.0000
  S   S146      1.0  0.00782  0.39000  0.73930  1.0000
  Fe  Fe78      1.0  0.07943  0.30382  0.93949  1.0000
  S   S147      1.0  0.04843  0.31409  0.93902  1.0000
  S   S148      1.0  0.09856  0.32676  0.94390  1.0000
  Fe  Fe79      1.0  0.07229  0.26488  0.92833  1.0000
  S   S149      1.0  0.04133  0.27304  0.92673  1.0000
  Fe  Fe80      1.0  0.04978  0.30019  0.91206  1.0000
  S   S150      1.0  0.03281  0.31693  0.88974  1.0000
  Fe  Fe81      1.0  0.04199  0.28646  0.95376  1.0000
  N   N38       1.0  0.27920  0.38503  0.91592  1.0000
  S   S151      1.0  0.08092  0.29112  0.91178  1.0000
  S   S152      1.0  0.07288  0.27696  0.95613  1.0000
  H   H866      1.0  0.44436  0.26842  0.97065  1.0000
  H   H867      1.0  0.16579  0.46749  0.82833  1.0000
  H   H868      1.0  0.09941  0.39218  0.89530  1.0000
  S   S153      1.0  0.23943  0.38839  0.97926  1.0000
  S   S154      1.0  0.26357  0.47510  0.89853  1.0000
  S   S155      1.0  0.09334  0.47976  0.75726  1.0000
  S   S156      1.0  0.00195  0.33941  0.72509  1.0000
  H   H869      1.0  0.10460  0.48112  0.81883  1.0000
  H   H870      1.0  0.00113  0.35401  0.67291  1.0000
  C   C499      1.0  0.01034  0.32139  0.70991  1.0000
  H   H871      1.0  0.12046  0.38176  0.90490  1.0000
  C   C500      1.0  0.02160  0.30520  0.79474  1.0000
  C   C501      1.0  0.02258  0.29390  0.68397  1.0000
  C   C502      1.0  0.03533  0.30051  0.69491  1.0000
  C   C503      1.0  0.02927  0.31404  0.70787  1.0000
  S   S157      1.0  0.30623  0.25955  0.98980  1.0000
  S   S158      1.0  0.27256  0.34358  0.96832  1.0000
  N   N39       1.0  0.01939  0.29591  0.77727  1.0000
  C   C504      1.0  0.29721  0.28295  0.98347  1.0000
  C   C505      1.0  0.06732  0.42880  0.73916  1.0000
  C   C506      1.0  0.07945  0.43879  0.72641  1.0000
  C   C507      1.0  0.08747  0.45448  0.73157  1.0000
  C   C508      1.0  0.08349  0.46034  0.74961  1.0000
  C   C509      1.0  0.07142  0.45030  0.76237  1.0000
  C   C510      1.0  0.06334  0.43469  0.75719  1.0000
  H   H872      1.0  0.08267  0.43437  0.71244  1.0000
  H   H873      1.0  0.09675  0.46200  0.72161  1.0000
  H   H874      1.0  0.06820  0.45470  0.77635  1.0000
  H   H875      1.0  0.05406  0.42720  0.76716  1.0000
  C   C511      1.0  0.04210  0.33591  0.82706  1.0000
  C   C512      1.0  0.02559  0.34195  0.83785  1.0000
  C   C513      1.0  0.02301  0.33587  0.85691  1.0000
  C   C514      1.0  0.03684  0.32371  0.86550  1.0000
  C   C515      1.0  0.05333  0.31765  0.85470  1.0000
  C   C516      1.0  0.05591  0.32371  0.83563  1.0000
  H   H876      1.0  0.01481  0.35130  0.83153  1.0000
  H   H877      1.0  0.01018  0.34068  0.86509  1.0000
  H   H878      1.0  0.06401  0.30816  0.86099  1.0000
  H   H879      1.0  0.06871  0.31886  0.82745  1.0000
  C   C517      1.0  0.22548  0.43138  0.92693  1.0000
  C   C518      1.0  0.24238  0.43402  0.93408  1.0000
  C   C519      1.0  0.25363  0.44786  0.92557  1.0000
  C   C520      1.0  0.24783  0.45961  0.91027  1.0000
  C   C521      1.0  0.23053  0.45751  0.90368  1.0000
  C   C522      1.0  0.21953  0.44335  0.91187  1.0000
  H   H880      1.0  0.24699  0.42513  0.94585  1.0000
  H   H881      1.0  0.26698  0.44941  0.93078  1.0000
  H   H882      1.0  0.22595  0.46634  0.89185  1.0000
  H   H883      1.0  0.20645  0.44148  0.90628  1.0000
  C   C523      1.0  0.15622  0.33185  0.96665  1.0000
  C   C524      1.0  0.14593  0.34741  0.95840  1.0000
  C   C525      1.0  0.12842  0.34553  0.95155  1.0000
  C   C526      1.0  0.12091  0.32809  0.95271  1.0000
  C   C527      1.0  0.13122  0.31254  0.96094  1.0000
  C   C528      1.0  0.14865  0.31445  0.96791  1.0000
  H   H884      1.0  0.15143  0.36091  0.95733  1.0000
  H   H885      1.0  0.12065  0.35772  0.94529  1.0000
  H   H886      1.0  0.12576  0.29903  0.96199  1.0000
  H   H887      1.0  0.04478  0.27753  0.78209  1.0000
  C   C529      1.0  0.28163  0.32015  0.97448  1.0000
  H   H888      1.0  0.07568  0.34158  0.70565  1.0000
  H   H889      1.0  0.29811  0.37604  0.95000  1.0000
  C   C530      1.0  0.30822  0.29562  0.97289  1.0000
  H   H890      1.0  0.05201  0.31897  0.74659  1.0000
  H   H891      1.0  0.31792  0.37170  0.92156  1.0000
  H   H892      1.0  0.02301  0.34086  0.67636  1.0000
  C   C531      1.0  0.42627  0.26142  0.91854  1.0000
  C   C532      1.0  0.43561  0.25677  0.97561  1.0000
  H   H893      1.0  0.29335  0.39934  0.95711  1.0000
  H   H894      1.0  0.31501  0.36936  0.89728  1.0000
  H   H895      1.0  0.30161  0.40048  0.92308  1.0000
  H   H896      1.0  0.06778  0.35759  0.85509  1.0000
  H   H897      1.0  0.15679  0.48705  0.81411  1.0000
  H   H898      1.0  0.25250  0.36170  0.90467  1.0000
  C   C533      1.0  0.30046  0.31411  0.96846  1.0000
  S   S159      1.0  0.17812  0.33330  0.97629  1.0000
  S   S160      1.0  0.39182  0.25624  0.93770  1.0000
  N   N40       1.0  0.04185  0.37237  0.68407  1.0000
  H   H899      1.0  0.46988  0.24643  0.95696  1.0000
  H   H900      1.0  0.04084  0.35311  0.70858  1.0000
  H   H901      1.0  0.03719  0.41108  0.67272  1.0000
  C   C534      1.0  0.27069  0.30751  0.98519  1.0000
  S   S161      1.0  0.03138  0.27726  0.66742  1.0000
  C   C535      1.0  0.44510  0.25598  0.91190  1.0000
  H   H902      1.0  0.07309  0.38558  0.88208  1.0000
  H   H903      1.0  0.10656  0.35099  0.91095  1.0000
  H   H904      1.0  0.05696  0.29652  0.75814  1.0000
  H   H905      1.0  0.28386  0.35718  0.90614  1.0000
  H   H906      1.0  0.04139  0.37186  0.90135  1.0000
  C   C536      1.0  0.00358  0.30097  0.68630  1.0000
  H   H907      1.0  0.09760  0.43238  0.81254  1.0000
  C   C537      1.0  0.05256  0.37552  0.66519  1.0000
  H   H908      1.0  0.48505  0.47674  0.82179  1.0000
  C   C538      1.0  0.11632  0.45194  0.79827  1.0000
  C   C539      1.0  0.13833  0.47282  0.78250  1.0000
  C   C540      1.0  0.28156  0.39403  0.89641  1.0000
  C   C541      1.0  0.14034  0.46216  0.81623  1.0000
  H   H909      1.0  0.04027  0.36455  0.92546  1.0000
  C   C542      1.0  0.15067  0.45645  0.77356  1.0000
  H   H910      1.0  0.12845  0.47884  0.77219  1.0000
  H   H911      1.0  0.16911  0.46697  0.80367  1.0000
  C   C543      1.0  0.03019  0.27678  0.77831  1.0000
  H   H912      1.0  0.12583  0.43910  0.79522  1.0000
  C   C544      1.0  0.02125  0.37077  0.68236  1.0000
  C   C545      1.0  0.04984  0.35531  0.69524  1.0000
  H   H913      1.0  0.05803  0.39150  0.69601  1.0000
  H   H914      1.0  0.03932  0.31887  0.71607  1.0000
  H   H915      1.0  0.13259  0.46457  0.83009  1.0000
  H   H916      1.0  0.14473  0.44685  0.81672  1.0000
  C   C546      1.0  0.27111  0.41376  0.89323  1.0000
  H   H917      1.0  0.02361  0.30273  0.74747  1.0000
  C   C547      1.0  0.31091  0.36426  0.91183  1.0000
  H   H918      1.0  0.03712  0.38631  0.70978  1.0000
  H   H919      1.0  0.15858  0.44735  0.78380  1.0000
  H   H920      1.0  0.14188  0.44788  0.76653  1.0000
  H   H921      1.0  0.28636  0.35780  0.93004  1.0000
  H   H922      1.0  0.01779  0.26267  0.75710  1.0000
  S   S162      1.0  0.19349  0.38592  0.98162  1.0000
  H   H923      1.0  0.05346  0.37790  0.86158  1.0000
  C   C548      1.0  0.24691  0.37594  0.90849  1.0000
  C   C549      1.0  0.03174  0.26600  0.76055  1.0000
  C   C550      1.0  0.07020  0.35580  0.70032  1.0000
  N   N41       1.0  0.12757  0.46797  0.80092  1.0000
  H   H924      1.0  0.05202  0.31712  0.77127  1.0000
  H   H925      1.0  0.26816  0.41630  0.87842  1.0000
  H   H926      1.0  0.30907  0.32376  0.96019  1.0000
  H   H927      1.0  0.25713  0.41547  0.90122  1.0000
  C   C551      1.0  0.03330  0.40790  0.68775  1.0000
  H   H928      1.0  0.04965  0.34233  0.68817  1.0000
  H   H929      1.0  0.01952  0.32233  0.76079  1.0000
  H   H930      1.0  0.41089  0.27296  0.96558  1.0000
  H   H931      1.0  0.04876  0.25095  0.97519  1.0000
  C   C552      1.0  0.04784  0.36159  0.91170  1.0000
  H   H932      1.0  0.05004  0.29512  0.69328  1.0000
  H   H933      1.0  0.27780  0.38488  0.88596  1.0000
  H   H934      1.0  0.24568  0.38554  0.89581  1.0000
  H   H935      1.0  0.16105  0.46214  0.76268  1.0000
  H   H936      1.0  0.03673  0.30435  0.79739  1.0000
  H   H937      1.0  0.31659  0.34931  0.91337  1.0000
  C   C553      1.0  0.04819  0.31005  0.75935  1.0000
  C   C554      1.0  0.11372  0.48448  0.80591  1.0000
  H   H938      1.0  0.45333  0.26579  0.90337  1.0000
  H   H939      1.0  0.27962  0.42478  0.89679  1.0000
  H   H940      1.0  0.25140  0.39694  0.92660  1.0000
  C   C555      1.0  0.01110  0.29714  0.81278  1.0000
  H   H941      1.0  0.14759  0.48394  0.78348  1.0000
  H   H942      1.0  0.27417  0.38588  0.95555  1.0000
  H   H943      1.0  0.23228  0.37508  0.91503  1.0000
  H   H944      1.0  0.29667  0.39579  0.89216  1.0000
  H   H945      1.0  0.06934  0.37872  0.91495  1.0000
  H   H946      1.0  0.07986  0.36018  0.68820  1.0000
  C   C556      1.0  0.02685  0.30793  0.76073  1.0000
  H   H947      1.0  0.01716  0.32047  0.79327  1.0000
  H   H948      1.0  0.06525  0.38286  0.66654  1.0000
  H   H949      1.0  0.01453  0.30465  0.82463  1.0000
  Fe  Fe82      1.0  0.24253  0.35736  0.97508  1.0000
  H   H950      1.0  0.03783  0.41925  0.69528  1.0000
  H   H951      1.0  0.10804  0.45516  0.78597  1.0000
  H   H952      1.0  0.01774  0.40847  0.69070  1.0000
  H   H953      1.0  0.42009  0.27546  0.91501  1.0000
  Fe  Fe83      1.0  0.19938  0.35528  0.97697  1.0000
  H   H954      1.0  0.11040  0.32819  0.88180  1.0000
  H   H955      1.0  0.06758  0.33457  0.89030  1.0000
  S   S163      1.0  0.01758  0.27845  0.97534  1.0000
  H   H956      1.0  0.02360  0.26759  0.78968  1.0000
  H   H957      1.0  0.01342  0.36933  0.69645  1.0000
  C   C557      1.0  0.28721  0.39706  0.92863  1.0000
  C   C558      1.0  0.25871  0.38338  0.92245  1.0000
  C   C559      1.0  0.04306  0.38901  0.69513  1.0000
  H   H958      1.0  0.04517  0.34721  0.90921  1.0000
  H   H959      1.0  0.05110  0.35676  0.87550  1.0000
  H   H960      1.0  0.07352  0.35548  0.92505  1.0000
  H   H961      1.0  0.09895  0.38308  0.91953  1.0000
  C   C560      1.0  0.10238  0.44610  0.81487  1.0000
  H   H962      1.0  0.27868  0.41087  0.92926  1.0000
  H   H963      1.0  0.08993  0.37144  0.86823  1.0000
  H   H964      1.0  0.32266  0.29118  0.96804  1.0000
  C   C561      1.0  0.28930  0.36557  0.91628  1.0000
  H   H965      1.0  0.08950  0.45614  0.81587  1.0000
  C   C562      1.0  0.49101  0.48610  0.81084  1.0000
  H   H966      1.0  0.43602  0.24820  0.96353  1.0000
  H   H967      1.0  0.09536  0.33861  0.86420  1.0000
  N   N42       1.0  0.08201  0.35857  0.89551  1.0000
  C   C563      1.0  0.10183  0.36125  0.89957  1.0000
  C   C564      1.0  0.08165  0.33806  0.89306  1.0000
  C   C565      1.0  0.06890  0.36381  0.91234  1.0000
  C   C566      1.0  0.07720  0.37091  0.87841  1.0000
  C   C567      1.0  0.10504  0.38082  0.90508  1.0000
  C   C568      1.0  0.09581  0.32998  0.87755  1.0000
  H   H968      1.0  0.03896  0.27350  0.74834  1.0000
  C   C569      1.0  0.01664  0.35475  0.67130  1.0000
  H   H969      1.0  0.05194  0.34567  0.65807  1.0000
  C   C570      1.0  0.99755  0.31461  0.69916  1.0000
  H   H970      1.0  0.01557  0.28211  0.81586  1.0000
  H   H971      1.0  0.15640  0.30228  0.97426  1.0000
  H   H972      1.0  0.10397  0.48813  0.79478  1.0000
  C   C571      1.0  0.41497  0.26536  0.97877  1.0000
  H   H973      1.0  0.37989  0.24807  0.90102  1.0000
  S   S164      1.0  0.00013  0.35882  0.77436  1.0000
  Fe  Fe84      1.0  0.99704  0.39026  0.76942  1.0000
  C   C572      1.0  0.41542  0.24884  0.92966  1.0000
  S   S165      1.0  0.36308  0.25362  0.98591  1.0000
  H   H974      1.0  0.04033  0.25242  0.76300  1.0000
  H   H975      1.0  0.40513  0.25445  0.98227  1.0000
  C   C573      1.0  0.99902  0.29367  0.77526  1.0000
  H   H976      1.0  0.99767  0.28768  0.76183  1.0000
  H   H977      1.0  0.99557  0.29934  0.81244  1.0000
  H   H978      1.0  0.41291  0.27581  0.98935  1.0000
  C   C574      1.0  0.27847  0.28905  0.98968  1.0000
  H   H979      1.0  0.25620  0.31191  0.98991  1.0000
  S   S166      1.0  0.37982  0.73041  0.02962  1.0000
  H   H980      1.0  0.41712  0.70530  0.16035  1.0000
  S   S167      1.0  0.33041  0.70984  0.04706  1.0000
  H   H981      1.0  0.46042  0.71705  0.99841  1.0000
  H   H982      1.0  0.02508  0.56912  0.24921  1.0000
  C   C575      1.0  0.00980  0.56712  0.25060  1.0000
  C   C576      1.0  0.05963  0.72492  0.15166  1.0000
  S   S168      1.0  0.27151  0.52079  0.09991  1.0000
  Fe  Fe85      1.0  0.03510  0.61122  0.23347  1.0000
  S   S169      1.0  0.00810  0.61631  0.21947  1.0000
  S   S170      1.0  0.05438  0.58568  0.22450  1.0000
  Fe  Fe86      1.0  0.02445  0.64493  0.25762  1.0000
  H   H983      1.0  0.21532  0.53142  0.99803  1.0000
  S   S171      1.0  0.03301  0.65625  0.28402  1.0000
  Fe  Fe87      1.0  0.01365  0.64672  0.21747  1.0000
  S   S172      1.0  0.00701  0.66656  0.19192  1.0000
  S   S173      1.0  0.02052  0.61421  0.26194  1.0000
  S   S174      1.0  0.04160  0.64140  0.22983  1.0000
  H   H984      1.0  0.06680  0.72588  0.11488  1.0000
  S   S175      1.0  0.24769  0.61740  0.01199  1.0000
  Fe  Fe88      1.0  0.20365  0.65029  0.03091  1.0000
  S   S176      1.0  0.22924  0.64254  0.04686  1.0000
  S   S177      1.0  0.17990  0.66951  0.04530  1.0000
  Fe  Fe89      1.0  0.24657  0.64771  0.01935  1.0000
  S   S178      1.0  0.27011  0.66737  0.01108  1.0000
  Fe  Fe90      1.0  0.22842  0.61311  0.03842  1.0000
  S   S179      1.0  0.22323  0.58609  0.05631  1.0000
  S   S180      1.0  0.22086  0.65693  0.00388  1.0000
  S   S181      1.0  0.20188  0.62085  0.02418  1.0000
  C   C577      1.0  0.03376  0.67864  0.31298  1.0000
  S   S182      1.0  0.07373  0.71911  0.07527  1.0000
  Fe  Fe91      1.0  0.02801  0.71064  0.05251  1.0000
  S   S183      1.0  0.04931  0.68727  0.06184  1.0000
  H   H985      1.0  0.25888  0.53167  0.02485  1.0000
  Fe  Fe92      1.0  0.05023  0.70207  0.08782  1.0000
  S   S184      1.0  0.05683  0.68624  0.11553  1.0000
  Fe  Fe93      1.0  0.07133  0.70556  0.04884  1.0000
  S   S185      1.0  0.09370  0.69029  0.02938  1.0000
  S   S186      1.0  0.02700  0.72393  0.07996  1.0000
  S   S187      1.0  0.04995  0.72827  0.03827  1.0000
  S   S188      1.0  0.09401  0.52260  0.27863  1.0000
  C   C578      1.0  0.47192  0.72505  0.99138  1.0000
  H   H986      1.0  0.46602  0.51607  0.22439  1.0000
  C   C579      1.0  0.47535  0.50507  0.21807  1.0000
  H   H987      1.0  0.25057  0.57291  0.00968  1.0000
  C   C580      1.0  0.15624  0.67549  0.03988  1.0000
  C   C581      1.0  0.14803  0.66621  0.02701  1.0000
  C   C582      1.0  0.12893  0.67101  0.02380  1.0000
  C   C583      1.0  0.11782  0.68506  0.03345  1.0000
  C   C584      1.0  0.12608  0.69448  0.04613  1.0000
  C   C585      1.0  0.14514  0.68965  0.04939  1.0000
  H   H988      1.0  0.15641  0.65531  0.01958  1.0000
  H   H989      1.0  0.12277  0.66371  0.01383  1.0000
  H   H990      1.0  0.11783  0.70558  0.05336  1.0000
  H   H991      1.0  0.15140  0.69702  0.05924  1.0000
  C   C586      1.0  0.06547  0.56844  0.23978  1.0000
  C   C587      1.0  0.06489  0.57048  0.25887  1.0000
  C   C588      1.0  0.07379  0.55637  0.27055  1.0000
  C   C589      1.0  0.08315  0.53999  0.26332  1.0000
  C   C590      1.0  0.08354  0.53786  0.24426  1.0000
  C   C591      1.0  0.07485  0.55209  0.23255  1.0000
  H   H992      1.0  0.05784  0.58306  0.26459  1.0000
  H   H993      1.0  0.07351  0.55817  0.28526  1.0000
  H   H994      1.0  0.09070  0.52536  0.23853  1.0000
  H   H995      1.0  0.07535  0.55040  0.21781  1.0000
  C   C592      1.0  0.02105  0.67135  0.17061  1.0000
  C   C593      1.0  0.01263  0.68204  0.15591  1.0000
  C   C594      1.0  0.02320  0.68646  0.13886  1.0000
  C   C595      1.0  0.04246  0.68042  0.13636  1.0000
  C   C596      1.0  0.05092  0.66986  0.15109  1.0000
  C   C597      1.0  0.04029  0.66526  0.16805  1.0000
  H   H996      1.0  0.38426  0.67889  0.00121  1.0000
  H   H997      1.0  0.01641  0.69449  0.12769  1.0000
  H   H998      1.0  0.06580  0.66514  0.14940  1.0000
  H   H999      1.0  0.04700  0.65710  0.17922  1.0000
  C   C598      1.0  0.21975  0.56687  0.99450  1.0000
  H   H1000     1.0  0.47069  0.67547  0.11361  1.0000
  H   H1001     1.0  0.47121  0.67614  0.14770  1.0000
  N   N43       1.0  0.05136  0.67604  0.99263  1.0000
  C   C599      1.0  0.25904  0.53788  0.08554  1.0000
  C   C600      1.0  0.26660  0.55500  0.08035  1.0000
  C   C601      1.0  0.25619  0.56974  0.07069  1.0000
  C   C602      1.0  0.23799  0.56753  0.06640  1.0000
  C   C603      1.0  0.23064  0.55026  0.07119  1.0000
  C   C604      1.0  0.24120  0.53541  0.08047  1.0000
  H   H1002     1.0  0.28041  0.55703  0.08422  1.0000
  H   H1003     1.0  0.26198  0.58298  0.06715  1.0000
  H   H1004     1.0  0.21655  0.54845  0.06795  1.0000
  H   H1005     1.0  0.23534  0.52223  0.08412  1.0000
  C   C605      1.0  0.31239  0.69926  0.03752  1.0000
  C   C606      1.0  0.30562  0.70575  0.02047  1.0000
  C   C607      1.0  0.29238  0.69606  0.01286  1.0000
  C   C608      1.0  0.28524  0.68007  0.02240  1.0000
  C   C609      1.0  0.29144  0.67405  0.03982  1.0000
  C   C610      1.0  0.30500  0.68351  0.04723  1.0000
  H   H1006     1.0  0.31066  0.71813  0.01306  1.0000
  H   H1007     1.0  0.01385  0.54332  0.29306  1.0000
  H   H1008     1.0  0.28622  0.66175  0.04732  1.0000
  H   H1009     1.0  0.31001  0.67837  0.06048  1.0000
  H   H1010     1.0  0.20397  0.53762  0.10346  1.0000
  H   H1011     1.0  0.46940  0.72725  0.10128  1.0000
  H   H1012     1.0  0.47216  0.50394  0.14682  1.0000
  H   H1013     1.0  0.44835  0.71613  0.08011  1.0000
  C   C611      1.0  0.43617  0.50790  0.12676  1.0000
  H   H1014     1.0  0.00190  0.58548  0.28437  1.0000
  C   C612      1.0  0.02172  0.69458  0.28535  1.0000
  C   C613      1.0  0.02930  0.67806  0.29453  1.0000
  H   H1015     1.0  0.42300  0.50522  0.12096  1.0000
  H   H1016     1.0  0.06213  0.71145  0.14485  1.0000
  C   C614      1.0  0.00376  0.57248  0.29348  1.0000
  H   H1017     1.0  0.00394  0.55041  0.22755  1.0000
  H   H1018     1.0  0.23583  0.56263  0.02746  1.0000
  H   H1019     1.0  0.45248  0.74320  0.15728  1.0000
  H   H1020     1.0  0.22528  0.51008  0.16476  1.0000
  H   H1021     1.0  0.27086  0.73072  0.07467  1.0000
  H   H1022     1.0  0.23762  0.52182  0.00513  1.0000
  C   C615      1.0  0.20350  0.57232  0.00920  1.0000
  H   H1023     1.0  0.24975  0.74033  0.06424  1.0000
  H   H1024     1.0  0.24351  0.55137  0.11800  1.0000
  H   H1025     1.0  0.21594  0.51282  0.13765  1.0000
  S   S189      1.0  0.00123  0.70436  0.03971  1.0000
  C   C616      1.0  0.06687  0.73964  0.12080  1.0000
  H   H1026     1.0  0.27465  0.54671  0.01121  1.0000
  H   H1027     1.0  0.20582  0.52346  0.02836  1.0000
  H   H1028     1.0  0.23250  0.52019  0.11957  1.0000
  C   C617      1.0  0.23526  0.53672  0.15114  1.0000
  C   C618      1.0  0.24523  0.55928  0.01492  1.0000
  H   H1029     1.0  0.41848  0.51401  0.15128  1.0000
  N   N44       1.0  0.00505  0.55203  0.26547  1.0000
  H   H1030     1.0  0.49219  0.64918  0.18716  1.0000
  H   H1031     1.0  0.00708  0.74334  0.03239  1.0000
  S   S190      1.0  0.41324  0.73143  0.06683  1.0000
  H   H1032     1.0  0.24858  0.53000  0.14411  1.0000
  H   H1033     1.0  0.00468  0.65113  0.31364  1.0000
  C   C619      1.0  0.43324  0.50778  0.14814  1.0000
  C   C620      1.0  0.03410  0.53122  0.25236  1.0000
  H   H1034     1.0  0.00496  0.52784  0.24933  1.0000
  C   C621      1.0  0.26007  0.74283  0.07402  1.0000
  H   H1035     1.0  0.47045  0.71196  0.15388  1.0000
  H   H1036     1.0  0.02858  0.55849  0.27965  1.0000
  H   H1037     1.0  0.01336  0.72414  0.28706  1.0000
  H   H1038     1.0  0.47702  0.73336  0.00176  1.0000
  H   H1039     1.0  0.08612  0.63917  0.00224  1.0000
  C   C622      1.0  0.20326  0.52589  0.11426  1.0000
  H   H1040     1.0  0.09035  0.66314  0.99990  1.0000
  H   H1041     1.0  0.21769  0.53051  0.17746  1.0000
  N   N45       1.0  0.05320  0.74079  0.13803  1.0000
  H   H1042     1.0  0.03385  0.71457  0.16652  1.0000
  C   C623      1.0  0.02348  0.71200  0.31286  1.0000
  C   C624      1.0  0.26217  0.54631  0.02160  1.0000
  N   N46       1.0  0.23479  0.55192  0.00042  1.0000
  Fe  Fe94      1.0  0.34937  0.73399  0.04136  1.0000
  H   H1043     1.0  0.07452  0.65431  0.01896  1.0000
  H   H1044     1.0  0.44443  0.50293  0.18226  1.0000
  H   H1045     1.0  0.20489  0.51285  0.10682  1.0000
  H   H1046     1.0  0.24151  0.52034  0.17677  1.0000
  C   C625      1.0  0.00366  0.56504  0.23108  1.0000
  H   H1047     1.0  0.41020  0.51410  0.18162  1.0000
  H   H1048     1.0  0.45688  0.71972  0.13547  1.0000
  H   H1049     1.0  0.09578  0.74307  0.10967  1.0000
  H   H1050     1.0  0.03879  0.51644  0.24959  1.0000
  C   C626      1.0  0.04629  0.72146  0.16946  1.0000
  H   H1051     1.0  0.44014  0.52186  0.12097  1.0000
  C   C627      1.0  0.04401  0.67948  0.01240  1.0000
  S   S191      1.0  0.99680  0.65192  0.24519  1.0000
  H   H1052     1.0  0.42802  0.66712  0.17524  1.0000
  C   C628      1.0  0.01312  0.53290  0.25985  1.0000
  N   N47       1.0  0.11185  0.65671  0.09458  1.0000
  C   C629      1.0  0.10775  0.67771  0.09325  1.0000
  C   C630      1.0  0.11359  0.65014  0.07517  1.0000
  C   C631      1.0  0.13004  0.65069  0.10315  1.0000
  C   C632      1.0  0.09596  0.64846  0.10667  1.0000
  C   C633      1.0  0.10850  0.68755  0.11126  1.0000
  C   C634      1.0  0.09505  0.65121  0.06584  1.0000
  C   C635      1.0  0.14774  0.65883  0.09301  1.0000
  C   C636      1.0  0.09733  0.62688  0.10927  1.0000
  H   H1053     1.0  0.11761  0.68429  0.08249  1.0000
  H   H1054     1.0  0.09347  0.68185  0.08860  1.0000
  H   H1055     1.0  0.12041  0.63556  0.07469  1.0000
  H   H1056     1.0  0.12327  0.65848  0.06569  1.0000
  H   H1057     1.0  0.12890  0.65408  0.11797  1.0000
  H   H1058     1.0  0.13313  0.63520  0.10358  1.0000
  H   H1059     1.0  0.09498  0.65326  0.12096  1.0000
  H   H1060     1.0  0.08193  0.65373  0.10186  1.0000
  H   H1061     1.0  0.12283  0.68589  0.11609  1.0000
  H   H1062     1.0  0.10477  0.70278  0.10831  1.0000
  H   H1063     1.0  0.09811  0.68288  0.12262  1.0000
  H   H1064     1.0  0.08766  0.66550  0.06546  1.0000
  H   H1065     1.0  0.09837  0.64762  0.05116  1.0000
  H   H1066     1.0  0.08548  0.64109  0.07274  1.0000
  H   H1067     1.0  0.14653  0.67432  0.09217  1.0000
  H   H1068     1.0  0.15107  0.65393  0.07881  1.0000
  H   H1069     1.0  0.16014  0.65387  0.10080  1.0000
  H   H1070     1.0  0.10492  0.62172  0.12162  1.0000
  H   H1071     1.0  0.10441  0.61991  0.09706  1.0000
  H   H1072     1.0  0.08288  0.62228  0.11130  1.0000
  N   N48       1.0  0.22078  0.54205  0.13731  1.0000
  H   H1073     1.0  0.37037  0.66951  0.02098  1.0000
  C   C637      1.0  0.22886  0.55644  0.12325  1.0000
  H   H1074     1.0  0.19444  0.56076  0.01292  1.0000
  C   C638      1.0  0.20238  0.54909  0.14762  1.0000
  C   C639      1.0  0.45663  0.73573  0.09804  1.0000
  C   C640      1.0  0.22984  0.57599  0.13014  1.0000
  H   H1075     1.0  0.01335  0.72325  0.00329  1.0000
  C   C641      1.0  0.18731  0.56027  0.13603  1.0000
  H   H1076     1.0  0.23937  0.54928  0.15700  1.0000
  H   H1077     1.0  0.22125  0.55854  0.11057  1.0000
  H   H1078     1.0  0.37176  0.69400  0.01829  1.0000
  H   H1079     1.0  0.22845  0.52318  0.03615  1.0000
  H   H1080     1.0  0.19560  0.53712  0.15530  1.0000
  H   H1081     1.0  0.20504  0.55819  0.15861  1.0000
  C   C642      1.0  0.44243  0.66905  0.17855  1.0000
  H   H1082     1.0  0.04165  0.73444  0.17655  1.0000
  H   H1083     1.0  0.35198  0.66925  0.99547  1.0000
  H   H1084     1.0  0.23466  0.58543  0.11808  1.0000
  H   H1085     1.0  0.21596  0.58238  0.13590  1.0000
  H   H1086     1.0  0.24029  0.57582  0.14045  1.0000
  H   H1087     1.0  0.19436  0.58424  0.00313  1.0000
  C   C643      1.0  0.01350  0.55580  0.28291  1.0000
  H   H1088     1.0  0.18910  0.52638  0.12206  1.0000
  H   H1089     1.0  0.17438  0.55282  0.13714  1.0000
  H   H1090     1.0  0.19178  0.56294  0.12110  1.0000
  H   H1091     1.0  0.18303  0.57410  0.14172  1.0000
  H   H1092     1.0  0.26630  0.55139  0.03454  1.0000
  Fe  Fe95      1.0  0.05048  0.74029  0.06611  1.0000
  N   N49       1.0  0.44671  0.69604  0.15295  1.0000
  H   H1093     1.0  0.46212  0.68971  0.17743  1.0000
  C   C644      1.0  0.22655  0.53380  0.00692  1.0000
  C   C645      1.0  0.45801  0.68161  0.14124  1.0000
  C   C646      1.0  0.42622  0.69825  0.14907  1.0000
  H   H1094     1.0  0.99776  0.68681  0.15770  1.0000
  H   H1095     1.0  0.20843  0.57724  0.02176  1.0000
  C   C647      1.0  0.46455  0.68793  0.12099  1.0000
  C   C648      1.0  0.42113  0.70848  0.13039  1.0000
  H   H1096     1.0  0.01264  0.57530  0.30446  1.0000
  C   C649      1.0  0.44470  0.72950  0.08599  1.0000
  H   H1097     1.0  0.04022  0.65058  0.02403  1.0000
  H   H1098     1.0  0.05573  0.68115  0.02091  1.0000
  H   H1099     1.0  0.04314  0.53518  0.26264  1.0000
  H   H1100     1.0  0.45000  0.66928  0.14066  1.0000
  H   H1101     1.0  0.42077  0.68433  0.14945  1.0000
  H   H1102     1.0  0.44628  0.72743  0.17651  1.0000
  C   C650      1.0  0.03206  0.66448  0.02258  1.0000
  H   H1103     1.0  0.34324  0.71856  0.00389  1.0000
  C   C651      1.0  0.00048  0.71707  0.00199  1.0000
  C   C652      1.0  0.03075  0.69542  0.32213  1.0000
  H   H1104     1.0  0.01185  0.52232  0.27190  1.0000
  H   H1105     1.0  0.03661  0.53973  0.23904  1.0000
  H   H1106     1.0  0.03964  0.66599  0.32025  1.0000
  C   C653      1.0  0.07926  0.65356  0.00397  1.0000
  H   H1107     1.0  0.47595  0.69726  0.12048  1.0000
  H   H1108     1.0  0.42131  0.69850  0.11947  1.0000
  H   H1109     1.0  0.43004  0.71973  0.12522  1.0000
  C   C654      1.0  0.35360  0.71677  0.99146  1.0000
  H   H1110     1.0  0.45283  0.65847  0.17197  1.0000
  H   H1111     1.0  0.29065  0.73370  0.05040  1.0000
  H   H1112     1.0  0.00296  0.58093  0.25463  1.0000
  C   C655      1.0  0.45560  0.71424  0.15020  1.0000
  H   H1113     1.0  0.07340  0.72720  0.15654  1.0000
  H   H1114     1.0  0.05442  0.71758  0.99807  1.0000
  C   C656      1.0  0.22931  0.52367  0.16832  1.0000
  H   H1115     1.0  0.01375  0.57153  0.22041  1.0000
  C   C657      1.0  0.21890  0.52473  0.12756  1.0000
  H   H1116     1.0  0.44276  0.66615  0.19383  1.0000
  H   H1117     1.0  0.21332  0.54481  0.03399  1.0000
  H   H1118     1.0  0.02734  0.66856  0.03688  1.0000
  H   H1119     1.0  0.34096  0.68617  0.01014  1.0000
  H   H1120     1.0  0.47326  0.49461  0.17076  1.0000
  C   C658      1.0  0.44767  0.68916  0.17316  1.0000
  C   C659      1.0  0.21824  0.53163  0.02749  1.0000
  H   H1121     1.0  0.45302  0.69480  0.11311  1.0000
  H   H1122     1.0  0.01823  0.69443  0.27118  1.0000
  H   H1123     1.0  0.05384  0.71156  0.17943  1.0000
  C   C660      1.0  0.01895  0.71142  0.29442  1.0000
  C   C661      1.0  0.03388  0.73743  0.13319  1.0000
  H   H1124     1.0  0.44184  0.51831  0.15266  1.0000
  H   H1125     1.0  0.43820  0.69836  0.18244  1.0000
  H   H1126     1.0  0.28760  0.70093  0.99945  1.0000
  H   H1127     1.0  0.44793  0.49793  0.12156  1.0000
  C   C662      1.0  0.41495  0.50008  0.18791  1.0000
  H   H1128     1.0  0.01906  0.66347  0.01575  1.0000
  H   H1129     1.0  0.07554  0.69122  0.99444  1.0000
  Fe  Fe96      1.0  0.22111  0.62656  0.99831  1.0000
  H   H1130     1.0  0.40665  0.71575  0.13227  1.0000
  C   C663      1.0  0.35333  0.68340  0.99978  1.0000
  H   H1131     1.0  0.09427  0.72968  0.13144  1.0000
  H   H1132     1.0  0.27766  0.73699  0.02205  1.0000
  H   H1133     1.0  0.03446  0.72357  0.12727  1.0000
  C   C664      1.0  0.37110  0.68158  0.01043  1.0000
  H   H1134     1.0  0.41562  0.50158  0.20297  1.0000
  H   H1135     1.0  0.03501  0.69302  0.01295  1.0000
  S   S192      1.0  0.02003  0.73382  0.32337  1.0000
  C   C665      1.0  0.44540  0.73029  0.16134  1.0000
  H   H1136     1.0  0.43051  0.73353  0.15826  1.0000
  C   C666      1.0  0.08757  0.74200  0.12352  1.0000
  H   H1137     1.0  0.00363  0.61850  0.31144  1.0000
  C   C667      1.0  0.42802  0.74038  0.08154  1.0000
  H   H1138     1.0  0.05369  0.64564  0.99475  1.0000
  H   H1139     1.0  0.36763  0.71764  0.99643  1.0000
  H   H1140     1.0  0.30468  0.72808  0.07593  1.0000
  H   H1141     1.0  0.29079  0.74027  0.09457  1.0000
  H   H1142     1.0  0.25200  0.74289  0.08796  1.0000
  C   C668      1.0  0.30314  0.74059  0.08405  1.0000
  H   H1143     1.0  0.31583  0.73959  0.09188  1.0000
  H   H1144     1.0  0.02369  0.73689  0.14581  1.0000
  C   C669      1.0  0.06281  0.65729  0.99148  1.0000
  Fe  Fe97      1.0  0.39152  0.59975  0.59460  1.0000
  S   S193      1.0  0.36504  0.61855  0.58927  1.0000
  S   S194      1.0  0.41420  0.59249  0.57105  1.0000
  Fe  Fe98      1.0  0.38314  0.59901  0.63705  1.0000
  S   S195      1.0  0.35613  0.61772  0.63458  1.0000
  C   C670      1.0  0.28948  0.66547  0.58681  1.0000
  Fe  Fe99      1.0  0.35037  0.60023  0.61168  1.0000
  S   S196      1.0  0.31968  0.59275  0.61399  1.0000
  Fe  Fe100     1.0  0.37240  0.63496  0.61222  1.0000
  S   S197      1.0  0.36495  0.66687  0.60991  1.0000
  S   S198      1.0  0.37645  0.58030  0.61544  1.0000
  S   S199      1.0  0.39988  0.61737  0.61624  1.0000
  H   H1145     1.0  0.45614  0.57940  0.62639  1.0000
  H   H1146     1.0  0.37436  0.49479  0.48516  1.0000
  S   S200      1.0  0.44992  0.51250  0.54677  1.0000
  C   C671      1.0  0.44902  0.54271  0.63634  1.0000
  C   C672      1.0  0.13955  0.53005  0.57880  1.0000
  S   S201      1.0  0.02336  0.72529  0.38095  1.0000
  H   H1147     1.0  0.47000  0.71494  0.52695  1.0000
  H   H1148     1.0  0.42586  0.72008  0.65042  1.0000
  Fe  Fe101     1.0  0.12286  0.72131  0.53534  1.0000
  C   C673      1.0  0.45625  0.70682  0.55402  1.0000
  S   S202      1.0  0.12861  0.69014  0.54473  1.0000
  C   C674      1.0  0.15610  0.60076  0.65541  1.0000
  N   N50       1.0  0.17790  0.50949  0.42524  1.0000
  S   S203      1.0  0.09166  0.73039  0.53648  1.0000
  H   H1149     1.0  0.42618  0.51305  0.51708  1.0000
  Fe  Fe102     1.0  0.18929  0.56328  0.58264  1.0000
  S   S204      1.0  0.17625  0.56786  0.55528  1.0000
  S   S205      1.0  0.16650  0.56011  0.60724  1.0000
  Fe  Fe103     1.0  0.22909  0.56628  0.56325  1.0000
  S   S206      1.0  0.21821  0.57074  0.53479  1.0000
  S   S207      1.0  0.26144  0.56552  0.56244  1.0000
  Fe  Fe104     1.0  0.19534  0.59078  0.54817  1.0000
  S   S208      1.0  0.18924  0.61916  0.53174  1.0000
  Fe  Fe105     1.0  0.19989  0.54745  0.54376  1.0000
  S   S209      1.0  0.19029  0.52406  0.52751  1.0000
  S   S210      1.0  0.20718  0.58753  0.57608  1.0000
  S   S211      1.0  0.21195  0.54161  0.57162  1.0000
  H   H1150     1.0  0.99654  0.73295  0.63584  1.0000
  C   C675      1.0  0.21561  0.50883  0.49901  1.0000
  H   H1151     1.0  0.12718  0.71568  0.47452  1.0000
  H   H1152     1.0  0.22549  0.51807  0.50248  1.0000
  Fe  Fe106     1.0  0.46998  0.50358  0.52165  1.0000
  C   C676      1.0  0.14621  0.67095  0.54132  1.0000
  C   C677      1.0  0.14398  0.65392  0.55194  1.0000
  C   C678      1.0  0.15715  0.63808  0.54951  1.0000
  C   C679      1.0  0.17264  0.63895  0.53615  1.0000
  C   C680      1.0  0.17480  0.65594  0.52542  1.0000
  C   C681      1.0  0.16180  0.67189  0.52808  1.0000
  H   H1153     1.0  0.13198  0.65298  0.56220  1.0000
  H   H1154     1.0  0.15521  0.62513  0.55781  1.0000
  H   H1155     1.0  0.18672  0.65680  0.51505  1.0000
  H   H1156     1.0  0.16384  0.68486  0.51988  1.0000
  H   H1157     1.0  0.42038  0.57207  0.63170  1.0000
  C   C682      1.0  0.16569  0.54872  0.63003  1.0000
  H   H1158     1.0  0.46265  0.69962  0.56635  1.0000
  H   H1159     1.0  0.19554  0.54649  0.63250  1.0000
  H   H1160     1.0  0.13543  0.54865  0.63207  1.0000
  C   C683      1.0  0.07745  0.69645  0.50239  1.0000
  H   H1161     1.0  0.01860  0.69005  0.61763  1.0000
  H   H1162     1.0  0.15543  0.50438  0.40867  1.0000
  C   C684      1.0  0.18187  0.54367  0.63932  1.0000
  H   H1163     1.0  0.46999  0.52621  0.58651  1.0000
  H   H1164     1.0  0.30133  0.67798  0.56003  1.0000
  H   H1165     1.0  0.04794  0.69210  0.62389  1.0000
  H   H1166     1.0  0.44406  0.74327  0.63694  1.0000
  H   H1167     1.0  0.42375  0.52026  0.47545  1.0000
  C   C685      1.0  0.42251  0.57034  0.56278  1.0000
  C   C686      1.0  0.43865  0.56890  0.54999  1.0000
  C   C687      1.0  0.44679  0.55137  0.54431  1.0000
  C   C688      1.0  0.43896  0.53505  0.55156  1.0000
  C   C689      1.0  0.42247  0.53652  0.56393  1.0000
  C   C690      1.0  0.41412  0.55410  0.56932  1.0000
  H   H1168     1.0  0.44515  0.58141  0.54475  1.0000
  H   H1169     1.0  0.45947  0.55045  0.53480  1.0000
  H   H1170     1.0  0.41626  0.52397  0.56955  1.0000
  H   H1171     1.0  0.40148  0.55508  0.57886  1.0000
  C   C691      1.0  0.30386  0.58506  0.59930  1.0000
  C   C692      1.0  0.28476  0.58436  0.60607  1.0000
  C   C693      1.0  0.27150  0.57886  0.59492  1.0000
  C   C694      1.0  0.27723  0.57364  0.57688  1.0000
  C   C695      1.0  0.29635  0.57432  0.57012  1.0000
  C   C696      1.0  0.30955  0.58011  0.58117  1.0000
  H   H1172     1.0  0.28016  0.58807  0.62010  1.0000
  H   H1173     1.0  0.25693  0.57831  0.60040  1.0000
  H   H1174     1.0  0.30097  0.57026  0.55622  1.0000
  H   H1175     1.0  0.32414  0.58056  0.57571  1.0000
  C   C697      1.0  0.37915  0.68561  0.60309  1.0000
  C   C698      1.0  0.37034  0.70401  0.60117  1.0000
  C   C699      1.0  0.38099  0.71940  0.59627  1.0000
  C   C700      1.0  0.40068  0.71659  0.59342  1.0000
  C   C701      1.0  0.40949  0.69819  0.59525  1.0000
  C   C702      1.0  0.39883  0.68279  0.60000  1.0000
  H   H1176     1.0  0.35514  0.70637  0.60348  1.0000
  Fe  Fe107     1.0  0.02156  0.74184  0.35329  1.0000
  H   H1177     1.0  0.42470  0.69580  0.59309  1.0000
  H   H1178     1.0  0.40582  0.66876  0.60142  1.0000
  H   H1179     1.0  0.03438  0.69559  0.33626  1.0000
  H   H1180     1.0  0.13773  0.69732  0.45983  1.0000
  H   H1181     1.0  0.25763  0.64442  0.59118  1.0000
  C   C703      1.0  0.00564  0.68779  0.65355  1.0000
  C   C704      1.0  0.08782  0.74001  0.43448  1.0000
  H   H1182     1.0  0.18159  0.53710  0.43323  1.0000
  H   H1183     1.0  0.42099  0.57213  0.60747  1.0000
  N   N51       1.0  0.29809  0.64586  0.59150  1.0000
  C   C705      1.0  0.36804  0.49875  0.49908  1.0000
  H   H1184     1.0  0.10735  0.70247  0.45433  1.0000
  H   H1185     1.0  0.10022  0.73661  0.42510  1.0000
  H   H1186     1.0  0.16823  0.52315  0.39965  1.0000
  H   H1187     1.0  0.13831  0.52407  0.43342  1.0000
  H   H1188     1.0  0.15099  0.70624  0.47600  1.0000
  C   C706      1.0  0.41078  0.49734  0.49223  1.0000
  C   C707      1.0  0.43001  0.56882  0.61922  1.0000
  C   C708      1.0  0.30186  0.63495  0.57434  1.0000
  H   H1189     1.0  0.09431  0.66270  0.50711  1.0000
  N   N52       1.0  0.43797  0.54856  0.61977  1.0000
  C   C709      1.0  0.30215  0.67898  0.57514  1.0000
  C   C710      1.0  0.41149  0.51200  0.47550  1.0000
  H   H1190     1.0  0.32752  0.65145  0.59198  1.0000
  H   H1191     1.0  0.21094  0.50664  0.39820  1.0000
  C   C711      1.0  0.12237  0.64930  0.50361  1.0000
  C   C712      1.0  0.45864  0.52587  0.59818  1.0000
  H   H1192     1.0  0.28335  0.67241  0.59954  1.0000
  H   H1193     1.0  0.29725  0.69355  0.57856  1.0000
  C   C713      1.0  0.03066  0.70965  0.64412  1.0000
  H   H1194     1.0  0.11052  0.67231  0.51961  1.0000
  C   C714      1.0  0.08980  0.74225  0.45336  1.0000
  H   H1195     1.0  0.13469  0.69160  0.50255  1.0000
  C   C715      1.0  0.17150  0.51252  0.59807  1.0000
  N   N53       1.0  0.46910  0.73893  0.54321  1.0000
  C   C716      1.0  0.38029  0.51136  0.50790  1.0000
  H   H1196     1.0  0.18009  0.52384  0.59181  1.0000
  H   H1197     1.0  0.18512  0.50968  0.62378  1.0000
  H   H1198     1.0  0.47071  0.73884  0.59140  1.0000
  H   H1199     1.0  0.27705  0.66515  0.57882  1.0000
  H   H1200     1.0  0.32017  0.63021  0.54904  1.0000
  H   H1201     1.0  0.30472  0.64894  0.63035  1.0000
  C   C717      1.0  0.20010  0.49682  0.39780  1.0000
  H   H1202     1.0  0.32279  0.65202  0.55798  1.0000
  H   H1203     1.0  0.41497  0.54002  0.60634  1.0000
  H   H1204     1.0  0.45094  0.58486  0.60242  1.0000
  H   H1205     1.0  0.07166  0.68806  0.49258  1.0000
  H   H1206     1.0  0.37582  0.73334  0.64224  1.0000
  H   H1207     1.0  0.10363  0.74058  0.45841  1.0000
  H   H1208     1.0  0.09664  0.68452  0.44512  1.0000
  H   H1209     1.0  0.06005  0.69819  0.64240  1.0000
  H   H1210     1.0  0.07574  0.68954  0.51666  1.0000
  H   H1211     1.0  0.30226  0.61966  0.57830  1.0000
  S   S212      1.0  0.41513  0.73539  0.58837  1.0000
  H   H1212     1.0  0.19038  0.50200  0.38712  1.0000
  H   H1213     1.0  0.19447  0.53138  0.41205  1.0000
  H   H1214     1.0  0.01475  0.71466  0.61303  1.0000
  C   C718      1.0  0.00947  0.70266  0.62205  1.0000
  H   H1215     1.0  0.44973  0.74052  0.56836  1.0000
  H   H1216     1.0  0.27906  0.64465  0.61690  1.0000
  C   C719      1.0  0.44476  0.58317  0.61709  1.0000
  C   C720      1.0  0.22071  0.49665  0.48454  1.0000
  H   H1217     1.0  0.35408  0.50660  0.49711  1.0000
  C   C721      1.0  0.47076  0.71805  0.54165  1.0000
  H   H1218     1.0  0.16117  0.59705  0.64102  1.0000
  H   H1219     1.0  0.14769  0.61456  0.65420  1.0000
  C   C722      1.0  0.31590  0.64553  0.60110  1.0000
  C   C723      1.0  0.32044  0.63731  0.56205  1.0000
  C   C724      1.0  0.10878  0.66726  0.50583  1.0000
  C   C725      1.0  0.09809  0.69118  0.45813  1.0000
  H   H1220     1.0  0.14680  0.54134  0.58365  1.0000
  H   H1221     1.0  0.26900  0.62150  0.58591  1.0000
  H   H1222     1.0  0.40694  0.51660  0.53427  1.0000
  H   H1223     1.0  0.16349  0.52320  0.55996  1.0000
  H   H1224     1.0  0.11832  0.66808  0.46552  1.0000
  H   H1225     1.0  0.29016  0.63819  0.56518  1.0000
  H   H1226     1.0  0.29059  0.62272  0.61098  1.0000
  H   H1227     1.0  0.17122  0.49699  0.51134  1.0000
  H   H1228     1.0  0.09494  0.66605  0.47536  1.0000
  H   H1229     1.0  0.37290  0.51497  0.52163  1.0000
  H   H1230     1.0  0.10368  0.70500  0.50896  1.0000
  H   H1231     1.0  0.30898  0.67078  0.61677  1.0000
  H   H1232     1.0  0.32803  0.65506  0.62449  1.0000
  H   H1233     1.0  0.45238  0.69547  0.54607  1.0000
  C   C726      1.0  0.40739  0.53783  0.51210  1.0000
  C   C727      1.0  0.06994  0.74248  0.42757  1.0000
  S   S213      1.0  0.46186  0.50736  0.49231  1.0000
  H   H1234     1.0  0.12309  0.64426  0.48949  1.0000
  H   H1235     1.0  0.19725  0.49558  0.60662  1.0000
  S   S214      1.0  0.12890  0.73743  0.50766  1.0000
  N   N54       1.0  0.11090  0.68275  0.49058  1.0000
  H   H1236     1.0  0.15234  0.54311  0.42517  1.0000
  C   C728      1.0  0.45106  0.54612  0.60220  1.0000
  H   H1237     1.0  0.21562  0.53307  0.43587  1.0000
  H   H1238     1.0  0.09845  0.71152  0.48598  1.0000
  H   H1239     1.0  0.33265  0.63029  0.56901  1.0000
  C   C729      1.0  0.42211  0.53643  0.61929  1.0000
  C   C730      1.0  0.41070  0.51701  0.51893  1.0000
  H   H1240     1.0  0.41762  0.54572  0.51802  1.0000
  C   C731      1.0  0.19773  0.50909  0.50891  1.0000
  H   H1241     1.0  0.08382  0.69759  0.46287  1.0000
  H   H1242     1.0  0.44413  0.55239  0.58981  1.0000
  H   H1243     1.0  0.06881  0.71019  0.50272  1.0000
  H   H1244     1.0  0.04408  0.68060  0.64709  1.0000
  C   C732      1.0  0.14669  0.53040  0.42127  1.0000
  H   H1245     1.0  0.37396  0.73340  0.59477  1.0000
  C   C733      1.0  0.40231  0.70627  0.64443  1.0000
  H   H1246     1.0  0.01300  0.67503  0.64739  1.0000
  H   H1247     1.0  0.43773  0.59706  0.62065  1.0000
  C   C734      1.0  0.09830  0.69966  0.49674  1.0000
  S   S215      1.0  0.06827  0.74086  0.40340  1.0000
  C   C735      1.0  0.28396  0.63618  0.60486  1.0000
  C   C736      1.0  0.17013  0.50361  0.44471  1.0000
  H   H1248     1.0  0.31706  0.67707  0.57821  1.0000
  H   H1249     1.0  0.45040  0.52720  0.63892  1.0000
  C   C737      1.0  0.20769  0.52054  0.43678  1.0000
  C   C738      1.0  0.10587  0.67611  0.47262  1.0000
  C   C739      1.0  0.14804  0.54490  0.63916  1.0000
  C   C740      1.0  0.04634  0.69405  0.63902  1.0000
  H   H1250     1.0  0.21746  0.50913  0.43082  1.0000
  N   N55       1.0  0.01075  0.70542  0.64233  1.0000
  C   C741      1.0  0.15398  0.51512  0.56999  1.0000
  H   H1251     1.0  0.37969  0.52480  0.49927  1.0000
  C   C742      1.0  0.26590  0.63170  0.59675  1.0000
  H   H1252     1.0  0.46369  0.54674  0.63335  1.0000
  H   H1253     1.0  0.39311  0.54397  0.51722  1.0000
  H   H1254     1.0  0.13058  0.53682  0.56800  1.0000
  C   C743      1.0  0.18990  0.52532  0.42621  1.0000
  C   C744      1.0  0.40664  0.53708  0.63567  1.0000
  H   H1255     1.0  0.03385  0.72252  0.63520  1.0000
  H   H1256     1.0  0.39992  0.55137  0.63779  1.0000
  H   H1257     1.0  0.25666  0.62498  0.60805  1.0000
  H   H1258     1.0  0.44757  0.51822  0.59338  1.0000
  H   H1259     1.0  0.15940  0.51999  0.60604  1.0000
  H   H1260     1.0  0.44284  0.71484  0.55869  1.0000
  C   C745      1.0  0.13670  0.70257  0.47390  1.0000
  C   C746      1.0  0.13113  0.68731  0.48898  1.0000
  N   N56       1.0  0.40326  0.74218  0.64652  1.0000
  C   C747      1.0  0.41364  0.72351  0.64196  1.0000
  H   H1261     1.0  0.11735  0.63803  0.51372  1.0000
  H   H1262     1.0  0.46372  0.55384  0.60233  1.0000
  H   H1263     1.0  0.14109  0.67486  0.48578  1.0000
  C   C748      1.0  0.31394  0.65577  0.61917  1.0000
  H   H1264     1.0  0.32159  0.63084  0.60460  1.0000
  H   H1265     1.0  0.40957  0.54031  0.49683  1.0000
  H   H1266     1.0  0.41316  0.50462  0.46245  1.0000
  H   H1267     1.0  0.13674  0.65132  0.50711  1.0000
  H   H1268     1.0  0.20403  0.51696  0.45180  1.0000
  H   H1269     1.0  0.42755  0.52142  0.61899  1.0000
  H   H1270     1.0  0.23453  0.49680  0.47698  1.0000
  C   C749      1.0  0.18515  0.49690  0.50400  1.0000
  H   H1271     1.0  0.39166  0.70698  0.63424  1.0000
  H   H1272     1.0  0.48490  0.71171  0.54536  1.0000
  H   H1273     1.0  0.39845  0.52154  0.47457  1.0000
  C   C750      1.0  0.99697  0.72194  0.64760  1.0000
  H   H1274     1.0  0.41976  0.72410  0.62717  1.0000
  H   H1275     1.0  0.16368  0.51598  0.45217  1.0000
  H   H1276     1.0  0.46472  0.51801  0.61032  1.0000
  H   H1277     1.0  0.13009  0.52436  0.59037  1.0000
  H   H1278     1.0  0.39521  0.52881  0.63263  1.0000
  H   H1279     1.0  0.41204  0.53046  0.64870  1.0000
  H   H1280     1.0  0.18175  0.49750  0.45307  1.0000
  H   H1281     1.0  0.48180  0.72148  0.57645  1.0000
  C   C751      1.0  0.16236  0.51625  0.41298  1.0000
  H   H1282     1.0  0.43397  0.72872  0.53023  1.0000
  H   H1283     1.0  0.13672  0.53500  0.41060  1.0000
  Fe  Fe108     1.0  0.49287  0.50936  0.48373  1.0000
  H   H1284     1.0  0.41212  0.69362  0.64153  1.0000
  C   C752      1.0  0.47763  0.73665  0.57720  1.0000
  N   N57       1.0  0.40029  0.50327  0.51024  1.0000
  H   H1285     1.0  0.13224  0.58498  0.65609  1.0000
  H   H1286     1.0  0.19181  0.50585  0.56636  1.0000
  C   C753      1.0  0.43466  0.74317  0.53412  1.0000
  C   C754      1.0  0.18295  0.50071  0.61260  1.0000
  N   N58       1.0  0.16535  0.50197  0.58297  1.0000
  C   C755      1.0  0.44146  0.55120  0.65493  1.0000
  H   H1287     1.0  0.02039  0.74265  0.56160  1.0000
  H   H1288     1.0  0.14611  0.50720  0.56131  1.0000
  H   H1289     1.0  0.13901  0.50067  0.61429  1.0000
  H   H1290     1.0  0.14204  0.49473  0.45366  1.0000
  H   H1291     1.0  0.42605  0.55463  0.65691  1.0000
  H   H1292     1.0  0.44859  0.56378  0.65680  1.0000
  C   C756      1.0  0.18304  0.49432  0.57177  1.0000
  H   H1293     1.0  0.15270  0.57181  0.66335  1.0000
  S   S216      1.0  0.00707  0.58562  0.77148  1.0000
  C   C757      1.0  0.24879  0.54867  0.98366  1.0000
  S   S217      1.0  0.47349  0.70329  0.89306  1.0000
  H   H1294     1.0  0.35343  0.57036  0.86069  1.0000
  Fe  Fe109     1.0  0.46719  0.70835  0.86326  1.0000
  S   S218      1.0  0.47141  0.68621  0.84161  1.0000
  Fe  Fe110     1.0  0.49076  0.72785  0.88837  1.0000
  H   H1295     1.0  0.44403  0.59713  0.71074  1.0000
  C   C758      1.0  0.26549  0.54828  0.76107  1.0000
  S   S219      1.0  0.23075  0.52347  0.89307  1.0000
  Fe  Fe111     1.0  0.27203  0.53271  0.85428  1.0000
  S   S220      1.0  0.24855  0.55454  0.86258  1.0000
  S   S221      1.0  0.29247  0.54338  0.83015  1.0000
  Fe  Fe112     1.0  0.25210  0.54444  0.89233  1.0000
  S   S222      1.0  0.25994  0.56168  0.91509  1.0000
  Fe  Fe113     1.0  0.22908  0.53188  0.86226  1.0000
  S   S223      1.0  0.20151  0.54033  0.84844  1.0000
  S   S224      1.0  0.27684  0.52394  0.88392  1.0000
  S   S225      1.0  0.25239  0.51041  0.85253  1.0000
  Fe  Fe114     1.0  0.42880  0.59151  0.81066  1.0000
  S   S226      1.0  0.43142  0.56081  0.82038  1.0000
  S   S227      1.0  0.42979  0.61353  0.83195  1.0000
  Fe  Fe115     1.0  0.41889  0.58274  0.77173  1.0000
  S   S228      1.0  0.42067  0.55158  0.77908  1.0000
  S   S229      1.0  0.41395  0.59962  0.74389  1.0000
  Fe  Fe116     1.0  0.40469  0.55919  0.80656  1.0000
  S   S230      1.0  0.38260  0.54245  0.82401  1.0000
  Fe  Fe117     1.0  0.44715  0.55514  0.79254  1.0000
  S   S231      1.0  0.47596  0.53805  0.78529  1.0000
  S   S232      1.0  0.40128  0.59007  0.79835  1.0000
  S   S233      1.0  0.44621  0.58616  0.78365  1.0000
  H   H1296     1.0  0.25304  0.53829  0.95601  1.0000
  S   S234      1.0  0.11325  0.52385  0.76477  1.0000
  Fe  Fe118     1.0  0.14032  0.52160  0.71532  1.0000
  S   S235      1.0  0.14293  0.54412  0.73438  1.0000
  S   S236      1.0  0.16175  0.51990  0.68952  1.0000
  Fe  Fe119     1.0  0.14480  0.52140  0.75761  1.0000
  C   C759      1.0  0.15289  0.58820  0.69679  1.0000
  Fe  Fe120     1.0  0.11119  0.54466  0.73999  1.0000
  S   S237      1.0  0.09315  0.57274  0.73804  1.0000
  H   H1297     1.0  0.02726  0.60224  0.85280  1.0000
  S   S238      1.0  0.10844  0.52340  0.71955  1.0000
  C   C760      1.0  0.16270  0.53134  0.66675  1.0000
  C   C761      1.0  0.32611  0.67994  0.97372  1.0000
  H   H1298     1.0  0.25491  0.54656  0.81764  1.0000
  H   H1299     1.0  0.48219  0.59810  0.72630  1.0000
  C   C762      1.0  0.48255  0.56445  0.74465  1.0000
  H   H1300     1.0  0.02112  0.69213  0.67784  1.0000
  H   H1301     1.0  0.23929  0.51332  0.80125  1.0000
  C   C763      1.0  0.41929  0.73029  0.94293  1.0000
  C   C764      1.0  0.19233  0.53230  0.82881  1.0000
  C   C765      1.0  0.20017  0.51606  0.82045  1.0000
  H   H1302     1.0  0.46725  0.54732  0.69370  1.0000
  C   C766      1.0  0.17736  0.52123  0.79686  1.0000
  C   C767      1.0  0.16934  0.53730  0.80537  1.0000
  C   C768      1.0  0.17679  0.54276  0.82122  1.0000
  C   C769      1.0  0.03938  0.67766  0.95996  1.0000
  H   H1303     1.0  0.15751  0.54562  0.79967  1.0000
  H   H1304     1.0  0.17054  0.55529  0.82759  1.0000
  C   C770      1.0  0.31756  0.54274  0.82852  1.0000
  C   C771      1.0  0.32845  0.53116  0.84065  1.0000
  C   C772      1.0  0.34828  0.53122  0.83894  1.0000
  C   C773      1.0  0.35753  0.54292  0.82519  1.0000
  C   C774      1.0  0.34662  0.55452  0.81306  1.0000
  C   C775      1.0  0.32679  0.55433  0.81466  1.0000
  H   H1305     1.0  0.32164  0.52202  0.85124  1.0000
  H   H1306     1.0  0.35656  0.52211  0.84832  1.0000
  H   H1307     1.0  0.35348  0.56355  0.80240  1.0000
  H   H1308     1.0  0.31855  0.56331  0.80515  1.0000
  C   C776      1.0  0.46086  0.66512  0.83991  1.0000
  C   C777      1.0  0.44789  0.65820  0.85387  1.0000
  C   C778      1.0  0.43889  0.64220  0.85128  1.0000
  C   C779      1.0  0.44273  0.63281  0.83479  1.0000
  C   C780      1.0  0.45602  0.63950  0.82100  1.0000
  C   C781      1.0  0.46504  0.65551  0.82359  1.0000
  H   H1309     1.0  0.44459  0.66530  0.86655  1.0000
  H   H1310     1.0  0.42872  0.63712  0.86208  1.0000
  H   H1311     1.0  0.45914  0.63249  0.80825  1.0000
  H   H1312     1.0  0.47502  0.66070  0.81267  1.0000
  H   H1313     1.0  0.33177  0.56834  0.85030  1.0000
  C   C782      1.0  0.03046  0.58190  0.76066  1.0000
  C   C783      1.0  0.03865  0.59536  0.74828  1.0000
  C   C784      1.0  0.05781  0.59231  0.74135  1.0000
  C   C785      1.0  0.06886  0.57567  0.74641  1.0000
  C   C786      1.0  0.06053  0.56209  0.75848  1.0000
  C   C787      1.0  0.04151  0.56528  0.76568  1.0000
  H   H1314     1.0  0.03037  0.60825  0.74437  1.0000
  H   H1315     1.0  0.06412  0.60292  0.73205  1.0000
  H   H1316     1.0  0.06882  0.54924  0.76253  1.0000
  H   H1317     1.0  0.03535  0.55480  0.77526  1.0000
  C   C788      1.0  0.22587  0.60126  0.95587  1.0000
  C   C789      1.0  0.21677  0.59355  0.94239  1.0000
  C   C790      1.0  0.22693  0.58150  0.92969  1.0000
  C   C791      1.0  0.24636  0.57710  0.93031  1.0000
  C   C792      1.0  0.25548  0.58489  0.94373  1.0000
  C   C793      1.0  0.24531  0.59684  0.95649  1.0000
  H   H1318     1.0  0.20174  0.59687  0.94181  1.0000
  H   H1319     1.0  0.21971  0.57560  0.91948  1.0000
  H   H1320     1.0  0.27050  0.58153  0.94437  1.0000
  H   H1321     1.0  0.25250  0.60270  0.96675  1.0000
  H   H1322     1.0  0.25092  0.51525  0.77871  1.0000
  C   C794      1.0  0.02410  0.62345  0.79658  1.0000
  H   H1323     1.0  0.41501  0.74062  0.67304  1.0000
  H   H1324     1.0  0.44477  0.56940  0.74567  1.0000
  C   C795      1.0  0.39803  0.58769  0.68584  1.0000
  C   C796      1.0  0.39941  0.60595  0.69039  1.0000
  C   C797      1.0  0.40379  0.60932  0.70835  1.0000
  C   C798      1.0  0.40661  0.59456  0.72212  1.0000
  C   C799      1.0  0.40485  0.57633  0.71767  1.0000
  C   C800      1.0  0.40083  0.57292  0.69961  1.0000
  H   H1325     1.0  0.39737  0.61747  0.68001  1.0000
  H   H1326     1.0  0.40514  0.62348  0.71156  1.0000
  H   H1327     1.0  0.40682  0.56481  0.72808  1.0000
  H   H1328     1.0  0.39973  0.55874  0.69632  1.0000
  H   H1329     1.0  0.26948  0.51811  0.81469  1.0000
  N   N59       1.0  0.40684  0.69502  0.82499  1.0000
  C   C801      1.0  0.41225  0.67458  0.82214  1.0000
  C   C802      1.0  0.41503  0.69955  0.84230  1.0000
  C   C803      1.0  0.41455  0.70729  0.80876  1.0000
  C   C804      1.0  0.38565  0.69852  0.82679  1.0000
  C   C805      1.0  0.40724  0.66754  0.80389  1.0000
  C   C806      1.0  0.40553  0.69163  0.86093  1.0000
  C   C807      1.0  0.43613  0.70448  0.80397  1.0000
  C   C808      1.0  0.37741  0.71871  0.83057  1.0000
  H   H1330     1.0  0.42761  0.67107  0.82268  1.0000
  H   H1331     1.0  0.40560  0.66557  0.83363  1.0000
  H   H1332     1.0  0.41509  0.71490  0.84305  1.0000
  H   H1333     1.0  0.43018  0.69421  0.84198  1.0000
  H   H1334     1.0  0.40766  0.70555  0.79599  1.0000
  H   H1335     1.0  0.41112  0.72233  0.81141  1.0000
  H   H1336     1.0  0.37994  0.69555  0.81374  1.0000
  H   H1337     1.0  0.37906  0.68856  0.83745  1.0000
  H   H1338     1.0  0.09785  0.56252  0.69214  1.0000
  H   H1339     1.0  0.23257  0.53782  0.82035  1.0000
  H   H1340     1.0  0.41236  0.65243  0.80362  1.0000
  H   H1341     1.0  0.41364  0.69479  0.87240  1.0000
  H   H1342     1.0  0.39095  0.69827  0.86383  1.0000
  H   H1343     1.0  0.40553  0.67622  0.86154  1.0000
  H   H1344     1.0  0.48696  0.70033  0.93920  1.0000
  H   H1345     1.0  0.44108  0.69011  0.80006  1.0000
  H   H1346     1.0  0.44390  0.70791  0.81554  1.0000
  H   H1347     1.0  0.37551  0.72729  0.81731  1.0000
  H   H1348     1.0  0.38612  0.72598  0.83887  1.0000
  H   H1349     1.0  0.36351  0.71835  0.83887  1.0000
  H   H1350     1.0  0.45652  0.57113  0.69427  1.0000
  H   H1351     1.0  0.10534  0.62296  0.70461  1.0000
  C   C809      1.0  0.41344  0.72250  0.96076  1.0000
  H   H1352     1.0  0.03822  0.59453  0.79636  1.0000
  C   C810      1.0  0.12454  0.60599  0.68598  1.0000
  H   H1353     1.0  0.07142  0.68827  0.97157  1.0000
  H   H1354     1.0  0.03264  0.71301  0.65840  1.0000
  H   H1355     1.0  0.01566  0.62206  0.78472  1.0000
  H   H1356     1.0  0.46668  0.60053  0.69789  1.0000
  H   H1357     1.0  0.16402  0.55831  0.69815  1.0000
  H   H1358     1.0  0.37551  0.72860  0.67191  1.0000
  H   H1359     1.0  0.21346  0.54349  0.79394  1.0000
  H   H1360     1.0  0.03959  0.71244  0.98086  1.0000
  N   N60       1.0  0.13690  0.58774  0.68480  1.0000
  H   H1361     1.0  0.33623  0.66943  0.96685  1.0000
  H   H1362     1.0  0.11056  0.51402  0.81066  1.0000
  C   C811      1.0  0.00838  0.68621  0.67448  1.0000
  H   H1363     1.0  0.23427  0.52835  0.97024  1.0000
  H   H1364     1.0  0.14753  0.58768  0.71178  1.0000
  H   H1365     1.0  0.47023  0.71841  0.93138  1.0000
  C   C812      1.0  0.14655  0.53617  0.65736  1.0000
  H   H1366     1.0  0.03768  0.59572  0.83024  1.0000
  H   H1367     1.0  0.21192  0.50769  0.82625  1.0000
  H   H1368     1.0  0.46711  0.50723  0.81341  1.0000
  H   H1369     1.0  0.21729  0.56966  0.80982  1.0000
  H   H1370     1.0  0.47846  0.56584  0.68118  1.0000
  C   C813      1.0  0.26936  0.51492  0.80004  1.0000
  H   H1371     1.0  0.25626  0.55621  0.75110  1.0000
  C   C814      1.0  0.19274  0.51062  0.80459  1.0000
  C   C815      1.0  0.06387  0.69110  0.98542  1.0000
  H   H1372     1.0  0.17937  0.57378  0.70497  1.0000
  H   H1373     1.0  0.01294  0.63033  0.84268  1.0000
  C   C816      1.0  0.22540  0.54598  0.78324  1.0000
  H   H1374     1.0  0.25369  0.56816  0.78019  1.0000
  H   H1375     1.0  0.27158  0.55268  0.78901  1.0000
  H   H1376     1.0  0.32082  0.67406  0.98772  1.0000
  H   H1377     1.0  0.22016  0.51985  0.77173  1.0000
  C   C817      1.0  0.48174  0.56402  0.71088  1.0000
  H   H1378     1.0  0.11184  0.56037  0.67004  1.0000
  C   C818      1.0  0.00292  0.60404  0.81665  1.0000
  C   C819      1.0  0.23186  0.56756  0.81408  1.0000
  C   C820      1.0  0.25009  0.52104  0.79250  1.0000
  C   C821      1.0  0.12612  0.57130  0.69180  1.0000
  H   H1379     1.0  0.13524  0.55794  0.69027  1.0000
  C   C822      1.0  0.10832  0.56917  0.68201  1.0000
  C   C823      1.0  0.35024  0.73426  0.97791  1.0000
  H   H1380     1.0  0.23325  0.53518  0.75534  1.0000
  Fe  Fe121     1.0  0.44882  0.72446  0.89981  1.0000
  C   C824      1.0  0.45216  0.56353  0.73285  1.0000
  S   S239      1.0  0.43083  0.71536  0.92617  1.0000
  H   H1381     1.0  0.26639  0.53320  0.75897  1.0000
  H   H1382     1.0  0.23125  0.55210  0.95981  1.0000
  H   H1383     1.0  0.13326  0.61804  0.68399  1.0000
  H   H1384     1.0  0.17691  0.57281  0.68085  1.0000
  H   H1385     1.0  0.25543  0.56173  0.97877  1.0000
  H   H1386     1.0  0.04814  0.61149  0.84262  1.0000
  H   H1387     1.0  0.12212  0.57116  0.70705  1.0000
  C   C825      1.0  0.45242  0.54207  0.73587  1.0000
  H   H1388     1.0  0.46161  0.53465  0.72505  1.0000
  H   H1389     1.0  0.45687  0.53696  0.74980  1.0000
  H   H1390     1.0  0.43786  0.53813  0.73558  1.0000
  N   N61       1.0  0.31406  0.57204  0.88451  1.0000
  C   C826      1.0  0.30599  0.57927  0.90291  1.0000
  C   C827      1.0  0.32349  0.55256  0.88855  1.0000
  C   C828      1.0  0.29834  0.56991  0.87253  1.0000
  C   C829      1.0  0.32820  0.58474  0.87526  1.0000
  C   C830      1.0  0.29236  0.59726  0.90205  1.0000
  C   C831      1.0  0.33985  0.55079  0.90112  1.0000
  C   C832      1.0  0.29242  0.58668  0.85897  1.0000
  C   C833      1.0  0.33950  0.57759  0.85752  1.0000
  H   H1391     1.0  0.29830  0.56846  0.91154  1.0000
  H   H1392     1.0  0.31744  0.58227  0.91120  1.0000
  H   H1393     1.0  0.32919  0.54606  0.87548  1.0000
  H   H1394     1.0  0.31287  0.54317  0.89518  1.0000
  H   H1395     1.0  0.30201  0.55796  0.86361  1.0000
  H   H1396     1.0  0.28549  0.56600  0.88134  1.0000
  H   H1397     1.0  0.32136  0.59895  0.87171  1.0000
  H   H1398     1.0  0.33859  0.58690  0.88512  1.0000
  H   H1399     1.0  0.27893  0.59484  0.89664  1.0000
  H   H1400     1.0  0.28849  0.60164  0.91640  1.0000
  H   H1401     1.0  0.29884  0.60900  0.89388  1.0000
  H   H1402     1.0  0.35170  0.55869  0.89497  1.0000
  H   H1403     1.0  0.33508  0.55497  0.91536  1.0000
  H   H1404     1.0  0.34557  0.53585  0.90260  1.0000
  H   H1405     1.0  0.27950  0.58377  0.85285  1.0000
  H   H1406     1.0  0.30336  0.58848  0.84716  1.0000
  H   H1407     1.0  0.28911  0.59999  0.86569  1.0000
  H   H1408     1.0  0.34260  0.58964  0.84752  1.0000
  C   C834      1.0  0.11198  0.60834  0.70440  1.0000
  C   C835      1.0  0.04169  0.60922  0.79470  1.0000
  S   S240      1.0  0.16917  0.51388  0.77641  1.0000
  H   H1409     1.0  0.05213  0.61157  0.80435  1.0000
  H   H1410     1.0  0.39913  0.72761  0.98792  1.0000
  H   H1411     1.0  0.12008  0.60546  0.71675  1.0000
  H   H1412     1.0  0.04884  0.61124  0.78044  1.0000
  H   H1413     1.0  0.04428  0.69141  0.95484  1.0000
  H   H1414     1.0  0.32295  0.70740  0.98282  1.0000
  N   N62       1.0  0.47809  0.74351  0.95933  1.0000
  H   H1415     1.0  0.15945  0.60161  0.69411  1.0000
  H   H1416     1.0  0.19900  0.49809  0.79823  1.0000
  C   C836      1.0  0.46998  0.56212  0.69441  1.0000
  N   N63       1.0  0.47115  0.57098  0.72847  1.0000
  H   H1417     1.0  0.44256  0.56816  0.72201  1.0000
  H   H1418     1.0  0.48910  0.54984  0.71393  1.0000
  H   H1419     1.0  0.24043  0.57840  0.80690  1.0000
  C   C837      1.0  0.18036  0.53493  0.65752  1.0000
  H   H1420     1.0  0.41666  0.70768  0.96413  1.0000
  N   N64       1.0  0.01180  0.62226  0.81474  1.0000
  H   H1421     1.0  0.49304  0.57318  0.70574  1.0000
  H   H1422     1.0  0.01350  0.59169  0.81626  1.0000
  C   C838      1.0  0.46844  0.59208  0.72761  1.0000
  S   S241      1.0  0.39407  0.58229  0.66299  1.0000
  H   H1423     1.0  0.41434  0.67469  0.79140  1.0000
  H   H1424     1.0  0.47465  0.56852  0.75796  1.0000
  N   N65       1.0  0.24407  0.54178  0.79160  1.0000
  H   H1425     1.0  0.36955  0.66422  0.97032  1.0000
  H   H1426     1.0  0.22308  0.56105  0.77844  1.0000
  H   H1427     1.0  0.06198  0.71993  0.97348  1.0000
  H   H1428     1.0  0.20855  0.54046  0.76131  1.0000
  C   C839      1.0  0.47734  0.71257  0.94375  1.0000
  C   C840      1.0  0.00166  0.65784  0.80962  1.0000
  C   C841      1.0  0.24126  0.54753  0.81137  1.0000
  C   C842      1.0  0.02274  0.62492  0.83094  1.0000
  C   C843      1.0  0.24108  0.54145  0.96668  1.0000
  H   H1429     1.0  0.03258  0.63587  0.82701  1.0000
  C   C844      1.0  0.40345  0.73373  0.97423  1.0000
  H   H1430     1.0  0.46068  0.59689  0.74079  1.0000
  H   H1431     1.0  0.04993  0.66626  0.95521  1.0000
  C   C845      1.0  0.45806  0.60196  0.71139  1.0000
  C   C846      1.0  0.33434  0.69871  0.97493  1.0000
  C   C847      1.0  0.38717  0.73239  0.67928  1.0000
  H   H1432     1.0  0.13252  0.50709  0.79823  1.0000
  H   H1433     1.0  0.39181  0.66859  0.80294  1.0000
  C   C848      1.0  0.22202  0.53463  0.76693  1.0000
  H   H1434     1.0  0.23052  0.56991  0.82913  1.0000
  H   H1435     1.0  0.38281  0.69773  0.97474  1.0000
  C   C849      1.0  0.16905  0.57229  0.69485  1.0000
  H   H1436     1.0  0.10031  0.59920  0.70573  1.0000
  S   S242      1.0  0.21226  0.61587  0.97190  1.0000
  Fe  Fe122     1.0  0.11207  0.50223  0.74411  1.0000
  H   H1437     1.0  0.00639  0.66059  0.79466  1.0000
  C   C850      1.0  0.25888  0.55305  0.78119  1.0000
  H   H1438     1.0  0.02970  0.63732  0.79397  1.0000
  C   C851      1.0  0.03437  0.60743  0.83931  1.0000
  H   H1439     1.0  0.28014  0.55209  0.75755  1.0000
  H   H1440     1.0  0.45555  0.61716  0.71346  1.0000
  H   H1441     1.0  0.36145  0.73483  0.96620  1.0000
  Fe  Fe123     1.0  0.25529  0.50337  0.88327  1.0000
  C   C852      1.0  0.48074  0.50344  0.80610  1.0000
  H   H1442     1.0  0.06919  0.65548  0.97701  1.0000
  H   H1443     1.0  0.19300  0.53099  0.66453  1.0000
  S   S243      1.0  0.44108  0.72787  0.87013  1.0000
  H   H1444     1.0  0.10100  0.58261  0.67697  1.0000
  C   C853      1.0  0.48910  0.72685  0.95068  1.0000
  H   H1445     1.0  0.39466  0.71942  0.68543  1.0000
  H   H1446     1.0  0.46687  0.70728  0.95471  1.0000
  H   H1447     1.0  0.99575  0.69266  0.68267  1.0000
  H   H1448     1.0  0.36363  0.67653  0.94853  1.0000
  H   H1449     1.0  0.39555  0.70380  0.65867  1.0000
  H   H1450     1.0  0.01257  0.66096  0.81838  1.0000
  C   C854      1.0  0.46412  0.73791  0.97528  1.0000
  H   H1451     1.0  0.01043  0.67117  0.67939  1.0000
  S   S244      1.0  0.48636  0.73164  0.85786  1.0000
  H   H1452     1.0  0.38744  0.67361  0.95520  1.0000
  H   H1453     1.0  0.33618  0.73553  0.97252  1.0000
  H   H1454     1.0  0.28109  0.52124  0.79144  1.0000
  H   H1455     1.0  0.99493  0.60293  0.80446  1.0000
  H   H1456     1.0  0.02628  0.67648  0.95328  1.0000
  H   H1457     1.0  0.31369  0.68241  0.96548  1.0000
  H   H1458     1.0  0.13297  0.53291  0.66404  1.0000
  H   H1459     1.0  0.12841  0.50099  0.82306  1.0000
  N   N66       1.0  0.35273  0.69809  0.98369  1.0000
  C   C855      1.0  0.36936  0.69520  0.96933  1.0000
  C   C856      1.0  0.00074  0.73206  0.66464  1.0000
  H   H1460     1.0  0.26057  0.53809  0.98726  1.0000
  H   H1461     1.0  0.01272  0.74073  0.66122  1.0000
  H   H1462     1.0  0.36819  0.70596  0.95748  1.0000
  H   H1463     1.0  0.21273  0.56277  0.98269  1.0000
  H   H1464     1.0  0.16879  0.60188  0.66268  1.0000
  C   C857      1.0  0.48813  0.51580  0.79197  1.0000
  H   H1465     1.0  0.45214  0.73154  0.97040  1.0000
  H   H1466     1.0  0.33558  0.70566  0.96060  1.0000
  H   H1467     1.0  0.22626  0.57993  0.98948  1.0000
  C   C858      1.0  0.99588  0.63776  0.81373  1.0000
  C   C859      1.0  0.12213  0.50249  0.80957  1.0000
  H   H1468     1.0  0.44513  0.54096  0.66664  1.0000
  H   H1469     1.0  0.48505  0.54891  0.74597  1.0000
  C   C860      1.0  0.37232  0.67631  0.96042  1.0000
  C   C861      1.0  0.14413  0.58543  0.66479  1.0000
  H   H1470     1.0  0.11520  0.60836  0.67445  1.0000
  S   S245      1.0  0.14368  0.49867  0.73826  1.0000
  H   H1471     1.0  0.38025  0.74059  0.69086  1.0000
  H   H1472     1.0  0.00327  0.72252  0.67703  1.0000
  H   H1473     1.0  0.48317  0.71425  0.98685  1.0000
  H   H1474     1.0  0.99921  0.72673  0.97300  1.0000
  H   H1475     1.0  0.44009  0.71417  0.79181  1.0000
  H   H1476     1.0  0.27233  0.49950  0.79973  1.0000
  H   H1477     1.0  0.02756  0.66320  0.98469  1.0000
  C   C862      1.0  0.03478  0.67617  0.98126  1.0000
  H   H1478     1.0  0.02364  0.68762  0.98480  1.0000
  C   C863      1.0  0.05428  0.71134  0.98457  1.0000
  Fe  Fe124     1.0  0.12122  0.89000  0.09973  1.0000
  S   S246      1.0  0.10106  0.90990  0.11647  1.0000
  S   S247      1.0  0.15000  0.89483  0.08365  1.0000
  Fe  Fe125     1.0  0.09510  0.85759  0.10727  1.0000
  S   S248      1.0  0.07353  0.87518  0.12488  1.0000
  S   S249      1.0  0.09678  0.82578  0.10449  1.0000
  Fe  Fe126     1.0  0.07824  0.89849  0.10234  1.0000
  S   S250      1.0  0.05115  0.91516  0.09317  1.0000
  Fe  Fe127     1.0  0.09759  0.88541  0.13773  1.0000
  S   S251      1.0  0.10235  0.88349  0.16885  1.0000
  S   S252      1.0  0.09859  0.88023  0.08412  1.0000
  S   S253      1.0  0.11899  0.86623  0.12155  1.0000
  H   H1479     1.0  0.40819  0.88468  0.25641  1.0000
  H   H1480     1.0  0.02347  0.94753  0.99531  1.0000
  S   S254      1.0  0.03554  0.97090  0.02192  1.0000
  Fe  Fe128     1.0  0.08642  0.93238  0.30229  1.0000
  H   H1481     1.0  0.00597  0.87535  0.01309  1.0000
  Fe  Fe129     1.0  0.06349  0.92312  0.27053  1.0000
  S   S255      1.0  0.03897  0.91484  0.29060  1.0000
  S   S256      1.0  0.06208  0.92620  0.23879  1.0000
  Fe  Fe130     1.0  0.04275  0.94052  0.30533  1.0000
  H   H1482     1.0  0.46678  0.78278  0.06271  1.0000
  Fe  Fe131     1.0  0.06097  0.89969  0.30821  1.0000
  N   N67       1.0  0.01401  0.91994  0.99486  1.0000
  S   S257      1.0  0.06593  0.94960  0.28438  1.0000
  S   S258      1.0  0.08524  0.90649  0.28704  1.0000
  Fe  Fe132     1.0  0.35013  0.96911  0.25762  1.0000
  C   C864      1.0  0.13035  0.94688  0.32090  1.0000
  Fe  Fe133     1.0  0.38530  0.95902  0.23142  1.0000
  S   S259      1.0  0.37630  0.98107  0.20911  1.0000
  S   S260      1.0  0.41313  0.94129  0.22467  1.0000
  Fe  Fe134     1.0  0.34742  0.97099  0.21517  1.0000
  S   S261      1.0  0.32501  0.96981  0.19461  1.0000
  S   S262      1.0  0.37952  0.97848  0.25446  1.0000
  S   S263      1.0  0.35678  0.94777  0.23614  1.0000
  Fe  Fe135     1.0  0.37431  0.75908  0.01566  1.0000
  Fe  Fe136     1.0  0.35228  0.77472  0.05035  1.0000
  H   H1483     1.0  0.43837  0.88681  0.25857  1.0000
  S   S264      1.0  0.33341  0.79664  0.06692  1.0000
  H   H1484     1.0  0.15269  0.97138  0.23461  1.0000
  H   H1485     1.0  0.44652  0.87079  0.28752  1.0000
  S   S265      1.0  0.38297  0.77412  0.03911  1.0000
  S   S266      1.0  0.34319  0.76190  0.02572  1.0000
  Fe  Fe137     1.0  0.29500  0.93480  0.09686  1.0000
  S   S267      1.0  0.30398  0.93460  0.06599  1.0000
  S   S268      1.0  0.31911  0.93842  0.11488  1.0000
  Fe  Fe138     1.0  0.25548  0.92375  0.09096  1.0000
  S   S269      1.0  0.26254  0.92205  0.06016  1.0000
  S   S270      1.0  0.22637  0.92123  0.10705  1.0000
  Fe  Fe139     1.0  0.29062  0.90740  0.06754  1.0000
  S   S271      1.0  0.30748  0.88405  0.05121  1.0000
  Fe  Fe140     1.0  0.27545  0.94930  0.06078  1.0000
  H   H1486     1.0  0.27168  0.99279  0.28490  1.0000
  S   S272      1.0  0.28264  0.90706  0.09841  1.0000
  S   S273      1.0  0.26732  0.95153  0.09158  1.0000
  H   H1487     1.0  0.46177  0.87618  0.25636  1.0000
  S   S274      1.0  0.47054  0.90485  0.28225  1.0000
  H   H1488     1.0  0.14415  0.97846  0.25776  1.0000
  H   H1489     1.0  0.03257  0.84291  0.28115  1.0000
  C   C865      1.0  0.30231  0.75906  0.07175  1.0000
  H   H1490     1.0  0.08183  0.98214  0.24957  1.0000
  H   H1491     1.0  0.40864  0.88777  0.23127  1.0000
  H   H1492     1.0  0.05519  0.91487  0.99498  1.0000
  S   S275      1.0  0.11529  0.94383  0.30326  1.0000
  C   C866      1.0  0.20299  0.97344  0.04031  1.0000
  H   H1493     1.0  0.45824  0.84345  0.22300  1.0000
  H   H1494     1.0  0.29377  0.96809  0.17299  1.0000
  H   H1495     1.0  0.23408  0.93114  0.01518  1.0000
  C   C867      1.0  0.00605  0.88567  0.00081  1.0000
  H   H1496     1.0  0.41932  0.85329  0.22934  1.0000
  C   C868      1.0  0.32634  0.82093  0.06214  1.0000
  C   C869      1.0  0.33240  0.83086  0.04559  1.0000
  C   C870      1.0  0.32632  0.85006  0.04249  1.0000
  C   C871      1.0  0.31410  0.85964  0.05581  1.0000
  C   C872      1.0  0.30800  0.84971  0.07235  1.0000
  C   C873      1.0  0.31411  0.83051  0.07547  1.0000
  H   H1497     1.0  0.34178  0.82376  0.03517  1.0000
  H   H1498     1.0  0.33115  0.85757  0.02963  1.0000
  H   H1499     1.0  0.29858  0.85680  0.08273  1.0000
  H   H1500     1.0  0.30932  0.82302  0.08835  1.0000
  C   C874      1.0  0.42942  0.93302  0.24109  1.0000
  C   C875      1.0  0.44781  0.92610  0.23461  1.0000
  C   C876      1.0  0.46077  0.91806  0.24709  1.0000
  C   C877      1.0  0.45544  0.91678  0.26623  1.0000
  C   C878      1.0  0.43722  0.92415  0.27276  1.0000
  C   C879      1.0  0.42425  0.93224  0.26027  1.0000
  H   H1501     1.0  0.45197  0.92680  0.21981  1.0000
  H   H1502     1.0  0.47481  0.91270  0.24190  1.0000
  H   H1503     1.0  0.43296  0.92323  0.28754  1.0000
  H   H1504     1.0  0.41014  0.93749  0.26545  1.0000
  C   C880      1.0  0.32374  0.96046  0.17265  1.0000
  C   C881      1.0  0.30618  0.96182  0.16516  1.0000
  C   C882      1.0  0.30441  0.95505  0.14768  1.0000
  C   C883      1.0  0.32028  0.94697  0.13726  1.0000
  C   C884      1.0  0.33789  0.94575  0.14468  1.0000
  C   C885      1.0  0.33961  0.95231  0.16227  1.0000
  H   H1505     1.0  0.17694  0.92651  0.04649  1.0000
  H   H1506     1.0  0.29077  0.95617  0.14226  1.0000
  H   H1507     1.0  0.35032  0.93970  0.13678  1.0000
  H   H1508     1.0  0.35324  0.95118  0.16772  1.0000
  H   H1509     1.0  0.46783  0.89229  0.20741  1.0000
  H   H1510     1.0  0.04542  0.77643  0.29462  1.0000
  H   H1511     1.0  0.43674  0.82338  0.23949  1.0000
  H   H1512     1.0  0.44308  0.82824  0.26195  1.0000
  H   H1513     1.0  0.01633  0.77589  0.32091  1.0000
  H   H1514     1.0  0.06271  0.74997  0.10944  1.0000
  H   H1515     1.0  0.22233  0.93908  0.07000  1.0000
  C   C886      1.0  0.31331  0.96929  0.29631  1.0000
  H   H1516     1.0  0.06475  0.75859  0.15571  1.0000
  H   H1517     1.0  0.01102  0.84403  0.29567  1.0000
  C   C887      1.0  0.30014  0.97949  0.28545  1.0000
  H   H1518     1.0  0.19699  0.98389  0.05031  1.0000
  H   H1519     1.0  0.39302  0.87295  0.24435  1.0000
  C   C888      1.0  0.04720  0.92983  0.07269  1.0000
  C   C889      1.0  0.02854  0.93648  0.06933  1.0000
  C   C890      1.0  0.02470  0.94879  0.05371  1.0000
  C   C891      1.0  0.03952  0.95474  0.04133  1.0000
  C   C892      1.0  0.05815  0.94790  0.04452  1.0000
  C   C893      1.0  0.06199  0.93549  0.06008  1.0000
  H   H1520     1.0  0.01700  0.93216  0.07899  1.0000
  H   H1521     1.0  0.01032  0.95387  0.05138  1.0000
  H   H1522     1.0  0.06973  0.95237  0.03500  1.0000
  H   H1523     1.0  0.07641  0.93051  0.06249  1.0000
  C   C894      1.0  0.08251  0.81119  0.09440  1.0000
  C   C895      1.0  0.06503  0.81785  0.08807  1.0000
  C   C896      1.0  0.05417  0.80562  0.08046  1.0000
  C   C897      1.0  0.06066  0.78662  0.07893  1.0000
  C   C898      1.0  0.07816  0.77996  0.08517  1.0000
  C   C899      1.0  0.08892  0.79214  0.09299  1.0000
  H   H1524     1.0  0.05988  0.83243  0.08909  1.0000
  H   H1525     1.0  0.04068  0.81098  0.07566  1.0000
  H   H1526     1.0  0.08354  0.76552  0.08377  1.0000
  H   H1527     1.0  0.10245  0.78685  0.09773  1.0000
  C   C900      1.0  0.09071  0.89543  0.18809  1.0000
  C   C901      1.0  0.09559  0.88952  0.20617  1.0000
  C   C902      1.0  0.08684  0.89854  0.22187  1.0000
  C   C903      1.0  0.07324  0.91378  0.21966  1.0000
  C   C904      1.0  0.06854  0.91982  0.20157  1.0000
  C   C905      1.0  0.07713  0.91069  0.18590  1.0000
  H   H1528     1.0  0.10601  0.87770  0.20809  1.0000
  H   H1529     1.0  0.09045  0.89357  0.23566  1.0000
  H   H1530     1.0  0.05805  0.93160  0.19966  1.0000
  H   H1531     1.0  0.07322  0.91545  0.17213  1.0000
  C   C906      1.0  0.17097  0.90291  0.08998  1.0000
  C   C907      1.0  0.17084  0.91443  0.10463  1.0000
  C   C908      1.0  0.18791  0.92000  0.10952  1.0000
  C   C909      1.0  0.20529  0.91442  0.09967  1.0000
  C   C910      1.0  0.20537  0.90343  0.08461  1.0000
  C   C911      1.0  0.18830  0.89774  0.07981  1.0000
  H   H1532     1.0  0.15758  0.91908  0.11213  1.0000
  H   H1533     1.0  0.18764  0.92878  0.12098  1.0000
  H   H1534     1.0  0.21860  0.89903  0.07686  1.0000
  H   H1535     1.0  0.18856  0.88900  0.06832  1.0000
  H   H1536     1.0  0.17853  0.96228  0.06652  1.0000
  S   S276      1.0  0.35691  0.74674  0.06667  1.0000
  C   C912      1.0  0.29398  0.98709  0.01545  1.0000
  C   C913      1.0  0.01949  0.90055  0.00323  1.0000
  H   H1537     1.0  0.20139  0.93707  0.02708  1.0000
  S   S277      1.0  0.26500  0.97409  0.04074  1.0000
  H   H1538     1.0  0.47101  0.79166  0.08434  1.0000
  H   H1539     1.0  0.28078  0.76121  0.01784  1.0000
  C   C914      1.0  0.27619  0.97991  0.31222  1.0000
  H   H1540     1.0  0.23252  0.95820  0.05747  1.0000
  C   C915      1.0  0.01025  0.79440  0.28661  1.0000
  H   H1541     1.0  0.28617  0.81147  0.05183  1.0000
  C   C916      1.0  0.29066  0.74823  0.04417  1.0000
  H   H1542     1.0  0.00510  0.97866  0.10014  1.0000
  C   C917      1.0  0.02073  0.83466  0.28681  1.0000
  H   H1543     1.0  0.03384  0.82215  0.31080  1.0000
  H   H1544     1.0  0.02167  0.90058  0.01825  1.0000
  H   H1545     1.0  0.16539  0.96353  0.25431  1.0000
  H   H1546     1.0  0.29191  0.79825  0.07257  1.0000
  C   C918      1.0  0.02816  0.93265  0.99921  1.0000
  Fe  Fe141     1.0  0.49323  0.74659  0.13258  1.0000
  C   C919      1.0  0.23000  0.94309  0.02398  1.0000
  C   C920      1.0  0.21894  0.95363  0.06404  1.0000
  H   H1547     1.0  0.02055  0.76566  0.12585  1.0000
  H   H1548     1.0  0.43168  0.77719  0.10722  1.0000
  H   H1549     1.0  0.45353  0.84919  0.27743  1.0000
  H   H1550     1.0  0.47395  0.86766  0.20985  1.0000
  N   N68       1.0  0.35200  0.88429  0.09183  1.0000
  C   C921      1.0  0.35555  0.88349  0.07094  1.0000
  C   C922      1.0  0.36011  0.86571  0.10029  1.0000
  C   C923      1.0  0.36244  0.89982  0.09726  1.0000
  C   C924      1.0  0.33104  0.88822  0.09680  1.0000
  C   C925      1.0  0.35100  0.90190  0.05913  1.0000
  C   C926      1.0  0.35070  0.84851  0.09583  1.0000
  C   C927      1.0  0.36263  0.90207  0.11821  1.0000
  C   C928      1.0  0.32339  0.88386  0.11733  1.0000
  H   H1551     1.0  0.37057  0.87857  0.06681  1.0000
  H   H1552     1.0  0.34707  0.87319  0.06592  1.0000
  H   H1553     1.0  0.35965  0.86528  0.11560  1.0000
  H   H1554     1.0  0.37545  0.86323  0.09567  1.0000
  H   H1555     1.0  0.37744  0.89815  0.09126  1.0000
  H   H1556     1.0  0.35626  0.91366  0.09146  1.0000
  H   H1557     1.0  0.32638  0.90317  0.09307  1.0000
  H   H1558     1.0  0.32306  0.88033  0.08818  1.0000
  H   H1559     1.0  0.35181  0.89889  0.04426  1.0000
  H   H1560     1.0  0.33651  0.90824  0.06280  1.0000
  H   H1561     1.0  0.36130  0.91214  0.06022  1.0000
  H   H1562     1.0  0.35673  0.83591  0.10390  1.0000
  H   H1563     1.0  0.33530  0.84997  0.09982  1.0000
  H   H1564     1.0  0.35345  0.84559  0.08095  1.0000
  H   H1565     1.0  0.36935  0.88960  0.12583  1.0000
  H   H1566     1.0  0.34833  0.90622  0.12483  1.0000
  H   H1567     1.0  0.37114  0.91375  0.11987  1.0000
  H   H1568     1.0  0.31567  0.89671  0.12293  1.0000
  H   H1569     1.0  0.33401  0.87878  0.12703  1.0000
  H   H1570     1.0  0.31297  0.87337  0.11810  1.0000
  N   N69       1.0  0.28697  0.76240  0.05867  1.0000
  C   C929      1.0  0.28875  0.78152  0.04872  1.0000
  H   H1571     1.0  0.34763  0.98813  0.14408  1.0000
  H   H1572     1.0  0.00200  0.97412  0.07702  1.0000
  C   C930      1.0  0.26764  0.76217  0.06912  1.0000
  C   C931      1.0  0.28341  0.79848  0.06063  1.0000
  H   H1573     1.0  0.00164  0.93043  0.03155  1.0000
  H   H1574     1.0  0.02926  0.93199  0.01445  1.0000
  H   H1575     1.0  0.01152  0.78292  0.01349  1.0000
  H   H1576     1.0  0.30341  0.78257  0.04209  1.0000
  C   C932      1.0  0.04471  0.77941  0.30945  1.0000
  H   H1577     1.0  0.18850  0.93929  0.07233  1.0000
  H   H1578     1.0  0.04578  0.99073  0.09089  1.0000
  H   H1579     1.0  0.49219  0.82572  0.19314  1.0000
  H   H1580     1.0  0.30120  0.77017  0.08163  1.0000
  H   H1581     1.0  0.26718  0.76929  0.08227  1.0000
  H   H1582     1.0  0.25699  0.77047  0.06076  1.0000
  H   H1583     1.0  0.24215  0.94432  0.03191  1.0000
  H   H1584     1.0  0.05551  0.78894  0.31123  1.0000
  Fe  Fe142     1.0  0.00759  0.98442  0.01205  1.0000
  H   H1585     1.0  0.99825  0.80322  0.28068  1.0000
  H   H1586     1.0  0.08901  0.75488  0.13038  1.0000
  H   H1587     1.0  0.46933  0.84714  0.24302  1.0000
  N   N70       1.0  0.01527  0.80235  0.30394  1.0000
  C   C933      1.0  0.27471  0.98845  0.02149  1.0000
  N   N71       1.0  0.20469  0.95408  0.04994  1.0000
  H   H1588     1.0  0.09154  0.97430  0.22762  1.0000
  N   N72       1.0  0.16909  0.87371  0.15019  1.0000
  C   C934      1.0  0.16645  0.89430  0.15339  1.0000
  C   C935      1.0  0.18722  0.86539  0.15782  1.0000
  C   C936      1.0  0.15298  0.86372  0.15985  1.0000
  C   C937      1.0  0.16982  0.87165  0.12959  1.0000
  C   C938      1.0  0.14673  0.90449  0.15060  1.0000
  C   C939      1.0  0.20554  0.87106  0.14666  1.0000
  C   C940      1.0  0.14988  0.86481  0.18113  1.0000
  C   C941      1.0  0.17255  0.85145  0.12343  1.0000
  H   H1589     1.0  0.16956  0.89678  0.16769  1.0000
  H   H1590     1.0  0.17677  0.90196  0.14402  1.0000
  H   H1591     1.0  0.18809  0.84985  0.15924  1.0000
  H   H1592     1.0  0.18774  0.86943  0.17226  1.0000
  H   H1593     1.0  0.13952  0.86899  0.15393  1.0000
  H   H1594     1.0  0.15496  0.84858  0.15736  1.0000
  H   H1595     1.0  0.15662  0.87811  0.12395  1.0000
  H   H1596     1.0  0.18081  0.87966  0.12162  1.0000
  H   H1597     1.0  0.14110  0.90134  0.13765  1.0000
  H   H1598     1.0  0.13639  0.90116  0.16253  1.0000
  H   H1599     1.0  0.14754  0.91984  0.14991  1.0000
  H   H1600     1.0  0.20791  0.86476  0.13304  1.0000
  H   H1601     1.0  0.20567  0.88646  0.14438  1.0000
  H   H1602     1.0  0.21778  0.86575  0.15453  1.0000
  H   H1603     1.0  0.13687  0.85813  0.18639  1.0000
  H   H1604     1.0  0.14766  0.87938  0.18528  1.0000
  H   H1605     1.0  0.16169  0.85705  0.18819  1.0000
  H   H1606     1.0  0.15870  0.84587  0.12312  1.0000
  H   H1607     1.0  0.18133  0.84169  0.13234  1.0000
  H   H1608     1.0  0.18005  0.85142  0.10923  1.0000
  N   N73       1.0  0.12199  0.94966  0.24456  1.0000
  C   C942      1.0  0.14022  0.94924  0.25355  1.0000
  C   C943      1.0  0.11285  0.93236  0.25216  1.0000
  C   C944      1.0  0.10945  0.96669  0.25059  1.0000
  C   C945      1.0  0.12639  0.95052  0.22368  1.0000
  C   C946      1.0  0.00055  0.76939  0.05866  1.0000
  C   C947      1.0  0.12483  0.91359  0.24912  1.0000
  H   H1609     1.0  0.48262  0.75670  0.07606  1.0000
  C   C948      1.0  0.11190  0.94321  0.21222  1.0000
  H   H1610     1.0  0.13771  0.94686  0.26896  1.0000
  H   H1611     1.0  0.15037  0.93733  0.24905  1.0000
  H   H1612     1.0  0.09924  0.93150  0.24650  1.0000
  H   H1613     1.0  0.10910  0.93285  0.26740  1.0000
  H   H1614     1.0  0.10693  0.96608  0.26609  1.0000
  H   H1615     1.0  0.45995  0.81627  0.24607  1.0000
  H   H1616     1.0  0.01360  0.83108  0.27488  1.0000
  H   H1617     1.0  0.13999  0.94202  0.22006  1.0000
  H   H1618     1.0  0.27947  0.78409  0.03720  1.0000
  H   H1619     1.0  0.03354  0.89500  0.99686  1.0000
  H   H1620     1.0  0.11630  0.97970  0.24638  1.0000
  H   H1621     1.0  0.13100  0.91262  0.23455  1.0000
  H   H1622     1.0  0.13614  0.91114  0.25871  1.0000
  H   H1623     1.0  0.11572  0.90200  0.25253  1.0000
  H   H1624     1.0  0.02688  0.77061  0.02993  1.0000
  H   H1625     1.0  0.06775  0.78243  0.13340  1.0000
  C   C949      1.0  0.21193  0.93929  0.03666  1.0000
  H   H1626     1.0  0.12843  0.96512  0.21816  1.0000
  H   H1627     1.0  0.09716  0.94435  0.21850  1.0000
  H   H1628     1.0  0.49271  0.75281  0.04409  1.0000
  N   N74       1.0  0.44253  0.86391  0.24067  1.0000
  C   C950      1.0  0.44617  0.87735  0.22384  1.0000
  C   C951      1.0  0.42205  0.86025  0.24186  1.0000
  C   C952      1.0  0.45530  0.84601  0.23803  1.0000
  C   C953      1.0  0.44682  0.87306  0.25753  1.0000
  H   H1629     1.0  0.04147  0.81131  0.28987  1.0000
  C   C954      1.0  0.40743  0.87756  0.24355  1.0000
  C   C955      1.0  0.44815  0.82760  0.24708  1.0000
  C   C956      1.0  0.44358  0.86200  0.27644  1.0000
  H   H1630     1.0  0.43984  0.87302  0.21162  1.0000
  H   H1631     1.0  0.20050  0.96157  0.08924  1.0000
  H   H1632     1.0  0.41832  0.85038  0.25391  1.0000
  H   H1633     1.0  0.15143  0.95838  0.30110  1.0000
  H   H1634     1.0  0.01766  0.76385  0.29055  1.0000
  S   S278      1.0  0.33708  0.96332  0.28737  1.0000
  S   S279      1.0  0.46630  0.76123  0.12140  1.0000
  H   H1635     1.0  0.19128  0.96452  0.01546  1.0000
  H   H1636     1.0  0.02357  0.99048  0.05639  1.0000
  H   H1637     1.0  0.05713  0.93930  0.99436  1.0000
  H   H1638     1.0  0.41073  0.76620  0.08586  1.0000
  H   H1639     1.0  0.47551  0.88183  0.22887  1.0000
  S   S280      1.0  0.04624  0.77182  0.06933  1.0000
  H   H1640     1.0  0.30357  0.97687  0.02242  1.0000
  H   H1641     1.0  0.31641  0.75972  0.06380  1.0000
  H   H1642     1.0  0.04850  0.76600  0.31754  1.0000
  H   H1643     1.0  0.02208  0.79478  0.27538  1.0000
  H   H1644     1.0  0.08158  0.95821  0.24569  1.0000
  C   C957      1.0  0.46710  0.87975  0.21736  1.0000
  C   C958      1.0  0.02866  0.81714  0.29832  1.0000
  C   C959      1.0  0.45194  0.75287  0.10590  1.0000
  H   H1645     1.0  0.99966  0.77077  0.27545  1.0000
  H   H1646     1.0  0.11623  0.92852  0.20887  1.0000
  C   C960      1.0  0.27684  0.75033  0.02888  1.0000
  C   C961      1.0  0.17193  0.94115  0.04955  1.0000
  C   C962      1.0  0.99879  0.98492  0.08733  1.0000
  C   C963      1.0  0.28933  0.96959  0.32304  1.0000
  H   H1647     1.0  0.42880  0.85864  0.27956  1.0000
  H   H1648     1.0  0.26821  0.79988  0.06565  1.0000
  H   H1649     1.0  0.01258  0.75830  0.05926  1.0000
  H   H1650     1.0  0.22484  0.96395  0.08995  1.0000
  S   S281      1.0  0.33894  0.99153  0.23725  1.0000
  H   H1651     1.0  0.22779  0.95580  0.01443  1.0000
  H   H1652     1.0  0.02487  0.76139  0.00826  1.0000
  H   H1653     1.0  0.17555  0.98062  0.02906  1.0000
  C   C964      1.0  0.02431  0.75208  0.11958  1.0000
  C   C965      1.0  0.15102  0.96679  0.24961  1.0000
  H   H1654     1.0  0.21463  0.92544  0.04450  1.0000
  C   C966      1.0  0.00272  0.97910  0.30818  1.0000
  H   H1655     1.0  0.05026  0.77609  0.11953  1.0000
  H   H1656     1.0  0.11180  0.95141  0.19855  1.0000
  C   C967      1.0  0.42349  0.75768  0.08916  1.0000
  C   C968      1.0  0.30780  0.96441  0.31514  1.0000
  C   C969      1.0  0.43539  0.76386  0.10129  1.0000
  C   C970      1.0  0.14761  0.95453  0.31563  1.0000
  H   H1657     1.0  0.21712  0.97819  0.03542  1.0000
  S   S282      1.0  0.01828  0.96058  0.31793  1.0000
  H   H1658     1.0  0.21139  0.98095  0.07620  1.0000
  H   H1659     1.0  0.43925  0.89159  0.22635  1.0000
  C   C971      1.0  0.99798  0.81173  0.31438  1.0000
  C   C972      1.0  0.05366  0.77713  0.13391  1.0000
  C   C973      1.0  0.09009  0.97022  0.24276  1.0000
  C   C974      1.0  0.01673  0.76900  0.01968  1.0000
  H   H1660     1.0  0.48516  0.79780  0.06368  1.0000
  C   C975      1.0  0.04043  0.98394  0.07957  1.0000
  S   S283      1.0  0.25297  0.98755  0.32158  1.0000
  C   C976      1.0  0.99477  0.92765  0.00293  1.0000
  H   H1661     1.0  0.30515  0.74873  0.03704  1.0000
  C   C977      1.0  0.19049  0.97664  0.02399  1.0000
  H   H1662     1.0  0.30411  0.98329  0.27094  1.0000
  C   C978      1.0  0.00511  0.77397  0.28853  1.0000
  C   C979      1.0  0.49135  0.76858  0.07576  1.0000
  C   C980      1.0  0.02490  0.78778  0.31690  1.0000
  H   H1663     1.0  0.01503  0.97811  0.27991  1.0000
  H   H1664     1.0  0.03976  0.76105  0.15687  1.0000
  H   H1665     1.0  0.15842  0.94042  0.05850  1.0000
  H   H1666     1.0  0.05283  0.98008  0.06963  1.0000
  C   C981      1.0  0.18609  0.94961  0.06033  1.0000
  H   H1667     1.0  0.04351  0.78840  0.13972  1.0000
  C   C982      1.0  0.21326  0.96585  0.08065  1.0000
  H   H1668     1.0  0.16872  0.94953  0.03659  1.0000
  C   C983      1.0  0.28174  0.98485  0.29340  1.0000
  H   H1669     1.0  0.03480  0.97066  0.08517  1.0000
  C   C984      1.0  0.47792  0.78620  0.07116  1.0000
  C   C985      1.0  0.05268  0.75904  0.14703  1.0000
  S   S284      1.0  0.06377  0.86869  0.31941  1.0000
  C   C986      1.0  0.00046  0.75751  0.02808  1.0000
  H   H1670     1.0  0.01084  0.74716  0.11651  1.0000
  H   H1671     1.0  0.00706  0.78272  0.05484  1.0000
  H   H1672     1.0  0.00217  0.77511  0.08735  1.0000
  C   C987      1.0  0.00425  0.98503  0.28924  1.0000
  H   H1673     1.0  0.03279  0.75404  0.10607  1.0000
  Fe  Fe143     1.0  0.38690  0.74538  0.05378  1.0000
  H   H1674     1.0  0.26197  0.75357  0.03438  1.0000
  H   H1675     1.0  0.19559  0.98813  0.01422  1.0000
  H   H1676     1.0  0.31787  0.95654  0.32367  1.0000
  H   H1677     1.0  0.46240  0.75996  0.56309  1.0000
  H   H1678     1.0  0.02005  0.75908  0.61728  1.0000
  H   H1679     1.0  0.18687  0.93980  0.42127  1.0000
  Fe  Fe144     1.0  0.23520  0.95496  0.38646  1.0000
  S   S285      1.0  0.20701  0.96912  0.39593  1.0000
  S   S286      1.0  0.25082  0.93135  0.40361  1.0000
  Fe  Fe145     1.0  0.19911  0.96715  0.36672  1.0000
  S   S287      1.0  0.17022  0.95593  0.36555  1.0000
  H   H1680     1.0  0.03572  0.80330  0.59162  1.0000
  S   S288      1.0  0.22692  0.95117  0.35784  1.0000
  C   C988      1.0  0.48057  0.83212  0.37971  1.0000
  H   H1681     1.0  0.16926  0.93761  0.40643  1.0000
  S   S289      1.0  0.01657  0.76569  0.40071  1.0000
  H   H1682     1.0  0.17312  0.96333  0.32462  1.0000
  H   H1683     1.0  0.17034  0.89500  0.41097  1.0000
  Fe  Fe146     1.0  0.01615  0.77940  0.37151  1.0000
  S   S290      1.0  0.01089  0.81112  0.36527  1.0000
  H   H1684     1.0  0.48842  0.84137  0.35082  1.0000
  S   S291      1.0  0.04174  0.76196  0.36000  1.0000
  H   H1685     1.0  0.00211  0.81902  0.32610  1.0000
  H   H1686     1.0  0.16411  0.91842  0.38232  1.0000
  S   S292      1.0  0.20959  0.97699  0.61533  1.0000
  H   H1687     1.0  0.01287  0.84196  0.58321  1.0000
  Fe  Fe147     1.0  0.23902  0.88654  0.51215  1.0000
  S   S293      1.0  0.21872  0.89052  0.53786  1.0000
  S   S294      1.0  0.22883  0.90773  0.48908  1.0000
  Fe  Fe148     1.0  0.26412  0.85565  0.53294  1.0000
  S   S295      1.0  0.24503  0.85840  0.55929  1.0000
  S   S296      1.0  0.28700  0.83086  0.53567  1.0000
  Fe  Fe149     1.0  0.22096  0.85896  0.54140  1.0000
  S   S297      1.0  0.19717  0.84071  0.55238  1.0000
  Fe  Fe150     1.0  0.24463  0.88953  0.55312  1.0000
  S   S298      1.0  0.25386  0.90821  0.57398  1.0000
  S   S299      1.0  0.23988  0.85494  0.51511  1.0000
  S   S300      1.0  0.26501  0.88686  0.52742  1.0000
  Fe  Fe151     1.0  0.41160  0.76752  0.58402  1.0000
  S   S301      1.0  0.41252  0.78398  0.55598  1.0000
  Fe  Fe152     1.0  0.41813  0.80199  0.60504  1.0000
  S   S302      1.0  0.41964  0.82049  0.57840  1.0000
  S   S303      1.0  0.41836  0.80846  0.63579  1.0000
  Fe  Fe153     1.0  0.39445  0.80679  0.57120  1.0000
  S   S304      1.0  0.37140  0.82791  0.55936  1.0000
  Fe  Fe154     1.0  0.43740  0.79658  0.56475  1.0000
  S   S305      1.0  0.46685  0.79800  0.54870  1.0000
  S   S306      1.0  0.39199  0.78945  0.59863  1.0000
  S   S307      1.0  0.43744  0.77906  0.59203  1.0000
  S   S308      1.0  0.10209  0.77319  0.52511  1.0000
  H   H1688     1.0  0.28529  0.96571  0.33753  1.0000
  Fe  Fe155     1.0  0.13271  0.76171  0.52474  1.0000
  S   S309      1.0  0.15688  0.77993  0.51456  1.0000
  C   C989      1.0  0.04635  0.76072  0.59985  1.0000
  H   H1689     1.0  0.45175  0.79498  0.51259  1.0000
  C   C990      1.0  0.18518  0.82480  0.54128  1.0000
  C   C991      1.0  0.17298  0.81331  0.55227  1.0000
  C   C992      1.0  0.16384  0.79988  0.54432  1.0000
  C   C993      1.0  0.16681  0.79766  0.52520  1.0000
  C   C994      1.0  0.17887  0.80929  0.51416  1.0000
  C   C995      1.0  0.18790  0.82283  0.52209  1.0000
  H   H1690     1.0  0.17065  0.81473  0.56710  1.0000
  H   H1691     1.0  0.15465  0.79108  0.55303  1.0000
  H   H1692     1.0  0.18128  0.80775  0.49936  1.0000
  H   H1693     1.0  0.19708  0.83162  0.51337  1.0000
  C   C996      1.0  0.31039  0.83031  0.54242  1.0000
  C   C997      1.0  0.32081  0.84581  0.53917  1.0000
  C   C998      1.0  0.33954  0.84456  0.54409  1.0000
  C   C999      1.0  0.34806  0.82798  0.55262  1.0000
  C   C1000     1.0  0.33764  0.81246  0.55590  1.0000
  C   C1001     1.0  0.31901  0.81360  0.55068  1.0000
  H   H1694     1.0  0.31459  0.85864  0.53251  1.0000
  H   H1695     1.0  0.34757  0.85653  0.54116  1.0000
  H   H1696     1.0  0.34396  0.79957  0.56236  1.0000
  H   H1697     1.0  0.31120  0.80144  0.55308  1.0000
  H   H1698     1.0  0.01597  0.80593  0.42652  1.0000
  C   C1002     1.0  0.04639  0.80061  0.42183  1.0000
  H   H1699     1.0  0.47436  0.84659  0.38229  1.0000
  H   H1700     1.0  0.23981  0.97226  0.57130  1.0000
  C   C1003     1.0  0.44541  0.83298  0.64007  1.0000
  S   S310      1.0  0.07520  0.74988  0.48952  1.0000
  H   H1701     1.0  0.26837  0.96019  0.48068  1.0000
  H   H1702     1.0  0.44825  0.83377  0.62509  1.0000
  C   C1004     1.0  0.26433  0.96087  0.45067  1.0000
  C   C1005     1.0  0.45490  0.74890  0.53082  1.0000
  H   H1703     1.0  0.21830  0.75702  0.56056  1.0000
  H   H1704     1.0  0.22292  0.77063  0.52597  1.0000
  H   H1705     1.0  0.04493  0.80492  0.55820  1.0000
  H   H1706     1.0  0.25038  0.94598  0.47533  1.0000
  C   C1006     1.0  0.24126  0.92745  0.58507  1.0000
  C   C1007     1.0  0.22210  0.93262  0.58334  1.0000
  C   C1008     1.0  0.21261  0.94773  0.59282  1.0000
  C   C1009     1.0  0.22221  0.95798  0.60391  1.0000
  C   C1010     1.0  0.24144  0.95297  0.60546  1.0000
  C   C1011     1.0  0.25087  0.93775  0.59612  1.0000
  H   H1707     1.0  0.21451  0.92479  0.57494  1.0000
  H   H1708     1.0  0.19774  0.95146  0.59155  1.0000
  H   H1709     1.0  0.24897  0.96068  0.61401  1.0000
  H   H1710     1.0  0.26568  0.93386  0.59759  1.0000
  C   C1012     1.0  0.17836  0.89366  0.39721  1.0000
  H   H1711     1.0  0.25139  0.81203  0.52980  1.0000
  C   C1013     1.0  0.46693  0.79473  0.51031  1.0000
  C   C1014     1.0  0.38461  0.74500  0.63814  1.0000
  H   H1712     1.0  0.00449  0.85038  0.35426  1.0000
  H   H1713     1.0  0.09765  0.79004  0.43997  1.0000
  C   C1015     1.0  0.02592  0.82702  0.35280  1.0000
  C   C1016     1.0  0.01885  0.84581  0.34922  1.0000
  H   H1714     1.0  0.02245  0.83213  0.60376  1.0000
  C   C1017     1.0  0.47065  0.81949  0.41094  1.0000
  H   H1715     1.0  0.07320  0.78993  0.44708  1.0000
  H   H1716     1.0  0.44230  0.76817  0.63481  1.0000
  H   H1717     1.0  0.48779  0.76105  0.53960  1.0000
  C   C1018     1.0  0.02424  0.80424  0.58222  1.0000
  H   H1718     1.0  0.00640  0.79114  0.63612  1.0000
  C   C1019     1.0  0.24379  0.92374  0.42692  1.0000
  C   C1020     1.0  0.25513  0.90956  0.43622  1.0000
  C   C1021     1.0  0.25061  0.90406  0.45516  1.0000
  C   C1022     1.0  0.23467  0.91276  0.46494  1.0000
  C   C1023     1.0  0.22319  0.92671  0.45552  1.0000
  C   C1024     1.0  0.22768  0.93214  0.43662  1.0000
  H   H1719     1.0  0.26768  0.90301  0.42883  1.0000
  H   H1720     1.0  0.25960  0.89336  0.46225  1.0000
  H   H1721     1.0  0.21083  0.93351  0.46299  1.0000
  H   H1722     1.0  0.21890  0.94312  0.42968  1.0000
  C   C1025     1.0  0.15529  0.95262  0.34788  1.0000
  H   H1723     1.0  0.42558  0.75251  0.52496  1.0000
  H   H1724     1.0  0.23276  0.90088  0.35872  1.0000
  H   H1725     1.0  0.02396  0.80613  0.40253  1.0000
  H   H1726     1.0  0.40860  0.77132  0.64106  1.0000
  C   C1026     1.0  0.13808  0.94488  0.35314  1.0000
  H   H1727     1.0  0.08288  0.81167  0.43831  1.0000
  H   H1728     1.0  0.22652  0.81703  0.53136  1.0000
  H   H1729     1.0  0.46791  0.79099  0.48090  1.0000
  N   N75       1.0  0.31230  0.87653  0.59016  1.0000
  C   C1027     1.0  0.32944  0.87265  0.60097  1.0000
  C   C1028     1.0  0.29813  0.88948  0.60102  1.0000
  C   C1029     1.0  0.31844  0.88610  0.57150  1.0000
  C   C1030     1.0  0.30504  0.85803  0.58788  1.0000
  C   C1031     1.0  0.34654  0.86093  0.59146  1.0000
  C   C1032     1.0  0.29020  0.88142  0.62026  1.0000
  C   C1033     1.0  0.30309  0.89768  0.56079  1.0000
  C   C1034     1.0  0.28594  0.85853  0.57971  1.0000
  H   H1730     1.0  0.33452  0.88600  0.60424  1.0000
  H   H1731     1.0  0.32598  0.86491  0.61461  1.0000
  H   H1732     1.0  0.28570  0.89425  0.59335  1.0000
  H   H1733     1.0  0.30437  0.90261  0.60305  1.0000
  H   H1734     1.0  0.32908  0.89598  0.57302  1.0000
  H   H1735     1.0  0.32564  0.87575  0.56198  1.0000
  H   H1736     1.0  0.31521  0.84954  0.57856  1.0000
  H   H1737     1.0  0.30433  0.84910  0.60118  1.0000
  H   H1738     1.0  0.35191  0.86754  0.57786  1.0000
  H   H1739     1.0  0.35835  0.85955  0.60047  1.0000
  H   H1740     1.0  0.34336  0.84650  0.58964  1.0000
  H   H1741     1.0  0.22727  0.96708  0.44953  1.0000
  H   H1742     1.0  0.28346  0.86842  0.61932  1.0000
  H   H1743     1.0  0.21160  0.87475  0.40703  1.0000
  H   H1744     1.0  0.29104  0.88982  0.55913  1.0000
  H   H1745     1.0  0.30926  0.90188  0.54655  1.0000
  H   H1746     1.0  0.29789  0.91080  0.56750  1.0000
  H   H1747     1.0  0.28785  0.85914  0.56430  1.0000
  H   H1748     1.0  0.27549  0.87005  0.58420  1.0000
  H   H1749     1.0  0.27929  0.84557  0.58472  1.0000
  H   H1750     1.0  0.17995  0.87833  0.39549  1.0000
  H   H1751     1.0  0.27903  0.89178  0.62615  1.0000
  H   H1752     1.0  0.17473  0.96212  0.65005  1.0000
  H   H1753     1.0  0.47442  0.81110  0.42380  1.0000
  H   H1754     1.0  0.20085  0.90420  0.43593  1.0000
  C   C1035     1.0  0.05588  0.83440  0.33622  1.0000
  H   H1755     1.0  0.02446  0.87318  0.33636  1.0000
  N   N76       1.0  0.00613  0.81364  0.59118  1.0000
  H   H1756     1.0  0.02267  0.78954  0.57966  1.0000
  H   H1757     1.0  0.23067  0.91463  0.37832  1.0000
  C   C1036     1.0  0.19644  0.92152  0.39892  1.0000
  S   S311      1.0  0.07958  0.76365  0.57760  1.0000
  C   C1037     1.0  0.01780  0.75084  0.58978  1.0000
  H   H1758     1.0  0.46905  0.82490  0.37500  1.0000
  H   H1759     1.0  0.41535  0.75748  0.62192  1.0000
  H   H1760     1.0  0.11253  0.93617  0.34415  1.0000
  H   H1761     1.0  0.46066  0.81127  0.40497  1.0000
  C   C1038     1.0  0.23836  0.80219  0.50770  1.0000
  H   H1762     1.0  0.06431  0.83046  0.41833  1.0000
  H   H1763     1.0  0.09370  0.79478  0.40805  1.0000
  S   S312      1.0  0.99577  0.76024  0.36355  1.0000
  H   H1764     1.0  0.02691  0.79353  0.62041  1.0000
  H   H1765     1.0  0.48406  0.78208  0.41122  1.0000
  H   H1766     1.0  0.41197  0.89554  0.65479  1.0000
  S   S313      1.0  0.06343  0.92476  0.32441  1.0000
  H   H1767     1.0  0.19803  0.76064  0.54772  1.0000
  H   H1768     1.0  0.17508  0.91926  0.42406  1.0000
  H   H1769     1.0  0.26691  0.96752  0.54524  1.0000
  H   H1770     1.0  0.24451  0.81035  0.58202  1.0000
  N   N77       1.0  0.25330  0.97991  0.44883  1.0000
  H   H1771     1.0  0.16154  0.97690  0.62451  1.0000
  H   H1772     1.0  0.45400  0.76427  0.53208  1.0000
  H   H1773     1.0  0.07936  0.77697  0.41690  1.0000
  C   C1039     1.0  0.20134  0.89005  0.43091  1.0000
  H   H1774     1.0  0.24623  0.97558  0.42122  1.0000
  C   C1040     1.0  0.20880  0.76788  0.55363  1.0000
  C   C1041     1.0  0.06123  0.79428  0.39058  1.0000
  H   H1775     1.0  0.22338  0.89480  0.40982  1.0000
  C   C1042     1.0  0.23242  0.79620  0.56138  1.0000
  C   C1043     1.0  0.18094  0.92951  0.41349  1.0000
  H   H1776     1.0  0.25027  0.79202  0.50310  1.0000
  C   C1044     1.0  0.08033  0.79227  0.41670  1.0000
  C   C1045     1.0  0.47617  0.79251  0.49230  1.0000
  C   C1046     1.0  0.03221  0.81377  0.56368  1.0000
  H   H1777     1.0  0.24029  0.81553  0.49923  1.0000
  C   C1047     1.0  0.04877  0.85318  0.33249  1.0000
  N   N78       1.0  0.23586  0.78900  0.54223  1.0000
  H   H1778     1.0  0.25918  0.95110  0.44168  1.0000
  C   C1048     1.0  0.25371  0.77598  0.53998  1.0000
  C   C1049     1.0  0.12571  0.94202  0.33980  1.0000
  C   C1050     1.0  0.45545  0.84326  0.65091  1.0000
  H   H1779     1.0  0.07475  0.78876  0.36301  1.0000
  H   H1780     1.0  0.25543  0.77045  0.52596  1.0000
  H   H1781     1.0  0.27059  0.75419  0.55518  1.0000
  C   C1051     1.0  0.07868  0.79342  0.37620  1.0000
  H   H1782     1.0  0.13418  0.94119  0.36769  1.0000
  H   H1783     1.0  0.22420  0.97874  0.55415  1.0000
  C   C1052     1.0  0.20916  0.88970  0.41033  1.0000
  C   C1053     1.0  0.23808  0.80575  0.52848  1.0000
  H   H1784     1.0  0.46598  0.85185  0.64405  1.0000
  H   H1785     1.0  0.18742  0.88447  0.43376  1.0000
  H   H1786     1.0  0.99503  0.79825  0.55421  1.0000
  H   H1787     1.0  0.02696  0.82567  0.41598  1.0000
  H   H1788     1.0  0.21024  0.92529  0.40250  1.0000
  H   H1789     1.0  0.02215  0.81514  0.55289  1.0000
  H   H1790     1.0  0.17008  0.89855  0.36848  1.0000
  C   C1054     1.0  0.03014  0.85880  0.33907  1.0000
  H   H1791     1.0  0.05384  0.74915  0.55495  1.0000
  C   C1055     1.0  0.02743  0.81024  0.41605  1.0000
  H   H1792     1.0  0.03689  0.82761  0.56558  1.0000
  C   C1056     1.0  0.25174  0.96772  0.54330  1.0000
  C   C1057     1.0  0.06721  0.82341  0.40508  1.0000
  H   H1793     1.0  0.04022  0.74896  0.43475  1.0000
  C   C1058     1.0  0.05603  0.75796  0.58224  1.0000
  N   N79       1.0  0.19750  0.90087  0.39626  1.0000
  H   H1794     1.0  0.27945  0.96166  0.44560  1.0000
  H   H1795     1.0  0.99835  0.78733  0.60497  1.0000
  H   H1796     1.0  0.04273  0.83074  0.38753  1.0000
  H   H1797     1.0  0.27985  0.97251  0.41453  1.0000
  H   H1798     1.0  0.04361  0.75269  0.46800  1.0000
  H   H1799     1.0  0.19401  0.92977  0.38556  1.0000
  N   N80       1.0  0.48764  0.82204  0.39717  1.0000
  C   C1059     1.0  0.23326  0.97781  0.45675  1.0000
  H   H1800     1.0  0.20091  0.77694  0.56407  1.0000
  H   H1801     1.0  0.24927  0.97255  0.52874  1.0000
  H   H1802     1.0  0.04468  0.78543  0.42492  1.0000
  H   H1803     1.0  0.40655  0.86376  0.64957  1.0000
  H   H1804     1.0  0.45922  0.74671  0.51595  1.0000
  H   H1805     1.0  0.13946  0.95559  0.62876  1.0000
  Fe  Fe156     1.0  0.09765  0.75463  0.55142  1.0000
  C   C1060     1.0  0.99974  0.80183  0.60836  1.0000
  H   H1806     1.0  0.24932  0.76121  0.56809  1.0000
  H   H1807     1.0  0.20786  0.79033  0.53305  1.0000
  H   H1808     1.0  0.18870  0.98112  0.65254  1.0000
  H   H1809     1.0  0.04796  0.80621  0.43537  1.0000
  H   H1810     1.0  0.05313  0.84993  0.39456  1.0000
  H   H1811     1.0  0.22906  0.78507  0.57231  1.0000
  C   C1061     1.0  0.02732  0.75707  0.60367  1.0000
  C   C1062     1.0  0.21904  0.77967  0.53779  1.0000
  C   C1063     1.0  0.16000  0.95737  0.32897  1.0000
  C   C1064     1.0  0.22815  0.90090  0.37384  1.0000
  H   H1812     1.0  0.19999  0.90654  0.36620  1.0000
  C   C1065     1.0  0.16531  0.90297  0.38265  1.0000
  H   H1813     1.0  0.22484  0.79766  0.50432  1.0000
  C   C1066     1.0  0.05634  0.83545  0.39014  1.0000
  H   H1814     1.0  0.06536  0.83685  0.37677  1.0000
  H   H1815     1.0  0.05007  0.80696  0.34847  1.0000
  H   H1816     1.0  0.05751  0.77968  0.39379  1.0000
  H   H1817     1.0  0.01364  0.81384  0.63004  1.0000
  H   H1818     1.0  0.21966  0.80651  0.56216  1.0000
  H   H1819     1.0  0.27458  0.93847  0.47021  1.0000
  C   C1067     1.0  0.04658  0.75130  0.56856  1.0000
  H   H1820     1.0  0.05366  0.76573  0.61054  1.0000
  H   H1821     1.0  0.23726  0.88969  0.38096  1.0000
  N   N81       1.0  0.06356  0.80307  0.40830  1.0000
  C   C1068     1.0  0.27329  0.98667  0.41779  1.0000
  H   H1822     1.0  0.04926  0.80132  0.38333  1.0000
  C   C1069     1.0  0.47737  0.79660  0.52528  1.0000
  C   C1070     1.0  0.20714  0.89743  0.37710  1.0000
  H   H1823     1.0  0.20622  0.88276  0.37371  1.0000
  H   H1824     1.0  0.08424  0.80721  0.37305  1.0000
  H   H1825     1.0  0.30108  0.87901  0.63028  1.0000
  C   C1071     1.0  0.41496  0.75725  0.63734  1.0000
  H   H1826     1.0  0.08243  0.82452  0.40056  1.0000
  C   C1072     1.0  0.05405  0.74707  0.43980  1.0000
  C   C1073     1.0  0.04452  0.82138  0.34617  1.0000
  C   C1074     1.0  0.08346  0.79647  0.43665  1.0000
  C   C1075     1.0  0.24880  0.80549  0.56791  1.0000
  C   C1076     1.0  0.05603  0.74919  0.45867  1.0000
  H   H1827     1.0  0.15088  0.89860  0.38617  1.0000
  H   H1828     1.0  0.25223  0.81801  0.55885  1.0000
  H   H1829     1.0  0.21118  0.88095  0.43948  1.0000
  H   H1830     1.0  0.08999  0.78285  0.38086  1.0000
  Fe  Fe157     1.0  0.99859  0.74490  0.39157  1.0000
  H   H1831     1.0  0.44799  0.83382  0.42824  1.0000
  H   H1832     1.0  0.26652  0.78353  0.54005  1.0000
  H   H1833     1.0  0.02642  0.79368  0.33032  1.0000
  C   C1077     1.0  0.26424  0.95111  0.47047  1.0000
  C   C1078     1.0  0.25353  0.98557  0.42828  1.0000
  H   H1834     1.0  0.45245  0.84591  0.40607  1.0000
  C   C1079     1.0  0.37195  0.76299  0.64287  1.0000
  C   C1080     1.0  0.43177  0.82170  0.64864  1.0000
  H   H1835     1.0  0.27111  0.97338  0.57625  1.0000
  H   H1836     1.0  0.12008  0.97251  0.63556  1.0000
  H   H1837     1.0  0.26167  0.79559  0.56890  1.0000
  Fe  Fe158     1.0  0.04110  0.74700  0.38879  1.0000
  Fe  Fe159     1.0  0.23762  0.97935  0.34988  1.0000
  Fe  Fe160     1.0  0.09801  0.74802  0.50992  1.0000
  H   H1838     1.0  0.13644  0.96197  0.65180  1.0000
  C   C1081     1.0  0.00967  0.83283  0.59604  1.0000
  H   H1839     1.0  0.24818  0.95299  0.54551  1.0000
  H   H1840     1.0  0.99733  0.85766  0.60965  1.0000
  C   C1082     1.0  0.01259  0.80019  0.62444  1.0000
  H   H1841     1.0  0.20493  0.99154  0.46128  1.0000
  S   S314      1.0  0.24817  0.98189  0.37776  1.0000
  H   H1842     1.0  0.24890  0.74685  0.54881  1.0000
  C   C1083     1.0  0.25541  0.75860  0.55381  1.0000
  H   H1843     1.0  0.27789  0.98993  0.45823  1.0000
  C   C1084     1.0  0.45942  0.83761  0.41748  1.0000
  H   H1844     1.0  0.23264  0.97277  0.47170  1.0000
  C   C1085     1.0  0.14783  0.98340  0.63091  1.0000
  C   C1086     1.0  0.23899  0.97954  0.55730  1.0000
  H   H1845     1.0  0.14140  0.99114  0.61883  1.0000
  H   H1846     1.0  0.46833  0.84636  0.42409  1.0000
  C   C1087     1.0  0.13509  0.96769  0.63733  1.0000
  H   H1847     1.0  0.37854  0.77587  0.63763  1.0000
  H   H1848     1.0  0.25764  0.99147  0.47456  1.0000
  H   H1849     1.0  0.07023  0.82986  0.33115  1.0000
  H   H1850     1.0  0.49061  0.79762  0.38094  1.0000
  H   H1851     1.0  0.48782  0.75426  0.50697  1.0000
  C   C1088     1.0  0.07387  0.74682  0.46558  1.0000
  C   C1089     1.0  0.02759  0.74769  0.57236  1.0000
  C   C1090     1.0  0.26977  0.98847  0.57869  1.0000
  C   C1091     1.0  0.48804  0.74602  0.53701  1.0000
  H   H1852     1.0  0.35872  0.76339  0.63597  1.0000
  C   C1092     1.0  0.43565  0.75596  0.64203  1.0000
  H   H1853     1.0  0.26042  0.99087  0.59155  1.0000
  H   H1854     1.0  0.38699  0.74507  0.62269  1.0000
  H   H1855     1.0  0.28396  0.99196  0.58134  1.0000
  C   C1093     1.0  0.26227  0.99328  0.45943  1.0000
  H   H1856     1.0  0.49040  0.74435  0.57558  1.0000
  H   H1857     1.0  0.42832  0.74480  0.54853  1.0000
  C   C1094     1.0  0.46378  0.74445  0.56282  1.0000
  S   S315      1.0  0.12861  0.74474  0.55220  1.0000
  H   H1858     1.0  0.28287  0.99354  0.42553  1.0000
  H   H1859     1.0  0.43678  0.75677  0.65707  1.0000
  C   C1095     1.0  0.47257  0.78697  0.79830  1.0000
  S   S316      1.0  0.45923  0.87126  0.76711  1.0000
  Fe  Fe161     1.0  0.46345  0.86077  0.71466  1.0000
  S   S317      1.0  0.44076  0.85066  0.73554  1.0000
  S   S318      1.0  0.46519  0.85596  0.68336  1.0000
  Fe  Fe162     1.0  0.43852  0.87966  0.74587  1.0000
  S   S319      1.0  0.40992  0.89665  0.75046  1.0000
  Fe  Fe163     1.0  0.46372  0.84335  0.75486  1.0000
  H   H1860     1.0  0.36825  0.91547  0.70668  1.0000
  S   S320      1.0  0.46008  0.89026  0.72412  1.0000
  Fe  Fe164     1.0  0.46069  0.75081  0.86639  1.0000
  S   S321      1.0  0.45199  0.77986  0.85298  1.0000
  H   H1861     1.0  0.33468  0.97604  0.85345  1.0000
  C   C1096     1.0  0.46501  0.80523  0.79297  1.0000
  C   C1097     1.0  0.45365  0.81549  0.80617  1.0000
  C   C1098     1.0  0.44989  0.80752  0.82446  1.0000
  C   C1099     1.0  0.45734  0.78920  0.82976  1.0000
  H   H1862     1.0  0.44763  0.82950  0.80229  1.0000
  H   H1863     1.0  0.44100  0.81553  0.83455  1.0000
  C   C1100     1.0  0.00972  0.93803  0.96309  1.0000
  H   H1864     1.0  0.44941  0.89362  0.68620  1.0000
  S   S322      1.0  0.47071  0.81459  0.76981  1.0000
  H   H1865     1.0  0.41641  0.92162  0.67411  1.0000
  H   H1866     1.0  0.40482  0.85654  0.67353  1.0000
  H   H1867     1.0  0.45701  0.75050  0.98190  1.0000
  H   H1868     1.0  0.11474  0.98685  0.66350  1.0000
  C   C1101     1.0  0.40473  0.96003  0.75721  1.0000
  C   C1102     1.0  0.42232  0.94937  0.75765  1.0000
  C   C1103     1.0  0.42414  0.93004  0.75530  1.0000
  C   C1104     1.0  0.40829  0.92110  0.75273  1.0000
  C   C1105     1.0  0.39067  0.93174  0.75226  1.0000
  C   C1106     1.0  0.38890  0.95116  0.75435  1.0000
  H   H1869     1.0  0.43465  0.95607  0.75987  1.0000
  H   H1870     1.0  0.43776  0.92201  0.75573  1.0000
  H   H1871     1.0  0.37834  0.92494  0.75025  1.0000
  H   H1872     1.0  0.37531  0.95922  0.75379  1.0000
  Fe  Fe165     1.0  0.48133  0.88040  0.74470  1.0000
  C   C1107     1.0  0.46877  0.77898  0.81657  1.0000
  H   H1873     1.0  0.39746  0.75916  0.67029  1.0000
  C   C1108     1.0  0.41529  0.74949  0.93877  1.0000
  H   H1874     1.0  0.32781  0.97945  0.83056  1.0000
  H   H1875     1.0  0.45050  0.91803  0.68053  1.0000
  C   C1109     1.0  0.38375  0.91170  0.70545  1.0000
  H   H1876     1.0  0.00255  0.91030  0.97124  1.0000
  H   H1877     1.0  0.42088  0.91606  0.69774  1.0000
  S   S323      1.0  0.40339  0.98416  0.76095  1.0000
  H   H1878     1.0  0.42879  0.87856  0.66466  1.0000
  H   H1879     1.0  0.48025  0.84255  0.79934  1.0000
  H   H1880     1.0  0.40890  0.85150  0.70923  1.0000
  C   C1110     1.0  0.17671  0.97353  0.65882  1.0000
  H   H1881     1.0  0.35947  0.93671  0.78577  1.0000
  C   C1111     1.0  0.42178  0.91003  0.68396  1.0000
  H   H1882     1.0  0.39259  0.98264  0.82546  1.0000
  H   H1883     1.0  0.36106  0.98358  0.83163  1.0000
  H   H1884     1.0  0.18085  0.96686  0.67237  1.0000
  H   H1885     1.0  0.38628  0.91195  0.67549  1.0000
  H   H1886     1.0  0.35505  0.98686  0.80033  1.0000
  C   C1112     1.0  0.46715  0.75422  0.94443  1.0000
  N   N82       1.0  0.40997  0.89370  0.68489  1.0000
  C   C1113     1.0  0.35463  0.97172  0.79858  1.0000
  H   H1887     1.0  0.33105  0.95598  0.84206  1.0000
  H   H1888     1.0  0.36532  0.93208  0.82785  1.0000
  C   C1114     1.0  0.39314  0.97810  0.81113  1.0000
  C   C1115     1.0  0.38960  0.90172  0.68740  1.0000
  H   H1889     1.0  0.14823  0.97816  0.67049  1.0000
  H   H1890     1.0  0.46001  0.98663  0.77256  1.0000
  H   H1891     1.0  0.33372  0.96201  0.78227  1.0000
  H   H1892     1.0  0.38915  0.86535  0.70085  1.0000
  H   H1893     1.0  0.47464  0.76491  0.82043  1.0000
  H   H1894     1.0  0.00544  0.80161  0.88480  1.0000
  H   H1895     1.0  0.45643  0.98650  0.79755  1.0000
  C   C1116     1.0  0.41559  0.88004  0.70078  1.0000
  S   S324      1.0  0.00201  0.98367  0.98202  1.0000
  H   H1896     1.0  0.99563  0.94506  0.96751  1.0000
  C   C1117     1.0  0.33654  0.96985  0.83975  1.0000
  H   H1897     1.0  0.02711  0.91199  0.96793  1.0000
  H   H1898     1.0  0.42921  0.87185  0.69677  1.0000
  S   S325      1.0  0.38504  0.76736  0.98572  1.0000
  C   C1118     1.0  0.44302  0.90586  0.67805  1.0000
  H   H1899     1.0  0.44925  0.77954  0.93739  1.0000
  H   H1900     1.0  0.36565  0.96127  0.84382  1.0000
  C   C1119     1.0  0.01367  0.91907  0.97419  1.0000
  H   H1901     1.0  0.48736  0.87705  0.79288  1.0000
  H   H1902     1.0  0.39036  0.92496  0.70540  1.0000
  H   H1903     1.0  0.40156  0.77543  0.94864  1.0000
  C   C1120     1.0  0.33405  0.96883  0.79543  1.0000
  H   H1904     1.0  0.02072  0.94755  0.96405  1.0000
  H   H1905     1.0  0.39158  0.94935  0.82115  1.0000
  S   S326      1.0  0.48688  0.85196  0.73329  1.0000
  S   S327      1.0  0.46647  0.74870  0.89671  1.0000
  C   C1121     1.0  0.38458  0.95939  0.81083  1.0000
  H   H1906     1.0  0.34333  0.93889  0.81957  1.0000
  N   N83       1.0  0.36333  0.96006  0.81437  1.0000
  H   H1907     1.0  0.38678  0.87328  0.66387  1.0000
  H   H1908     1.0  0.36323  0.96921  0.78517  1.0000
  C   C1122     1.0  0.45576  0.77271  0.94984  1.0000
  H   H1909     1.0  0.32611  0.96101  0.80678  1.0000
  H   H1910     1.0  0.44393  0.77029  0.96060  1.0000
  H   H1911     1.0  0.43581  0.83022  0.69403  1.0000
  C   C1123     1.0  0.40147  0.86584  0.70870  1.0000
  C   C1124     1.0  0.39887  0.75284  0.96986  1.0000
  H   H1912     1.0  0.44573  0.90366  0.66299  1.0000
  C   C1125     1.0  0.45214  0.84244  0.67047  1.0000
  H   H1913     1.0  0.48141  0.77893  0.78821  1.0000
  C   C1126     1.0  0.36443  0.92910  0.79856  1.0000
  C   C1127     1.0  0.41386  0.88477  0.66658  1.0000
  H   H1914     1.0  0.41964  0.75566  0.92510  1.0000
  C   C1128     1.0  0.35855  0.94006  0.81602  1.0000
  H   H1915     1.0  0.36786  0.76334  0.65802  1.0000
  C   C1129     1.0  0.15851  0.98675  0.66227  1.0000
  H   H1916     1.0  0.47159  0.87197  0.81275  1.0000
  C   C1130     1.0  0.42839  0.82095  0.66820  1.0000
  H   H1917     1.0  0.41792  0.81231  0.67507  1.0000
  H   H1918     1.0  0.41850  0.88768  0.71274  1.0000
  H   H1919     1.0  0.38708  0.90265  0.71804  1.0000
  C   C1131     1.0  0.43848  0.83118  0.67904  1.0000
  H   H1920     1.0  0.38952  0.95420  0.79693  1.0000
  C   C1132     1.0  0.35760  0.96880  0.83259  1.0000
  C   C1133     1.0  0.40207  0.86879  0.66360  1.0000
  H   H1921     1.0  0.37995  0.92561  0.79652  1.0000
  H   H1922     1.0  0.46473  0.78277  0.95442  1.0000
  H   H1923     1.0  0.40825  0.97629  0.80572  1.0000
  H   H1924     1.0  0.32581  0.98270  0.79354  1.0000
  H   H1925     1.0  0.35809  0.91558  0.80036  1.0000
  C   C1134     1.0  0.40501  0.76066  0.95214  1.0000
  H   H1926     1.0  0.00968  0.93563  0.94815  1.0000
  H   H1927     1.0  0.37966  0.89106  0.68706  1.0000
  H   H1928     1.0  0.39632  0.86855  0.72333  1.0000
  H   H1929     1.0  0.48394  0.76590  0.97561  1.0000
  H   H1930     1.0  0.38619  0.98924  0.80204  1.0000
  H   H1931     1.0  0.35075  0.74693  0.98552  1.0000
  H   H1932     1.0  0.47689  0.75771  0.93192  1.0000
  C   C1135     1.0  0.49141  0.75635  0.96533  1.0000
  C   C1136     1.0  0.48648  0.86942  0.80678  1.0000
  H   H1933     1.0  0.49018  0.84264  0.82086  1.0000
  C   C1137     1.0  0.49158  0.84818  0.80607  1.0000
  H   H1934     1.0  0.01070  0.87824  0.98805  1.0000
  H   H1935     1.0  0.99577  0.78785  0.86946  1.0000
  H   H1936     1.0  0.45673  0.74566  0.93973  1.0000
  H   H1937     1.0  0.99564  0.98435  0.68325  1.0000
  H   H1938     1.0  0.04926  0.93018  0.97473  1.0000
  C   C1138     1.0  0.04848  0.92872  0.99012  1.0000
  H   H1939     1.0  0.43743  0.99415  0.78443  1.0000
  C   C1139     1.0  0.40120  0.74424  0.66719  1.0000
  Fe  Fe166     1.0  0.85390  0.10319  0.11681  1.0000
  S   S328      1.0  0.86658  0.12222  0.09403  1.0000
  S   S329      1.0  0.82473  0.09216  0.11836  1.0000
  Fe  Fe167     1.0  0.88880  0.10146  0.13930  1.0000
  S   S330      1.0  0.90406  0.12033  0.11757  1.0000
  S   S331      1.0  0.90236  0.08544  0.16404  1.0000
  Fe  Fe168     1.0  0.87605  0.13779  0.11661  1.0000
  S   S332      1.0  0.86905  0.16966  0.11689  1.0000
  Fe  Fe169     1.0  0.89361  0.10332  0.09658  1.0000
  S   S333      1.0  0.90962  0.09562  0.06892  1.0000
  S   S334      1.0  0.86145  0.11983  0.13966  1.0000
  S   S335      1.0  0.88028  0.08340  0.11813  1.0000
  Fe  Fe170     1.0  0.97021  0.00826  0.02164  1.0000
  S   S336      1.0  0.95251  0.01685  0.04824  1.0000
  H   H1940     1.0  0.83852  0.04034  0.09629  1.0000
  Fe  Fe171     1.0  0.91358  0.08338  0.27509  1.0000
  S   S337      1.0  0.90951  0.05390  0.28673  1.0000
  S   S338      1.0  0.89905  0.09921  0.25076  1.0000
  Fe  Fe172     1.0  0.93537  0.09159  0.30832  1.0000
  H   H1941     1.0  0.64428  0.99875  0.29345  1.0000
  H   H1942     1.0  0.85879  0.11117  0.25500  1.0000
  Fe  Fe173     1.0  0.93999  0.05202  0.29353  1.0000
  S   S339      1.0  0.96305  0.02874  0.28453  1.0000
  Fe  Fe174     1.0  0.90235  0.06656  0.31429  1.0000
  C   C1140     1.0  0.84741  0.22150  0.08393  1.0000
  S   S340      1.0  0.94427  0.08089  0.27999  1.0000
  S   S341      1.0  0.90494  0.09617  0.30250  1.0000
  S   S342      1.0  0.92450  0.23241  0.08846  1.0000
  S   S343      1.0  0.51073  0.10096  0.28401  1.0000
  H   H1943     1.0  0.69906  0.18459  0.01378  1.0000
  S   S344      1.0  0.61023  0.02468  0.26723  1.0000
  Fe  Fe175     1.0  0.63269  0.01541  0.21702  1.0000
  S   S345      1.0  0.63389  0.04236  0.22995  1.0000
  S   S346      1.0  0.64790  0.00832  0.18874  1.0000
  Fe  Fe176     1.0  0.64088  0.02440  0.25599  1.0000
  S   S347      1.0  0.66890  0.02711  0.26828  1.0000
  Fe  Fe177     1.0  0.60322  0.04002  0.24007  1.0000
  S   S348      1.0  0.57879  0.06171  0.23346  1.0000
  H   H1944     1.0  0.82489  0.04813  0.07679  1.0000
  S   S349      1.0  0.60166  0.01402  0.22536  1.0000
  H   H1945     1.0  0.74021  0.13949  0.04906  1.0000
  S   S350      1.0  0.60919  0.21916  0.02752  1.0000
  H   H1946     1.0  0.70698  0.05191  0.18186  1.0000
  Fe  Fe178     1.0  0.63863  0.21669  0.03654  1.0000
  S   S351      1.0  0.65291  0.19242  0.05444  1.0000
  H   H1947     1.0  0.72458  0.05860  0.20207  1.0000
  Fe  Fe179     1.0  0.73232  0.07359  0.06863  1.0000
  S   S352      1.0  0.70605  0.08892  0.08197  1.0000
  S   S353      1.0  0.76052  0.08678  0.06386  1.0000
  Fe  Fe180     1.0  0.70995  0.04265  0.05621  1.0000
  S   S354      1.0  0.68220  0.05604  0.06920  1.0000
  S   S355      1.0  0.71525  0.01469  0.04167  1.0000
  Fe  Fe181     1.0  0.69199  0.08361  0.05702  1.0000
  S   S356      1.0  0.67205  0.10530  0.04187  1.0000
  Fe  Fe182     1.0  0.69792  0.06052  0.09375  1.0000
  S   S357      1.0  0.68456  0.06267  0.12387  1.0000
  S   S358      1.0  0.71866  0.07002  0.04249  1.0000
  S   S359      1.0  0.72529  0.04541  0.08185  1.0000
  H   H1948     1.0  0.98998  0.09206  0.27418  1.0000
  C   C1141     1.0  0.65799  0.16824  0.05062  1.0000
  C   C1142     1.0  0.66880  0.15664  0.06304  1.0000
  C   C1143     1.0  0.67335  0.13742  0.06053  1.0000
  C   C1144     1.0  0.66682  0.12946  0.04572  1.0000
  C   C1145     1.0  0.65587  0.14099  0.03341  1.0000
  C   C1146     1.0  0.65161  0.16029  0.03573  1.0000
  H   H1949     1.0  0.67382  0.16265  0.07460  1.0000
  H   H1950     1.0  0.68187  0.12880  0.07006  1.0000
  H   H1951     1.0  0.65073  0.13501  0.02190  1.0000
  H   H1952     1.0  0.64326  0.16899  0.02609  1.0000
  C   C1147     1.0  0.65673  0.02377  0.17019  1.0000
  C   C1148     1.0  0.66683  0.01622  0.15437  1.0000
  C   C1149     1.0  0.67501  0.02787  0.13978  1.0000
  C   C1150     1.0  0.67332  0.04726  0.14094  1.0000
  C   C1151     1.0  0.66299  0.05483  0.15664  1.0000
  C   C1152     1.0  0.65464  0.04320  0.17111  1.0000
  H   H1953     1.0  0.54391  0.16320  0.18966  1.0000
  H   H1954     1.0  0.68293  0.02181  0.12785  1.0000
  H   H1955     1.0  0.66155  0.06980  0.15769  1.0000
  H   H1956     1.0  0.64679  0.04924  0.18308  1.0000
  C   C1153     1.0  0.52861  0.08769  0.27056  1.0000
  C   C1154     1.0  0.52633  0.08326  0.25253  1.0000
  C   C1155     1.0  0.54162  0.07443  0.24163  1.0000
  C   C1156     1.0  0.55921  0.06965  0.24873  1.0000
  C   C1157     1.0  0.56118  0.07313  0.26710  1.0000
  C   C1158     1.0  0.54596  0.08218  0.27791  1.0000
  H   H1957     1.0  0.51297  0.08714  0.24680  1.0000
  H   H1958     1.0  0.53996  0.07175  0.22744  1.0000
  H   H1959     1.0  0.57467  0.06967  0.27269  1.0000
  H   H1960     1.0  0.54782  0.08546  0.29189  1.0000
  H   H1961     1.0  0.68668  0.02454  0.01454  1.0000
  H   H1962     1.0  0.55957  0.20494  0.02447  1.0000
  H   H1963     1.0  0.72304  0.01265  0.17104  1.0000
  H   H1964     1.0  0.70634  0.02463  0.27997  1.0000
  C   C1159     1.0  0.97762  0.00927  0.29414  1.0000
  H   H1965     1.0  0.61179  0.00427  0.30442  1.0000
  Fe  Fe183     1.0  0.60972  0.99865  0.25199  1.0000
  C   C1160     1.0  0.98971  0.07078  0.29724  1.0000
  H   H1966     1.0  0.51473  0.12202  0.24332  1.0000
  C   C1161     1.0  0.69666  0.02580  0.29238  1.0000
  C   C1162     1.0  0.67707  0.02719  0.29084  1.0000
  C   C1163     1.0  0.66481  0.02877  0.30709  1.0000
  H   H1967     1.0  0.66850  0.00122  0.15346  1.0000
  C   C1164     1.0  0.69459  0.01147  0.01107  1.0000
  H   H1968     1.0  0.64973  0.03009  0.30622  1.0000
  Fe  Fe184     1.0  0.62178  0.23152  0.00001  1.0000
  H   H1969     1.0  0.82864  0.02395  0.08392  1.0000
  C   C1165     1.0  0.89050  0.02612  0.05013  1.0000
  C   C1166     1.0  0.70522  0.17147  0.00749  1.0000
  S   S360      1.0  0.51314  0.23300  0.10389  1.0000
  C   C1167     1.0  0.56021  0.12013  0.23392  1.0000
  C   C1168     1.0  0.92272  0.07404  0.06384  1.0000
  C   C1169     1.0  0.92453  0.05900  0.07723  1.0000
  C   C1170     1.0  0.93389  0.04167  0.07223  1.0000
  C   C1171     1.0  0.94173  0.03924  0.05387  1.0000
  C   C1172     1.0  0.94024  0.05437  0.04056  1.0000
  C   C1173     1.0  0.93073  0.07165  0.04553  1.0000
  H   H1970     1.0  0.91857  0.06067  0.09140  1.0000
  H   H1971     1.0  0.93501  0.03006  0.08264  1.0000
  H   H1972     1.0  0.94619  0.05270  0.02639  1.0000
  H   H1973     1.0  0.92942  0.08321  0.03506  1.0000
  C   C1174     1.0  0.80752  0.09018  0.10261  1.0000
  C   C1175     1.0  0.79065  0.08258  0.10954  1.0000
  C   C1176     1.0  0.77625  0.08122  0.09789  1.0000
  C   C1177     1.0  0.77848  0.08754  0.07910  1.0000
  C   C1178     1.0  0.79538  0.09514  0.07214  1.0000
  C   C1179     1.0  0.80984  0.09640  0.08377  1.0000
  H   H1974     1.0  0.78867  0.07772  0.12407  1.0000
  H   H1975     1.0  0.76338  0.07536  0.10349  1.0000
  H   H1976     1.0  0.79729  0.10005  0.05762  1.0000
  H   H1977     1.0  0.82271  0.10223  0.07816  1.0000
  C   C1180     1.0  0.90109  0.08958  0.18813  1.0000
  C   C1181     1.0  0.91144  0.07696  0.20010  1.0000
  C   C1182     1.0  0.91102  0.07964  0.21925  1.0000
  C   C1183     1.0  0.90021  0.09503  0.22671  1.0000
  C   C1184     1.0  0.88971  0.10758  0.21480  1.0000
  C   C1185     1.0  0.89015  0.10491  0.19563  1.0000
  H   H1978     1.0  0.91995  0.06505  0.19448  1.0000
  H   H1979     1.0  0.91916  0.06985  0.22818  1.0000
  H   H1980     1.0  0.88135  0.11958  0.22037  1.0000
  H   H1981     1.0  0.88216  0.11477  0.18665  1.0000
  C   C1186     1.0  0.88515  0.18671  0.10978  1.0000
  C   C1187     1.0  0.88071  0.20517  0.11505  1.0000
  C   C1188     1.0  0.89273  0.21926  0.10902  1.0000
  C   C1189     1.0  0.90917  0.21514  0.09731  1.0000
  C   C1190     1.0  0.91362  0.19669  0.09213  1.0000
  C   C1191     1.0  0.90177  0.18255  0.09836  1.0000
  H   H1982     1.0  0.86803  0.20851  0.12407  1.0000
  H   H1983     1.0  0.88945  0.23321  0.11361  1.0000
  H   H1984     1.0  0.92639  0.19326  0.08323  1.0000
  H   H1985     1.0  0.90544  0.16845  0.09419  1.0000
  N   N84       1.0  0.63412  0.09281  0.09401  1.0000
  C   C1192     1.0  0.64885  0.10660  0.09096  1.0000
  C   C1193     1.0  0.63102  0.08717  0.07501  1.0000
  C   C1194     1.0  0.64224  0.07605  0.10551  1.0000
  C   C1195     1.0  0.61658  0.10212  0.10406  1.0000
  C   C1196     1.0  0.65613  0.11294  0.10856  1.0000
  C   C1197     1.0  0.62200  0.10279  0.06188  1.0000
  C   C1198     1.0  0.63046  0.05924  0.10944  1.0000
  C   C1199     1.0  0.59798  0.09295  0.10382  1.0000
  H   H1986     1.0  0.66152  0.10074  0.08228  1.0000
  H   H1987     1.0  0.64345  0.11965  0.08313  1.0000
  H   H1988     1.0  0.62215  0.07545  0.07570  1.0000
  H   H1989     1.0  0.64466  0.08160  0.06767  1.0000
  H   H1990     1.0  0.65618  0.07066  0.09877  1.0000
  H   H1991     1.0  0.64487  0.07997  0.11948  1.0000
  H   H1992     1.0  0.61875  0.10317  0.11893  1.0000
  H   H1993     1.0  0.61386  0.11690  0.09834  1.0000
  H   H1994     1.0  0.66527  0.10159  0.11544  1.0000
  H   H1995     1.0  0.66512  0.12451  0.10438  1.0000
  H   H1996     1.0  0.64457  0.11837  0.11862  1.0000
  H   H1997     1.0  0.63137  0.11399  0.05777  1.0000
  H   H1998     1.0  0.61964  0.09673  0.04879  1.0000
  H   H1999     1.0  0.60813  0.10899  0.06790  1.0000
  H   H2000     1.0  0.61731  0.06266  0.11843  1.0000
  H   H2001     1.0  0.63879  0.04799  0.11743  1.0000
  H   H2002     1.0  0.62754  0.05306  0.09666  1.0000
  H   H2003     1.0  0.59205  0.08945  0.11832  1.0000
  H   H2004     1.0  0.59919  0.08000  0.09649  1.0000
  H   H2005     1.0  0.58726  0.10302  0.09733  1.0000
  N   N85       1.0  0.80511  0.15050  0.11351  1.0000
  C   C1200     1.0  0.78978  0.13776  0.11952  1.0000
  C   C1201     1.0  0.82013  0.14604  0.12680  1.0000
  C   C1202     1.0  0.81352  0.14572  0.09433  1.0000
  C   C1203     1.0  0.79658  0.17061  0.11345  1.0000
  C   C1204     1.0  0.77411  0.13800  0.10632  1.0000
  C   C1205     1.0  0.81325  0.14691  0.14763  1.0000
  C   C1206     1.0  0.82911  0.15750  0.08512  1.0000
  C   C1207     1.0  0.80970  0.18545  0.11697  1.0000
  H   H2006     1.0  0.79592  0.12298  0.12162  1.0000
  H   H2007     1.0  0.78245  0.14127  0.13327  1.0000
  H   H2008     1.0  0.83172  0.15521  0.12375  1.0000
  H   H2009     1.0  0.82706  0.13165  0.12506  1.0000
  H   H2010     1.0  0.81946  0.13079  0.09467  1.0000
  H   H2011     1.0  0.80263  0.14725  0.08428  1.0000
  H   H2012     1.0  0.79056  0.17501  0.10000  1.0000
  H   H2013     1.0  0.78437  0.17225  0.12421  1.0000
  H   H2014     1.0  0.76217  0.13089  0.11371  1.0000
  H   H2015     1.0  0.76856  0.15240  0.10173  1.0000
  H   H2016     1.0  0.77908  0.12990  0.09406  1.0000
  H   H2017     1.0  0.82556  0.14774  0.15564  1.0000
  H   H2018     1.0  0.80298  0.15919  0.15040  1.0000
  H   H2019     1.0  0.80682  0.13394  0.15305  1.0000
  H   H2020     1.0  0.84071  0.15803  0.09399  1.0000
  H   H2021     1.0  0.82320  0.17184  0.08071  1.0000
  H   H2022     1.0  0.83555  0.15103  0.07228  1.0000
  H   H2023     1.0  0.81332  0.18423  0.13158  1.0000
  H   H2024     1.0  0.80221  0.19961  0.11456  1.0000
  H   H2025     1.0  0.82298  0.18496  0.10773  1.0000
  H   H2026     1.0  0.56533  0.13348  0.23657  1.0000
  H   H2027     1.0  0.51601  0.03342  0.24579  1.0000
  H   H2028     1.0  0.55167  0.21910  0.09493  1.0000
  H   H2029     1.0  0.55197  0.12153  0.20583  1.0000
  H   H2030     1.0  0.56097  0.01007  0.21497  1.0000
  H   H2031     1.0  0.67749  0.06425  0.19192  1.0000
  H   H2032     1.0  0.57754  0.23082  0.07299  1.0000
  C   C1208     1.0  0.73732  0.13980  0.00572  1.0000
  H   H2033     1.0  0.69117  0.13060  0.01243  1.0000
  N   N86       1.0  0.70147  0.02957  0.20341  1.0000
  H   H2034     1.0  0.53436  0.04108  0.26847  1.0000
  C   C1209     1.0  0.54489  0.12223  0.22020  1.0000
  C   C1210     1.0  0.68339  0.03983  0.21160  1.0000
  H   H2035     1.0  0.52343  0.15950  0.25630  1.0000
  C   C1211     1.0  0.72740  0.13204  0.05171  1.0000
  H   H2036     1.0  0.79814  0.07359  0.30643  1.0000
  H   H2037     1.0  0.72629  0.03480  0.15920  1.0000
  H   H2038     1.0  0.89497  0.22857  0.04654  1.0000
  H   H2039     1.0  0.71900  0.02497  0.31067  1.0000
  H   H2040     1.0  0.76119  0.13883  0.02272  1.0000
  H   H2041     1.0  0.54693  0.15862  0.23185  1.0000
  H   H2042     1.0  0.52667  0.13930  0.19218  1.0000
  C   C1212     1.0  0.72163  0.12422  0.03414  1.0000
  C   C1213     1.0  0.75239  0.14926  0.01431  1.0000
  H   H2043     1.0  0.50793  0.15184  0.20537  1.0000
  S   S361      1.0  0.64069  0.99734  0.24252  1.0000
  H   H2044     1.0  0.56264  0.01121  0.28668  1.0000
  H   H2045     1.0  0.83345  0.22275  0.07830  1.0000
  C   C1214     1.0  0.56364  0.23842  0.07376  1.0000
  H   H2046     1.0  0.84736  0.12412  0.29049  1.0000
  C   C1215     1.0  0.72410  0.02752  0.17327  1.0000
  H   H2047     1.0  0.51400  0.01032  0.24062  1.0000
  H   H2048     1.0  0.57285  0.11164  0.22780  1.0000
  H   H2049     1.0  0.71043  0.09955  0.01288  1.0000
  C   C1216     1.0  0.89445  0.24398  0.04692  1.0000
  C   C1217     1.0  0.49939  0.01747  0.26663  1.0000
  C   C1218     1.0  0.97603  0.00329  0.31308  1.0000
  H   H2050     1.0  0.86364  0.03898  0.30944  1.0000
  H   H2051     1.0  0.56844  0.02975  0.26925  1.0000
  H   H2052     1.0  0.97935  0.04094  0.31837  1.0000
  H   H2053     1.0  0.70836  0.11779  0.03890  1.0000
  S   S362      1.0  0.65154  0.22696  0.00849  1.0000
  H   H2054     1.0  0.98228  0.02811  0.09998  1.0000
  H   H2055     1.0  0.74003  0.04799  0.21804  1.0000
  N   N87       1.0  0.83976  0.08786  0.28162  1.0000
  C   C1219     1.0  0.82510  0.08447  0.29777  1.0000
  C   C1220     1.0  0.85662  0.09393  0.28961  1.0000
  C   C1221     1.0  0.84510  0.06964  0.27260  1.0000
  C   C1222     1.0  0.83105  0.10262  0.26819  1.0000
  C   C1223     1.0  0.80810  0.07445  0.29364  1.0000
  C   C1224     1.0  0.85301  0.11221  0.29964  1.0000
  C   C1225     1.0  0.86380  0.06775  0.26001  1.0000
  C   C1226     1.0  0.84409  0.11071  0.25189  1.0000
  H   H2056     1.0  0.83160  0.07606  0.30945  1.0000
  H   H2057     1.0  0.81907  0.09784  0.30364  1.0000
  H   H2058     1.0  0.86855  0.09585  0.27894  1.0000
  H   H2059     1.0  0.86238  0.08273  0.29965  1.0000
  H   H2060     1.0  0.84637  0.05780  0.28344  1.0000
  H   H2061     1.0  0.83385  0.06660  0.26406  1.0000
  H   H2062     1.0  0.82359  0.11463  0.27556  1.0000
  H   H2063     1.0  0.52312  0.22559  0.99694  1.0000
  H   H2064     1.0  0.68774  0.00734  0.19353  1.0000
  H   H2065     1.0  0.84364  0.11057  0.31270  1.0000
  C   C1227     1.0  0.71109  0.10955  0.00042  1.0000
  H   H2066     1.0  0.76171  0.15575  0.00293  1.0000
  H   H2067     1.0  0.86522  0.05413  0.25361  1.0000
  H   H2068     1.0  0.87615  0.06754  0.26811  1.0000
  H   H2069     1.0  0.86464  0.07866  0.24844  1.0000
  H   H2070     1.0  0.83897  0.12555  0.24840  1.0000
  N   N88       1.0  0.86592  0.05049  0.06660  1.0000
  C   C1228     1.0  0.85423  0.06792  0.05980  1.0000
  C   C1229     1.0  0.85349  0.03466  0.06864  1.0000
  C   C1230     1.0  0.88243  0.04668  0.05213  1.0000
  C   C1231     1.0  0.87269  0.05417  0.08488  1.0000
  C   C1232     1.0  0.86475  0.08565  0.05560  1.0000
  C   C1233     1.0  0.83547  0.03720  0.08223  1.0000
  H   H2071     1.0  0.84776  0.06547  0.04694  1.0000
  H   H2072     1.0  0.84228  0.07183  0.07024  1.0000
  H   H2073     1.0  0.86130  0.02127  0.07337  1.0000
  H   H2074     1.0  0.84892  0.03225  0.05484  1.0000
  H   H2075     1.0  0.87862  0.05184  0.03792  1.0000
  H   H2076     1.0  0.89438  0.05460  0.05447  1.0000
  H   H2077     1.0  0.88299  0.06485  0.08274  1.0000
  H   H2078     1.0  0.86078  0.06029  0.09431  1.0000
  H   H2079     1.0  0.85514  0.09707  0.04942  1.0000
  H   H2080     1.0  0.86884  0.09068  0.06853  1.0000
  H   H2081     1.0  0.87743  0.08361  0.04557  1.0000
  N   N89       1.0  0.54893  0.22995  0.00843  1.0000
  H   H2082     1.0  0.89577  0.03181  0.08837  1.0000
  C   C1234     1.0  0.50625  0.12216  0.20587  1.0000
  C   C1235     1.0  0.86271  0.22912  0.06964  1.0000
  H   H2083     1.0  0.69559  0.15423  0.03140  1.0000
  C   C1236     1.0  0.53860  0.15715  0.22007  1.0000
  H   H2084     1.0  0.73673  0.02888  0.18055  1.0000
  H   H2085     1.0  0.71738  0.16273  0.03291  1.0000
  H   H2086     1.0  0.51030  0.22814  0.02618  1.0000
  C   C1237     1.0  0.51800  0.13894  0.20581  1.0000
  H   H2087     1.0  0.55752  0.03519  0.29156  1.0000
  C   C1238     1.0  0.88241  0.03733  0.09588  1.0000
  C   C1239     1.0  0.69830  0.00917  0.20337  1.0000
  H   H2088     1.0  0.50344  0.14466  0.23827  1.0000
  H   H2089     1.0  0.86661  0.11593  0.30372  1.0000
  H   H2090     1.0  0.55807  0.17433  0.20335  1.0000
  H   H2091     1.0  0.89381  0.01846  0.06341  1.0000
  H   H2092     1.0  0.83246  0.02686  0.30834  1.0000
  H   H2093     1.0  0.80023  0.08212  0.28250  1.0000
  H   H2094     1.0  0.66737  0.06682  0.21513  1.0000
  C   C1240     1.0  0.70930  0.15633  0.02327  1.0000
  H   H2095     1.0  0.68206  0.03777  0.22708  1.0000
  H   H2096     1.0  0.88624  0.04202  0.10911  1.0000
  H   H2097     1.0  0.84405  0.10293  0.23928  1.0000
  H   H2098     1.0  0.56459  0.00735  0.24751  1.0000
  H   H2099     1.0  0.81960  0.09706  0.26165  1.0000
  C   C1241     1.0  0.54894  0.23180  0.08616  1.0000
  H   H2100     1.0  0.52713  0.16890  0.22084  1.0000
  C   C1242     1.0  0.57089  0.20118  0.99665  1.0000
  H   H2101     1.0  0.99086  0.04034  0.05016  1.0000
  H   H2102     1.0  0.51716  0.23014  0.04885  1.0000
  H   H2103     1.0  0.87304  0.02607  0.09977  1.0000
  H   H2104     1.0  0.96518  0.01011  0.32240  1.0000
  C   C1243     1.0  0.71740  0.03082  0.21523  1.0000
  N   N90       1.0  0.53561  0.01303  0.25919  1.0000
  H   H2105     1.0  0.53874  0.13808  0.25996  1.0000
  H   H2106     1.0  0.51489  0.13979  0.26957  1.0000
  C   C1244     1.0  0.69003  0.00202  0.99594  1.0000
  H   H2107     1.0  0.71304  0.02665  0.23006  1.0000
  H   H2108     1.0  0.71565  0.14126  0.05834  1.0000
  C   C1245     1.0  0.72489  0.05007  0.21544  1.0000
  H   H2109     1.0  0.56356  0.14996  0.20043  1.0000
  H   H2110     1.0  0.90393  0.02585  0.04092  1.0000
  C   C1246     1.0  0.51755  0.13684  0.23975  1.0000
  H   H2111     1.0  0.73226  0.11230  0.03057  1.0000
  H   H2112     1.0  0.55521  0.11277  0.24729  1.0000
  C   C1247     1.0  0.68021  0.06110  0.20671  1.0000
  N   N91       1.0  0.53014  0.13872  0.22174  1.0000
  C   C1248     1.0  0.85211  0.04254  0.31979  1.0000
  H   H2113     1.0  0.69195  0.06872  0.20985  1.0000
  H   H2114     1.0  0.53808  0.10900  0.22240  1.0000
  C   C1249     1.0  0.52225  0.22514  0.03493  1.0000
  H   H2115     1.0  0.72961  0.02041  0.21167  1.0000
  H   H2116     1.0  0.51522  0.10883  0.20389  1.0000
  H   H2117     1.0  0.52590  0.20984  0.03711  1.0000
  H   H2118     1.0  0.52815  0.02389  0.28640  1.0000
  C   C1250     1.0  0.55173  0.16109  0.20225  1.0000
  C   C1251     1.0  0.70588  0.03665  0.18341  1.0000
  H   H2119     1.0  0.71707  0.05813  0.22671  1.0000
  H   H2120     1.0  0.69452  0.16764  0.99878  1.0000
  H   H2121     1.0  0.81236  0.05981  0.29015  1.0000
  H   H2122     1.0  0.88072  0.01840  0.04342  1.0000
  C   C1252     1.0  0.52436  0.14399  0.25718  1.0000
  H   H2123     1.0  0.86227  0.22158  0.05687  1.0000
  H   H2124     1.0  0.98058  0.01773  0.07353  1.0000
  H   H2125     1.0  0.85131  0.20630  0.08708  1.0000
  C   C1253     1.0  0.51659  0.01872  0.25207  1.0000
  C   C1254     1.0  0.70392  0.02600  0.30981  1.0000
  H   H2126     1.0  0.67093  0.03397  0.20708  1.0000
  H   H2127     1.0  0.55410  0.03018  0.24121  1.0000
  C   C1255     1.0  0.70579  0.12996  0.00546  1.0000
  H   H2128     1.0  0.97916  0.06274  0.29197  1.0000
  H   H2129     1.0  0.57504  0.23832  0.01612  1.0000
  C   C1256     1.0  0.70920  0.00390  0.02178  1.0000
  N   N92       1.0  0.71886  0.13780  0.01733  1.0000
  H   H2130     1.0  0.84632  0.22798  0.09732  1.0000
  H   H2131     1.0  0.54972  0.23333  0.03772  1.0000
  H   H2132     1.0  0.71821  0.17475  0.99871  1.0000
  C   C1257     1.0  0.99179  0.99996  0.28231  1.0000
  H   H2133     1.0  0.73056  0.12019  0.06209  1.0000
  H   H2134     1.0  0.74656  0.16092  0.02280  1.0000
  H   H2135     1.0  0.69407  0.03466  0.17513  1.0000
  C   C1258     1.0  0.55474  0.20913  0.01041  1.0000
  H   H2136     1.0  0.73518  0.14704  0.99180  1.0000
  H   H2137     1.0  0.54249  0.20109  0.00936  1.0000
  C   C1259     1.0  0.53799  0.02628  0.27372  1.0000
  H   H2138     1.0  0.87653  0.22410  0.07501  1.0000
  C   C1260     1.0  0.55787  0.02529  0.28053  1.0000
  C   C1261     1.0  0.53943  0.23555  0.02700  1.0000
  H   H2139     1.0  0.70247  0.99834  0.23233  1.0000
  H   H2140     1.0  0.98928  0.01227  0.11933  1.0000
  C   C1262     1.0  0.55114  0.01525  0.24363  1.0000
  C   C1263     1.0  0.69156  0.99949  0.22235  1.0000
  C   C1264     1.0  0.83443  0.03565  0.31926  1.0000
  H   H2141     1.0  0.74428  0.12581  0.00229  1.0000
  H   H2142     1.0  0.67827  0.00660  0.22865  1.0000
  H   H2143     1.0  0.72511  0.10751  0.99248  1.0000
  C   C1265     1.0  0.54771  0.00945  0.22431  1.0000
  H   H2144     1.0  0.53692  0.01939  0.21782  1.0000
  H   H2145     1.0  0.99293  0.00577  0.05513  1.0000
  H   H2146     1.0  0.57168  0.18567  0.99793  1.0000
  H   H2147     1.0  0.57536  0.23577  0.99224  1.0000
  H   H2148     1.0  0.49650  0.12071  0.21863  1.0000
  S   S363      1.0  0.96181  0.00924  0.99240  1.0000
  H   H2149     1.0  0.71142  0.00068  0.19835  1.0000
  H   H2150     1.0  0.70057  0.10575  0.99145  1.0000
  H   H2151     1.0  0.70474  0.13846  0.99201  1.0000
  H   H2152     1.0  0.99321  0.00437  0.26764  1.0000
  S   S364      1.0  0.95480  0.11126  0.31891  1.0000
  H   H2153     1.0  0.98104  0.08171  0.30498  1.0000
  H   H2154     1.0  0.49726  0.12457  0.19409  1.0000
  C   C1266     1.0  0.53083  0.24154  0.08744  1.0000
  C   C1267     1.0  0.53495  0.23457  0.99410  1.0000
  C   C1268     1.0  0.56605  0.24070  0.00434  1.0000
  S   S365      1.0  0.93252  0.06256  0.32204  1.0000
  H   H2155     1.0  0.58469  0.20488  0.00019  1.0000
  H   H2156     1.0  0.49874  0.00316  0.27339  1.0000
  H   H2157     1.0  0.49901  0.02775  0.27727  1.0000
  H   H2158     1.0  0.97165  0.99736  0.10098  1.0000
  C   C1269     1.0  0.99422  0.02240  0.10796  1.0000
  H   H2159     1.0  0.54372  0.99505  0.22459  1.0000
  Fe  Fe185     1.0  0.96035  0.20959  0.37065  1.0000
  C   C1270     1.0  0.97867  0.06078  0.33908  1.0000
  S   S366      1.0  0.94317  0.18646  0.36280  1.0000
  H   H2160     1.0  0.92259  0.19046  0.59507  1.0000
  H   H2161     1.0  0.68847  0.03741  0.38766  1.0000
  H   H2162     1.0  0.72761  0.17484  0.53207  1.0000
  H   H2163     1.0  0.66515  0.05838  0.37187  1.0000
  S   S367      1.0  0.96330  0.21343  0.40089  1.0000
  H   H2164     1.0  0.95952  0.14877  0.64503  1.0000
  Fe  Fe186     1.0  0.77241  0.02957  0.35405  1.0000
  S   S368      1.0  0.74726  0.05119  0.35600  1.0000
  C   C1271     1.0  0.93318  0.13997  0.33772  1.0000
  H   H2165     1.0  0.66555  0.04317  0.40017  1.0000
  S   S369      1.0  0.72927  0.02447  0.39097  1.0000
  Fe  Fe187     1.0  0.72932  0.02698  0.35946  1.0000
  S   S370      1.0  0.69989  0.02827  0.34853  1.0000
  Fe  Fe188     1.0  0.74873  0.04726  0.38716  1.0000
  S   S371      1.0  0.74800  0.07333  0.40335  1.0000
  H   H2166     1.0  0.55323  0.12791  0.65574  1.0000
  S   S372      1.0  0.77499  0.02733  0.38473  1.0000
  Fe  Fe189     1.0  0.72483  0.11150  0.50635  1.0000
  S   S373      1.0  0.71358  0.10418  0.53607  1.0000
  S   S374      1.0  0.71692  0.09078  0.48669  1.0000
  Fe  Fe190     1.0  0.74670  0.14267  0.51845  1.0000
  S   S375      1.0  0.73735  0.13671  0.54859  1.0000
  S   S376      1.0  0.76647  0.16502  0.50755  1.0000
  Fe  Fe191     1.0  0.74301  0.10628  0.54310  1.0000
  S   S377      1.0  0.76188  0.08487  0.55938  1.0000
  Fe  Fe192     1.0  0.70845  0.13528  0.53887  1.0000
  S   S378      1.0  0.68381  0.14981  0.55681  1.0000
  S   S379      1.0  0.75451  0.11226  0.51343  1.0000
  S   S380      1.0  0.71755  0.14270  0.50871  1.0000
  H   H2167     1.0  0.88524  0.02859  0.65347  1.0000
  S   S381      1.0  0.52690  0.22213  0.57995  1.0000
  Fe  Fe193     1.0  0.57575  0.20066  0.55922  1.0000
  S   S382      1.0  0.54915  0.18625  0.55999  1.0000
  S   S383      1.0  0.60141  0.18822  0.54088  1.0000
  Fe  Fe194     1.0  0.53472  0.21420  0.55053  1.0000
  S   S384      1.0  0.51725  0.22068  0.52499  1.0000
  Fe  Fe195     1.0  0.54313  0.19507  0.58944  1.0000
  S   S385      1.0  0.52881  0.17588  0.61224  1.0000
  S   S386      1.0  0.56162  0.22848  0.54852  1.0000
  S   S387      1.0  0.57073  0.20749  0.58942  1.0000
  S   S388      1.0  0.87010  0.22235  0.54195  1.0000
  C   C1272     1.0  0.95111  0.13237  0.33085  1.0000
  S   S389      1.0  0.81547  0.21449  0.55021  1.0000
  C   C1273     1.0  0.95827  0.17883  0.63859  1.0000
  H   H2168     1.0  0.81870  0.09804  0.57626  1.0000
  S   S390      1.0  0.73107  0.01295  0.60454  1.0000
  H   H2169     1.0  0.98600  0.19988  0.58071  1.0000
  H   H2170     1.0  0.92023  0.22118  0.40723  1.0000
  C   C1274     1.0  0.94685  0.16578  0.35021  1.0000
  H   H2171     1.0  0.69452  0.09829  0.36194  1.0000
  C   C1275     1.0  0.96685  0.14163  0.33376  1.0000
  H   H2172     1.0  0.98820  0.06630  0.34799  1.0000
  H   H2173     1.0  0.88867  0.18742  0.37954  1.0000
  C   C1276     1.0  0.69322  0.19395  0.53338  1.0000
  H   H2174     1.0  0.98080  0.13594  0.32858  1.0000
  H   H2175     1.0  0.75061  0.99953  0.53267  1.0000
  C   C1277     1.0  0.73500  0.21098  0.50050  1.0000
  C   C1278     1.0  0.77997  0.17868  0.51968  1.0000
  C   C1279     1.0  0.77793  0.17888  0.53908  1.0000
  C   C1280     1.0  0.78860  0.19022  0.54806  1.0000
  C   C1281     1.0  0.80183  0.20118  0.53787  1.0000
  C   C1282     1.0  0.80399  0.20086  0.51848  1.0000
  C   C1283     1.0  0.79303  0.18978  0.50947  1.0000
  H   H2176     1.0  0.76807  0.17036  0.54719  1.0000
  H   H2177     1.0  0.78681  0.19032  0.56306  1.0000
  H   H2178     1.0  0.81409  0.20917  0.51041  1.0000
  H   H2179     1.0  0.79478  0.18978  0.49446  1.0000
  C   C1284     1.0  0.75329  0.06524  0.57259  1.0000
  C   C1285     1.0  0.76611  0.05025  0.57839  1.0000
  C   C1286     1.0  0.75966  0.03409  0.58827  1.0000
  C   C1287     1.0  0.74030  0.03294  0.59262  1.0000
  C   C1288     1.0  0.72755  0.04808  0.58706  1.0000
  C   C1289     1.0  0.73397  0.06412  0.57706  1.0000
  H   H2180     1.0  0.78109  0.05102  0.57504  1.0000
  H   H2181     1.0  0.76961  0.02255  0.59251  1.0000
  H   H2182     1.0  0.71257  0.04737  0.59053  1.0000
  H   H2183     1.0  0.72396  0.07564  0.57289  1.0000
  C   C1290     1.0  0.66078  0.15991  0.55208  1.0000
  C   C1291     1.0  0.65451  0.16101  0.53431  1.0000
  C   C1292     1.0  0.63635  0.16971  0.53119  1.0000
  C   C1293     1.0  0.62411  0.17726  0.54579  1.0000
  C   C1294     1.0  0.63037  0.17610  0.56356  1.0000
  C   C1295     1.0  0.64860  0.16756  0.56664  1.0000
  H   H2184     1.0  0.66369  0.15525  0.52295  1.0000
  H   H2185     1.0  0.63179  0.17061  0.51735  1.0000
  H   H2186     1.0  0.62122  0.18185  0.57494  1.0000
  H   H2187     1.0  0.65328  0.16683  0.58045  1.0000
  C   C1296     1.0  0.54694  0.17649  0.64457  1.0000
  C   C1297     1.0  0.53194  0.17065  0.63629  1.0000
  H   H2188     1.0  0.81963  0.99736  0.34671  1.0000
  H   H2189     1.0  0.55734  0.18414  0.63616  1.0000
  H   H2190     1.0  0.74760  0.20360  0.50647  1.0000
  H   H2191     1.0  0.98771  0.18902  0.61364  1.0000
  C   C1298     1.0  0.74073  0.07697  0.42715  1.0000
  C   C1299     1.0  0.74488  0.09340  0.43447  1.0000
  C   C1300     1.0  0.73826  0.09757  0.45284  1.0000
  C   C1301     1.0  0.72693  0.08559  0.46396  1.0000
  C   C1302     1.0  0.72269  0.06920  0.45660  1.0000
  C   C1303     1.0  0.72981  0.06473  0.43845  1.0000
  H   H2192     1.0  0.75324  0.10303  0.42583  1.0000
  H   H2193     1.0  0.74156  0.11029  0.45821  1.0000
  H   H2194     1.0  0.71373  0.05996  0.46495  1.0000
  H   H2195     1.0  0.72661  0.05197  0.43313  1.0000
  C   C1304     1.0  0.83987  0.05800  0.34746  1.0000
  C   C1305     1.0  0.82220  0.05118  0.34689  1.0000
  S   S391      1.0  0.75440  0.00537  0.35544  1.0000
  H   H2196     1.0  0.96931  0.18013  0.64812  1.0000
  H   H2197     1.0  0.84191  0.06665  0.35848  1.0000
  H   H2198     1.0  0.81077  0.05464  0.35739  1.0000
  C   C1306     1.0  0.50372  0.22124  0.62856  1.0000
  S   S392      1.0  0.79762  0.03030  0.33182  1.0000
  H   H2199     1.0  0.85039  0.11568  0.51737  1.0000
  H   H2200     1.0  0.74179  0.22302  0.53270  1.0000
  C   C1307     1.0  0.70726  0.08889  0.36507  1.0000
  H   H2201     1.0  0.80993  0.14613  0.52225  1.0000
  H   H2202     1.0  0.92874  0.21598  0.46987  1.0000
  H   H2203     1.0  0.68706  0.08570  0.43450  1.0000
  H   H2204     1.0  0.70173  0.02088  0.49684  1.0000
  C   C1308     1.0  0.96477  0.15822  0.34328  1.0000
  C   C1309     1.0  0.83265  0.02242  0.39205  1.0000
  H   H2205     1.0  0.70535  0.21145  0.50102  1.0000
  H   H2206     1.0  0.80084  0.11483  0.58686  1.0000
  H   H2207     1.0  0.97704  0.16508  0.34535  1.0000
  H   H2208     1.0  0.85101  0.99744  0.33074  1.0000
  C   C1310     1.0  0.89674  0.22675  0.39063  1.0000
  H   H2209     1.0  0.87681  0.22107  0.42294  1.0000
  H   H2210     1.0  0.92223  0.01762  0.64508  1.0000
  H   H2211     1.0  0.53168  0.15172  0.51721  1.0000
  H   H2212     1.0  0.91717  0.16211  0.35260  1.0000
  C   C1311     1.0  0.83148  0.11612  0.54320  1.0000
  H   H2213     1.0  0.90467  0.23243  0.37779  1.0000
  H   H2214     1.0  0.78427  0.11954  0.55856  1.0000
  H   H2215     1.0  0.54748  0.21700  0.49547  1.0000
  H   H2216     1.0  0.92413  0.19962  0.43398  1.0000
  H   H2217     1.0  0.72015  0.03494  0.48812  1.0000
  H   H2218     1.0  0.79796  0.14925  0.56197  1.0000
  H   H2219     1.0  0.53315  0.19140  0.49873  1.0000
  N   N93       1.0  0.71194  0.20206  0.52909  1.0000
  C   C1312     1.0  0.80341  0.13383  0.52918  1.0000
  H   H2220     1.0  0.91052  0.17701  0.38805  1.0000
  H   H2221     1.0  0.87421  0.19537  0.40784  1.0000
  H   H2222     1.0  0.79852  0.10065  0.54850  1.0000
  H   H2223     1.0  0.82284  0.16417  0.53818  1.0000
  H   H2224     1.0  0.57019  0.22439  0.49643  1.0000
  H   H2225     1.0  0.70060  0.04425  0.50364  1.0000
  H   H2226     1.0  0.92788  0.20066  0.62784  1.0000
  C   C1313     1.0  0.56196  0.23523  0.63641  1.0000
  Fe  Fe196     1.0  0.55482  0.23442  0.57866  1.0000
  H   H2227     1.0  0.70328  0.23178  0.52619  1.0000
  C   C1314     1.0  0.88827  0.18771  0.40998  1.0000
  C   C1315     1.0  0.69168  0.02771  0.32605  1.0000
  C   C1316     1.0  0.92947  0.23523  0.44540  1.0000
  H   H2228     1.0  0.71427  0.08391  0.35174  1.0000
  C   C1317     1.0  0.71655  0.20278  0.50826  1.0000
  C   C1318     1.0  0.91585  0.18981  0.42786  1.0000
  C   C1319     1.0  0.81248  0.14222  0.55910  1.0000
  H   H2229     1.0  0.71736  0.09700  0.37091  1.0000
  H   H2230     1.0  0.56685  0.22415  0.64686  1.0000
  S   S393      1.0  0.89660  0.22822  0.49418  1.0000
  H   H2231     1.0  0.85834  0.12801  0.53492  1.0000
  Fe  Fe197     1.0  0.95137  0.24311  0.39496  1.0000
  H   H2232     1.0  0.83850  0.11374  0.55634  1.0000
  H   H2233     1.0  0.81726  0.13694  0.57284  1.0000
  C   C1320     1.0  0.93904  0.19855  0.61617  1.0000
  H   H2234     1.0  0.73608  0.17808  0.56500  1.0000
  H   H2235     1.0  0.70084  0.22165  0.54943  1.0000
  S   S394      1.0  0.94667  0.23903  0.36529  1.0000
  C   C1321     1.0  0.79907  0.11285  0.55679  1.0000
  N   N94       1.0  0.81213  0.12639  0.54678  1.0000
  H   H2236     1.0  0.73722  0.20934  0.48529  1.0000
  H   H2237     1.0  0.64803  0.07804  0.36957  1.0000
  C   C1322     1.0  0.75639  0.01145  0.53813  1.0000
  C   C1323     1.0  0.67621  0.20484  0.52448  1.0000
  H   H2238     1.0  0.87376  0.00125  0.33670  1.0000
  H   H2239     1.0  0.96103  0.20541  0.58368  1.0000
  H   H2240     1.0  0.73107  0.01183  0.51204  1.0000
  N   N95       1.0  0.56111  0.17717  0.50159  1.0000
  C   C1324     1.0  0.54015  0.17975  0.50737  1.0000
  C   C1325     1.0  0.56895  0.19501  0.50532  1.0000
  C   C1326     1.0  0.56961  0.16126  0.51393  1.0000
  C   C1327     1.0  0.56393  0.17293  0.48139  1.0000
  C   C1328     1.0  0.52889  0.16285  0.50604  1.0000
  C   C1329     1.0  0.93111  0.15648  0.34736  1.0000
  C   C1330     1.0  0.59074  0.15502  0.50955  1.0000
  C   C1331     1.0  0.58353  0.17559  0.47082  1.0000
  H   H2241     1.0  0.94172  0.22774  0.43846  1.0000
  N   N96       1.0  0.52636  0.23621  0.64786  1.0000
  H   H2242     1.0  0.58454  0.19368  0.50427  1.0000
  H   H2243     1.0  0.56494  0.19836  0.52003  1.0000
  H   H2244     1.0  0.56754  0.16481  0.52874  1.0000
  H   H2245     1.0  0.56253  0.14839  0.51336  1.0000
  H   H2246     1.0  0.56113  0.15824  0.47997  1.0000
  H   H2247     1.0  0.55330  0.18171  0.47337  1.0000
  C   C1332     1.0  0.97409  0.20452  0.59087  1.0000
  C   C1333     1.0  0.93249  0.18354  0.60499  1.0000
  H   H2248     1.0  0.86362  0.00428  0.36886  1.0000
  C   C1334     1.0  0.80363  0.11972  0.51424  1.0000
  S   S395      1.0  0.98953  0.21791  0.36137  1.0000
  H   H2249     1.0  0.92329  0.16378  0.41374  1.0000
  H   H2250     1.0  0.84367  0.03008  0.38374  1.0000
  H   H2251     1.0  0.59334  0.14768  0.49655  1.0000
  H   H2252     1.0  0.59544  0.14483  0.52093  1.0000
  H   H2253     1.0  0.58982  0.16220  0.46520  1.0000
  H   H2254     1.0  0.59398  0.18034  0.47910  1.0000
  H   H2255     1.0  0.58195  0.18586  0.45863  1.0000
  C   C1335     1.0  0.82556  0.15751  0.55209  1.0000
  H   H2256     1.0  0.84063  0.15221  0.55232  1.0000
  H   H2257     1.0  0.82310  0.16891  0.56177  1.0000
  N   N97       1.0  0.73216  0.03742  0.52541  1.0000
  C   C1336     1.0  0.74688  0.04420  0.51075  1.0000
  C   C1337     1.0  0.72137  0.02377  0.51721  1.0000
  C   C1338     1.0  0.74104  0.02769  0.54208  1.0000
  C   C1339     1.0  0.71933  0.05414  0.53169  1.0000
  C   C1340     1.0  0.76072  0.05671  0.51740  1.0000
  C   C1341     1.0  0.71038  0.03169  0.50057  1.0000
  H   H2258     1.0  0.64967  0.99676  0.33072  1.0000
  C   C1342     1.0  0.70134  0.04986  0.54424  1.0000
  H   H2259     1.0  0.75530  0.03227  0.50405  1.0000
  H   H2260     1.0  0.74008  0.05268  0.49923  1.0000
  H   H2261     1.0  0.81812  0.11437  0.50909  1.0000
  H   H2262     1.0  0.93750  0.18259  0.40471  1.0000
  H   H2263     1.0  0.74737  0.03779  0.54971  1.0000
  H   H2264     1.0  0.73022  0.02174  0.55234  1.0000
  H   H2265     1.0  0.72700  0.06295  0.53965  1.0000
  H   H2266     1.0  0.71485  0.06350  0.51960  1.0000
  H   H2267     1.0  0.75332  0.06983  0.52256  1.0000
  H   H2268     1.0  0.76928  0.04944  0.52824  1.0000
  H   H2269     1.0  0.77072  0.06086  0.50540  1.0000
  H   H2270     1.0  0.56054  0.22903  0.62320  1.0000
  C   C1343     1.0  0.93008  0.17599  0.41729  1.0000
  H   H2271     1.0  0.95439  0.23055  0.65392  1.0000
  H   H2272     1.0  0.53126  0.15704  0.49222  1.0000
  C   C1344     1.0  0.98978  0.04836  0.32461  1.0000
  C   C1345     1.0  0.82293  0.01000  0.38028  1.0000
  H   H2273     1.0  0.69134  0.04333  0.53666  1.0000
  H   H2274     1.0  0.69392  0.06323  0.54890  1.0000
  H   H2275     1.0  0.70450  0.04093  0.55695  1.0000
  N   N98       1.0  0.68812  0.07603  0.39461  1.0000
  C   C1346     1.0  0.69469  0.09149  0.40450  1.0000
  C   C1347     1.0  0.70259  0.07189  0.37848  1.0000
  C   C1348     1.0  0.68782  0.05890  0.40806  1.0000
  C   C1349     1.0  0.66869  0.08226  0.38859  1.0000
  C   C1350     1.0  0.68336  0.09627  0.42306  1.0000
  H   H2276     1.0  0.84777  0.01829  0.35513  1.0000
  C   C1351     1.0  0.91020  0.21283  0.40154  1.0000
  C   C1352     1.0  0.66320  0.07382  0.37115  1.0000
  H   H2277     1.0  0.70966  0.08811  0.40744  1.0000
  H   H2278     1.0  0.69440  0.10479  0.39551  1.0000
  H   H2279     1.0  0.89128  0.20065  0.45832  1.0000
  H   H2280     1.0  0.71615  0.06567  0.38367  1.0000
  H   H2281     1.0  0.70215  0.05485  0.41273  1.0000
  H   H2282     1.0  0.67838  0.06170  0.42087  1.0000
  H   H2283     1.0  0.65767  0.07930  0.40014  1.0000
  H   H2284     1.0  0.66678  0.09771  0.38552  1.0000
  H   H2285     1.0  0.84001  0.13875  0.52155  1.0000
  H   H2286     1.0  0.66792  0.09777  0.42205  1.0000
  H   H2287     1.0  0.79540  0.10781  0.51915  1.0000
  C   C1353     1.0  0.88891  0.21357  0.42988  1.0000
  H   H2288     1.0  0.71715  0.18848  0.50324  1.0000
  H   H2289     1.0  0.67494  0.22000  0.52651  1.0000
  H   H2290     1.0  0.68901  0.19294  0.54863  1.0000
  H   H2291     1.0  0.79688  0.12695  0.50210  1.0000
  H   H2292     1.0  0.74082  0.19317  0.53523  1.0000
  H   H2293     1.0  0.97661  0.21868  0.59424  1.0000
  H   H2294     1.0  0.97284  0.17660  0.60249  1.0000
  H   H2295     1.0  0.66302  0.19945  0.53122  1.0000
  H   H2296     1.0  0.78840  0.13928  0.53253  1.0000
  C   C1354     1.0  0.84554  0.12535  0.52844  1.0000
  H   H2297     1.0  0.88997  0.16503  0.39156  1.0000
  H   H2298     1.0  0.57759  0.11988  0.65201  1.0000
  H   H2299     1.0  0.91909  0.20458  0.39118  1.0000
  C   C1355     1.0  0.80395  0.10443  0.57623  1.0000
  C   C1356     1.0  0.72872  0.22895  0.54041  1.0000
  C   C1357     1.0  0.71024  0.22136  0.53618  1.0000
  H   H2300     1.0  0.69429  0.17935  0.52905  1.0000
  H   H2301     1.0  0.69846  0.06114  0.37001  1.0000
  C   C1358     1.0  0.96212  0.15863  0.63263  1.0000
  C   C1359     1.0  0.67208  0.02907  0.32452  1.0000
  H   H2302     1.0  0.73419  0.22619  0.50226  1.0000
  Fe  Fe198     1.0  0.87543  0.24168  0.51618  1.0000
  S   S396      1.0  0.87699  0.06235  0.33578  1.0000
  H   H2303     1.0  0.83030  0.10184  0.53885  1.0000
  H   H2304     1.0  0.66243  0.03048  0.33692  1.0000
  H   H2305     1.0  0.67664  0.20255  0.50948  1.0000
  C   C1360     1.0  0.68101  0.04141  0.40108  1.0000
  C   C1361     1.0  0.96262  0.21184  0.63184  1.0000
  H   H2306     1.0  0.87308  0.19206  0.44637  1.0000
  C   C1362     1.0  0.72650  0.18865  0.53815  1.0000
  C   C1363     1.0  0.52371  0.22648  0.63072  1.0000
  H   H2307     1.0  0.79474  0.09308  0.58076  1.0000
  H   H2308     1.0  0.76208  0.00606  0.55148  1.0000
  H   H2309     1.0  0.56636  0.21075  0.47791  1.0000
  H   H2310     1.0  0.59982  0.16657  0.50895  1.0000
  H   H2311     1.0  0.53743  0.18378  0.52198  1.0000
  H   H2312     1.0  0.68383  0.02936  0.41134  1.0000
  H   H2313     1.0  0.50718  0.15566  0.64120  1.0000
  H   H2314     1.0  0.71193  0.17536  0.56324  1.0000
  C   C1364     1.0  0.89509  0.17908  0.39129  1.0000
  H   H2315     1.0  0.51358  0.16755  0.50821  1.0000
  Fe  Fe199     1.0  0.83949  0.23333  0.54133  1.0000
  H   H2316     1.0  0.90944  0.18119  0.43978  1.0000
  H   H2317     1.0  0.52752  0.23546  0.61789  1.0000
  H   H2318     1.0  0.67118  0.07920  0.35825  1.0000
  H   H2319     1.0  0.73033  0.22726  0.55556  1.0000
  H   H2320     1.0  0.68730  0.10978  0.42712  1.0000
  H   H2321     1.0  0.86986  0.21480  0.45522  1.0000
  H   H2322     1.0  0.97718  0.15551  0.62742  1.0000
  H   H2323     1.0  0.92092  0.13308  0.33567  1.0000
  N   N99       1.0  0.90085  0.20065  0.41695  1.0000
  C   C1365     1.0  0.56274  0.21258  0.49291  1.0000
  C   C1366     1.0  0.92209  0.22861  0.46322  1.0000
  H   H2324     1.0  0.71906  0.19805  0.56664  1.0000
  H   H2325     1.0  0.88556  0.17602  0.42063  1.0000
  N   N100      1.0  0.95820  0.19454  0.62337  1.0000
  H   H2326     1.0  0.96925  0.05210  0.34846  1.0000
  H   H2327     1.0  0.76846  0.01592  0.52864  1.0000
  H   H2328     1.0  0.94116  0.17039  0.42652  1.0000
  H   H2329     1.0  0.88476  0.22009  0.38639  1.0000
  H   H2330     1.0  0.94465  0.17967  0.64753  1.0000
  H   H2331     1.0  0.93782  0.21214  0.60765  1.0000
  H   H2332     1.0  0.89713  0.22476  0.43349  1.0000
  C   C1367     1.0  0.72300  0.18504  0.55947  1.0000
  C   C1368     1.0  0.97363  0.19032  0.60805  1.0000
  H   H2333     1.0  0.94397  0.17623  0.59617  1.0000
  H   H2334     1.0  0.96943  0.07235  0.33277  1.0000
  C   C1369     1.0  0.51877  0.16038  0.64745  1.0000
  C   C1370     1.0  0.49834  0.21302  0.51385  1.0000
  C   C1371     1.0  0.90612  0.23812  0.47246  1.0000
  H   H2335     1.0  0.97712  0.20982  0.63641  1.0000
  C   C1372     1.0  0.88038  0.20443  0.44840  1.0000
  C   C1373     1.0  0.85493  0.05379  0.33392  1.0000
  H   H2336     1.0  0.71133  0.01734  0.52802  1.0000
  H   H2337     1.0  0.96254  0.22408  0.62153  1.0000
  Fe  Fe200     1.0  0.99147  0.22416  0.39120  1.0000
  H   H2338     1.0  0.89313  0.00579  0.64679  1.0000
  H   H2339     1.0  0.92504  0.17315  0.61437  1.0000
  Fe  Fe201     1.0  0.75544  0.00455  0.38649  1.0000
  H   H2340     1.0  0.82186  0.03321  0.39777  1.0000
  C   C1374     1.0  0.85200  0.00353  0.35989  1.0000
  H   H2341     1.0  0.53343  0.21342  0.62973  1.0000
  H   H2342     1.0  0.95293  0.15557  0.62214  1.0000
  H   H2343     1.0  0.50196  0.23297  0.49023  1.0000
  C   C1375     1.0  0.81941  0.03981  0.33286  1.0000
  H   H2344     1.0  0.81555  0.01949  0.36983  1.0000
  H   H2345     1.0  0.50447  0.21216  0.61678  1.0000
  H   H2346     1.0  0.89141  0.23889  0.39884  1.0000
  H   H2347     1.0  0.83869  0.01435  0.40411  1.0000
  C   C1376     1.0  0.94930  0.21803  0.64884  1.0000
  H   H2348     1.0  0.49748  0.21328  0.64090  1.0000
  H   H2349     1.0  0.93471  0.22230  0.64523  1.0000
  H   H2350     1.0  0.81162  0.00400  0.38991  1.0000
  H   H2351     1.0  0.95143  0.00723  0.65699  1.0000
  H   H2352     1.0  0.49625  0.24400  0.65421  1.0000
  C   C1377     1.0  0.86071  0.99462  0.34190  1.0000
  N   N101      1.0  0.83552  0.99478  0.37077  1.0000
  Fe  Fe202     1.0  0.52261  0.14062  0.72278  1.0000
  S   S397      1.0  0.53841  0.13719  0.74848  1.0000
  S   S398      1.0  0.53696  0.15929  0.69946  1.0000
  H   H2353     1.0  0.51253  0.19869  0.66474  1.0000
  H   H2354     1.0  0.94411  0.03791  0.68498  1.0000
  Fe  Fe203     1.0  0.51020  0.13960  0.76497  1.0000
  H   H2355     1.0  0.56022  0.10359  0.65976  1.0000
  Fe  Fe204     1.0  0.53550  0.10639  0.74880  1.0000
  S   S399      1.0  0.56259  0.08710  0.75209  1.0000
  S   S400      1.0  0.52170  0.10967  0.72213  1.0000
  H   H2356     1.0  0.50981  0.14878  0.67511  1.0000
  H   H2357     1.0  0.54110  0.21783  0.96971  1.0000
  H   H2358     1.0  0.58059  0.12029  0.82165  1.0000
  C   C1378     1.0  0.54237  0.23220  0.97361  1.0000
  C   C1379     1.0  0.51272  0.19251  0.82907  1.0000
  H   H2359     1.0  0.52711  0.01764  0.73596  1.0000
  H   H2360     1.0  0.53535  0.22869  0.67564  1.0000
  C   C1380     1.0  0.56982  0.11105  0.81885  1.0000
  H   H2361     1.0  0.60182  0.12801  0.68100  1.0000
  S   S401      1.0  0.54007  0.21674  0.83308  1.0000
  C   C1381     1.0  0.51325  0.21123  0.67247  1.0000
  H   H2362     1.0  0.90181  0.00976  0.69612  1.0000
  H   H2363     1.0  0.56290  0.14121  0.84043  1.0000
  H   H2364     1.0  0.56948  0.12132  0.77168  1.0000
  H   H2365     1.0  0.51998  0.10149  0.82153  1.0000
  N   N102      1.0  0.55368  0.12247  0.81003  1.0000
  H   H2366     1.0  0.91403  0.03501  0.66071  1.0000
  H   H2367     1.0  0.61775  0.10681  0.70592  1.0000
  C   C1382     1.0  0.57877  0.22990  0.93135  1.0000
  C   C1383     1.0  0.91603  0.01471  0.69263  1.0000
  H   H2368     1.0  0.53605  0.17769  0.78095  1.0000
  C   C1384     1.0  0.51348  0.17331  0.80232  1.0000
  C   C1385     1.0  0.52956  0.18156  0.79440  1.0000
  C   C1386     1.0  0.53735  0.19486  0.80393  1.0000
  C   C1387     1.0  0.52900  0.20051  0.82132  1.0000
  S   S402      1.0  0.57142  0.00016  0.77891  1.0000
  H   H2369     1.0  0.54223  0.08691  0.82163  1.0000
  H   H2370     1.0  0.88671  0.00988  0.67107  1.0000
  H   H2371     1.0  0.53411  0.24232  0.96440  1.0000
  C   C1388     1.0  0.56450  0.06274  0.75876  1.0000
  C   C1389     1.0  0.58224  0.05234  0.75637  1.0000
  C   C1390     1.0  0.58456  0.03310  0.76209  1.0000
  C   C1391     1.0  0.56920  0.02413  0.77058  1.0000
  C   C1392     1.0  0.55143  0.03453  0.77291  1.0000
  C   C1393     1.0  0.54903  0.05369  0.76690  1.0000
  H   H2372     1.0  0.59432  0.05920  0.75016  1.0000
  H   H2373     1.0  0.59832  0.02531  0.76025  1.0000
  H   H2374     1.0  0.53947  0.02774  0.77955  1.0000
  H   H2375     1.0  0.53533  0.06152  0.76891  1.0000
  C   C1394     1.0  0.53494  0.16271  0.67507  1.0000
  H   H2376     1.0  0.61779  0.08726  0.69185  1.0000
  C   C1395     1.0  0.61739  0.10268  0.69157  1.0000
  C   C1396     1.0  0.56450  0.11770  0.66114  1.0000
  N   N103      1.0  0.58116  0.10876  0.69119  1.0000
  C   C1397     1.0  0.53785  0.00533  0.73608  1.0000
  C   C1398     1.0  0.57910  0.11258  0.71149  1.0000
  H   H2377     1.0  0.54911  0.00843  0.72494  1.0000
  H   H2378     1.0  0.94508  0.04093  0.65985  1.0000
  S   S403      1.0  0.50818  0.10822  0.76703  1.0000
  C   C1399     1.0  0.58368  0.13208  0.71596  1.0000
  H   H2379     1.0  0.56468  0.10464  0.83272  1.0000
  S   S404      1.0  0.50375  0.15523  0.79179  1.0000
  H   H2380     1.0  0.54361  0.00423  0.74980  1.0000
  H   H2381     1.0  0.57894  0.09568  0.79291  1.0000
  H   H2382     1.0  0.58790  0.10191  0.71970  1.0000
  H   H2383     1.0  0.56436  0.11133  0.71756  1.0000
  C   C1400     1.0  0.94996  0.03178  0.67184  1.0000
  Fe  Fe205     1.0  0.99234  0.01435  0.98352  1.0000
  H   H2384     1.0  0.58884  0.07928  0.69801  1.0000
  C   C1401     1.0  0.50515  0.17895  0.81970  1.0000
  H   H2385     1.0  0.56798  0.14765  0.80322  1.0000
  C   C1402     1.0  0.57487  0.13140  0.78006  1.0000
  H   H2386     1.0  0.54141  0.21147  0.66009  1.0000
  H   H2387     1.0  0.59853  0.13462  0.71166  1.0000
  H   H2388     1.0  0.57412  0.14345  0.70972  1.0000
  H   H2389     1.0  0.58148  0.13305  0.73127  1.0000
  H   H2390     1.0  0.57386  0.22164  0.92135  1.0000
  H   H2391     1.0  0.99218  0.09822  0.95404  1.0000
  H   H2392     1.0  0.52699  0.08585  0.80370  1.0000
  H   H2393     1.0  0.96554  0.03184  0.67112  1.0000
  H   H2394     1.0  0.95351  0.00235  0.68095  1.0000
  S   S405      1.0  0.52731  0.22628  0.88821  1.0000
  C   C1403     1.0  0.54070  0.13177  0.82511  1.0000
  C   C1404     1.0  0.54902  0.14641  0.83548  1.0000
  H   H2395     1.0  0.94047  0.01497  0.70898  1.0000
  H   H2396     1.0  0.52770  0.13884  0.81941  1.0000
  H   H2397     1.0  0.53569  0.12121  0.83605  1.0000
  H   H2398     1.0  0.91868  0.01172  0.72245  1.0000
  H   H2399     1.0  0.59549  0.09383  0.80974  1.0000
  H   H2400     1.0  0.55610  0.08314  0.71187  1.0000
  Fe  Fe206     1.0  0.52935  0.23518  0.85741  1.0000
  H   H2401     1.0  0.94932  0.20719  0.66063  1.0000
  H   H2402     1.0  0.54990  0.20093  0.79773  1.0000
  H   H2403     1.0  0.57556  0.08106  0.81417  1.0000
  H   H2404     1.0  0.56937  0.13624  0.68126  1.0000
  H   H2405     1.0  0.97634  0.01291  0.74286  1.0000
  C   C1405     1.0  0.59767  0.23192  0.95748  1.0000
  C   C1406     1.0  0.91440  0.01977  0.65894  1.0000
  C   C1407     1.0  0.52025  0.15640  0.66671  1.0000
  C   C1408     1.0  0.54188  0.11086  0.80033  1.0000
  H   H2406     1.0  0.49942  0.21964  0.67324  1.0000
  H   H2407     1.0  0.55010  0.15975  0.82679  1.0000
  C   C1409     1.0  0.56640  0.12138  0.68153  1.0000
  C   C1410     1.0  0.98062  0.00675  0.72979  1.0000
  C   C1411     1.0  0.55914  0.08222  0.69664  1.0000
  C   C1412     1.0  0.59092  0.22138  0.94448  1.0000
  H   H2408     1.0  0.54991  0.10407  0.78844  1.0000
  C   C1413     1.0  0.58017  0.09467  0.80804  1.0000
  H   H2409     1.0  0.60219  0.10859  0.66749  1.0000
  H   H2410     1.0  0.54853  0.14603  0.79018  1.0000
  C   C1414     1.0  0.57876  0.08842  0.68970  1.0000
  C   C1415     1.0  0.52981  0.22224  0.66412  1.0000
  N   N104      1.0  0.92463  0.00847  0.67396  1.0000
  H   H2411     1.0  0.56914  0.20572  0.98195  1.0000
  H   H2412     1.0  0.59520  0.20653  0.94451  1.0000
  H   H2413     1.0  0.57767  0.14384  0.77046  1.0000
  H   H2414     1.0  0.55990  0.17739  0.67012  1.0000
  C   C1416     1.0  0.56069  0.13767  0.79630  1.0000
  S   S406      1.0  0.61286  0.22046  0.97379  1.0000
  C   C1417     1.0  0.53237  0.09543  0.81273  1.0000
  C   C1418     1.0  0.92732  0.00803  0.70941  1.0000
  H   H2415     1.0  0.53041  0.12008  0.79394  1.0000
  H   H2416     1.0  0.53922  0.14995  0.84787  1.0000
  C   C1419     1.0  0.60034  0.11272  0.68208  1.0000
  H   H2417     1.0  0.58862  0.12561  0.78500  1.0000
  C   C1420     1.0  0.54839  0.17256  0.66383  1.0000
  H   H2418     1.0  0.91362  0.03023  0.69242  1.0000
  H   H2419     1.0  0.51545  0.20640  0.68714  1.0000
  H   H2420     1.0  0.50612  0.19657  0.84242  1.0000
  H   H2421     1.0  0.67860  0.00805  0.98797  1.0000
  H   H2422     1.0  0.54763  0.09017  0.68931  1.0000
  H   H2423     1.0  0.63061  0.10665  0.68353  1.0000
  H   H2424     1.0  0.55894  0.06727  0.69404  1.0000
  C   C1421     1.0  0.94527  0.01148  0.67090  1.0000
  H   H2425     1.0  0.55708  0.23545  0.97025  1.0000
  H   H2426     1.0  0.55221  0.12088  0.68932  1.0000
  H   H2427     1.0  0.58224  0.08445  0.67513  1.0000
  H   H2428     1.0  0.99347  0.02915  0.79026  1.0000
  H   H2429     1.0  0.98827  0.07092  0.77300  1.0000
  H   H2430     1.0  0.98617  0.04766  0.76580  1.0000
  H   H2431     1.0  0.99211  0.05939  0.80246  1.0000
  C   C1422     1.0  0.89381  0.01549  0.65781  1.0000
  Fe  Fe207     1.0  0.96347  0.35207  0.25937  1.0000
  C   C1423     1.0  0.50124  0.31697  0.10062  1.0000
  S   S407      1.0  0.94939  0.33446  0.28352  1.0000
  Fe  Fe208     1.0  0.95607  0.38862  0.23510  1.0000
  H   H2432     1.0  0.92564  0.26967  0.00583  1.0000
  S   S408      1.0  0.93413  0.41306  0.22893  1.0000
  Fe  Fe209     1.0  0.97398  0.35320  0.21685  1.0000
  S   S409      1.0  0.97720  0.33349  0.19293  1.0000
  H   H2433     1.0  0.79542  0.45445  0.18872  1.0000
  S   S410      1.0  0.94689  0.35974  0.23453  1.0000
  S   S411      1.0  0.97025  0.38162  0.26143  1.0000
  Fe  Fe210     1.0  0.77251  0.36314  0.04651  1.0000
  S   S412      1.0  0.74444  0.36836  0.06361  1.0000
  S   S413      1.0  0.79591  0.34952  0.06424  1.0000
  Fe  Fe211     1.0  0.75579  0.38174  0.01146  1.0000
  S   S414      1.0  0.72722  0.38811  0.02637  1.0000
  H   H2434     1.0  0.88483  0.41803  0.31486  1.0000
  Fe  Fe212     1.0  0.74268  0.39720  0.04917  1.0000
  S   S415      1.0  0.72908  0.42441  0.06121  1.0000
  Fe  Fe213     1.0  0.73111  0.35873  0.03958  1.0000
  S   S416      1.0  0.70469  0.34264  0.04538  1.0000
  S   S417      1.0  0.77127  0.39276  0.03326  1.0000
  S   S418      1.0  0.75917  0.35161  0.02344  1.0000
  Fe  Fe214     1.0  0.92315  0.26432  0.08829  1.0000
  S   S419      1.0  0.92437  0.27857  0.05939  1.0000
  Fe  Fe215     1.0  0.92403  0.30128  0.10619  1.0000
  S   S420      1.0  0.92453  0.31770  0.07825  1.0000
  S   S421      1.0  0.92273  0.31893  0.13151  1.0000
  Fe  Fe216     1.0  0.90241  0.30014  0.07136  1.0000
  S   S422      1.0  0.88014  0.30963  0.05094  1.0000
  Fe  Fe217     1.0  0.94636  0.29506  0.06813  1.0000
  S   S423      1.0  0.97234  0.30584  0.05098  1.0000
  S   S424      1.0  0.90005  0.28507  0.09994  1.0000
  S   S425      1.0  0.94696  0.27946  0.09643  1.0000
  S   S426      1.0  0.75026  0.46937  0.12744  1.0000
  H   H2435     1.0  0.53440  0.25069  0.02647  1.0000
  C   C1424     1.0  0.96467  0.47833  0.25645  1.0000
  H   H2436     1.0  0.97645  0.47746  0.26546  1.0000
  N   N105      1.0  0.97901  0.34146  0.10682  1.0000
  Fe  Fe218     1.0  0.64657  0.25601  0.01897  1.0000
  S   S427      1.0  0.67120  0.27453  0.01165  1.0000
  S   S428      1.0  0.61779  0.26115  0.00809  1.0000
  H   H2437     1.0  0.87990  0.43522  0.29622  1.0000
  C   C1425     1.0  0.56040  0.25504  0.06269  1.0000
  C   C1426     1.0  0.99431  0.29410  0.23249  1.0000
  H   H2438     1.0  0.94639  0.29714  0.27124  1.0000
  H   H2439     1.0  0.55809  0.31799  0.07986  1.0000
  C   C1427     1.0  0.98801  0.29534  0.30611  1.0000
  H   H2440     1.0  0.76621  0.44868  0.17742  1.0000
  H   H2441     1.0  0.81558  0.49004  0.13080  1.0000
  C   C1428     1.0  0.99108  0.33658  0.12291  1.0000
  C   C1429     1.0  0.69598  0.32327  0.03610  1.0000
  C   C1430     1.0  0.67794  0.31816  0.04290  1.0000
  C   C1431     1.0  0.67025  0.30314  0.03591  1.0000
  C   C1432     1.0  0.68041  0.29309  0.02179  1.0000
  C   C1433     1.0  0.69845  0.29821  0.01499  1.0000
  C   C1434     1.0  0.70629  0.31299  0.02223  1.0000
  H   H2442     1.0  0.66980  0.32585  0.05369  1.0000
  H   H2443     1.0  0.65637  0.29946  0.04130  1.0000
  H   H2444     1.0  0.93509  0.37608  0.32101  1.0000
  H   H2445     1.0  0.72040  0.31619  0.01722  1.0000
  C   C1435     1.0  0.73505  0.43627  0.08005  1.0000
  C   C1436     1.0  0.72362  0.45244  0.08528  1.0000
  C   C1437     1.0  0.72800  0.46266  0.09981  1.0000
  C   C1438     1.0  0.74390  0.45680  0.10930  1.0000
  C   C1439     1.0  0.75522  0.44050  0.10421  1.0000
  C   C1440     1.0  0.75087  0.43030  0.08964  1.0000
  H   H2446     1.0  0.71130  0.45715  0.07802  1.0000
  H   H2447     1.0  0.71900  0.47500  0.10374  1.0000
  H   H2448     1.0  0.76750  0.43577  0.11151  1.0000
  H   H2449     1.0  0.75979  0.41789  0.08579  1.0000
  C   C1441     1.0  0.81951  0.33895  0.05999  1.0000
  C   C1442     1.0  0.83007  0.33344  0.07527  1.0000
  C   C1443     1.0  0.84872  0.32480  0.07277  1.0000
  C   C1444     1.0  0.85704  0.32140  0.05491  1.0000
  C   C1445     1.0  0.84649  0.32683  0.03962  1.0000
  C   C1446     1.0  0.82788  0.33561  0.04211  1.0000
  H   H2450     1.0  0.82376  0.33592  0.08917  1.0000
  H   H2451     1.0  0.85655  0.32067  0.08470  1.0000
  H   H2452     1.0  0.85267  0.32420  0.02573  1.0000
  H   H2453     1.0  0.81997  0.33970  0.03022  1.0000
  C   C1447     1.0  0.92645  0.43176  0.24310  1.0000
  C   C1448     1.0  0.93533  0.43450  0.25885  1.0000
  C   C1449     1.0  0.92797  0.44889  0.27038  1.0000
  C   C1450     1.0  0.91202  0.46096  0.26597  1.0000
  C   C1451     1.0  0.90351  0.45855  0.24992  1.0000
  C   C1452     1.0  0.91064  0.44394  0.23862  1.0000
  H   H2454     1.0  0.94769  0.42538  0.26227  1.0000
  H   H2455     1.0  0.93467  0.45070  0.28276  1.0000
  H   H2456     1.0  0.89120  0.46770  0.24640  1.0000
  H   H2457     1.0  0.90371  0.44194  0.22643  1.0000
  C   C1453     1.0  0.96101  0.32866  0.17711  1.0000
  C   C1454     1.0  0.96600  0.31385  0.16547  1.0000
  C   C1455     1.0  0.95428  0.31025  0.15184  1.0000
  C   C1456     1.0  0.93736  0.32149  0.14960  1.0000
  C   C1457     1.0  0.93219  0.33604  0.16154  1.0000
  C   C1458     1.0  0.94388  0.33960  0.17520  1.0000
  C   C1459     1.0  0.93140  0.31965  0.02471  1.0000
  H   H2458     1.0  0.95842  0.29886  0.14298  1.0000
  H   H2459     1.0  0.91916  0.34486  0.16000  1.0000
  H   H2460     1.0  0.93980  0.35108  0.18397  1.0000
  C   C1460     1.0  0.52741  0.25781  0.07588  1.0000
  H   H2461     1.0  0.91958  0.35641  0.30666  1.0000
  C   C1461     1.0  0.94940  0.30596  0.31134  1.0000
  C   C1462     1.0  0.96053  0.31601  0.29770  1.0000
  C   C1463     1.0  0.97993  0.31069  0.29524  1.0000
  H   H2462     1.0  0.98293  0.38047  0.09466  1.0000
  H   H2463     1.0  0.93948  0.28130  0.01931  1.0000
  C   C1464     1.0  0.97689  0.28527  0.31976  1.0000
  H   H2464     1.0  0.50449  0.47268  0.26200  1.0000
  H   H2465     1.0  0.94218  0.28454  0.99414  1.0000
  C   C1465     1.0  0.76756  0.46323  0.18068  1.0000
  C   C1466     1.0  0.68852  0.37536  0.00218  1.0000
  H   H2466     1.0  0.92167  0.31557  0.03701  1.0000
  C   C1467     1.0  0.96286  0.27809  0.21065  1.0000
  H   H2467     1.0  0.96705  0.27027  0.28203  1.0000
  H   H2468     1.0  0.51161  0.29836  0.14368  1.0000
  H   H2469     1.0  0.96492  0.32611  0.08853  1.0000
  C   C1468     1.0  0.74952  0.47326  0.04517  1.0000
  C   C1469     1.0  0.93097  0.30960  0.23241  1.0000
  H   H2470     1.0  0.80433  0.44193  0.12404  1.0000
  H   H2471     1.0  0.96865  0.26112  0.23594  1.0000
  H   H2472     1.0  0.86798  0.24882  0.03497  1.0000
  H   H2473     1.0  0.90286  0.24920  0.03419  1.0000
  H   H2474     1.0  0.94341  0.26457  0.28599  1.0000
  H   H2475     1.0  0.53772  0.25161  0.13189  1.0000
  N   N106      1.0  0.86138  0.25000  0.06486  1.0000
  H   H2476     1.0  0.53763  0.30647  0.07775  1.0000
  C   C1470     1.0  0.76209  0.47949  0.05915  1.0000
  H   H2477     1.0  0.98801  0.26352  0.99989  1.0000
  Fe  Fe219     1.0  0.60642  0.24868  0.03612  1.0000
  H   H2478     1.0  0.81949  0.48066  0.19287  1.0000
  H   H2479     1.0  0.51533  0.32081  0.13426  1.0000
  H   H2480     1.0  0.94950  0.28093  0.20388  1.0000
  H   H2481     1.0  0.55479  0.26895  0.01264  1.0000
  H   H2482     1.0  0.90156  0.24721  0.05895  1.0000
  H   H2483     1.0  0.55395  0.28015  0.12282  1.0000
  N   N107      1.0  0.95964  0.28904  0.24441  1.0000
  H   H2484     1.0  0.98238  0.35112  0.07764  1.0000
  H   H2485     1.0  0.75041  0.45773  0.04624  1.0000
  H   H2486     1.0  0.55498  0.31246  0.11400  1.0000
  H   H2487     1.0  0.95307  0.39060  0.31231  1.0000
  H   H2488     1.0  0.97976  0.30134  0.25876  1.0000
  H   H2489     1.0  0.90731  0.36762  0.25441  1.0000
  H   H2490     1.0  0.92785  0.32259  0.22342  1.0000
  C   C1471     1.0  0.89094  0.42473  0.30162  1.0000
  H   H2491     1.0  0.90444  0.41824  0.27475  1.0000
  C   C1472     1.0  0.94088  0.38397  0.30830  1.0000
  H   H2492     1.0  0.94320  0.33794  0.04190  1.0000
  H   H2493     1.0  0.94667  0.37428  0.29760  1.0000
  C   C1473     1.0  0.90104  0.37796  0.26441  1.0000
  H   H2494     1.0  0.96542  0.46462  0.25027  1.0000
  C   C1474     1.0  0.89727  0.41051  0.28687  1.0000
  C   C1475     1.0  0.94777  0.28500  0.26249  1.0000
  S   S429      1.0  0.98248  0.38267  0.21574  1.0000
  C   C1476     1.0  0.98473  0.29804  0.02992  1.0000
  H   H2495     1.0  0.92593  0.39174  0.26630  1.0000
  H   H2496     1.0  0.97918  0.30522  0.16683  1.0000
  H   H2497     1.0  0.82196  0.45553  0.12990  1.0000
  H   H2498     1.0  0.92553  0.37001  0.27903  1.0000
  H   H2499     1.0  0.94446  0.26847  0.23375  1.0000
  C   C1477     1.0  0.52966  0.26561  0.13286  1.0000
  H   H2500     1.0  0.96332  0.31712  0.11213  1.0000
  C   C1478     1.0  0.53933  0.27978  0.11901  1.0000
  C   C1479     1.0  0.80652  0.45494  0.13043  1.0000
  C   C1480     1.0  0.89800  0.38160  0.30735  1.0000
  H   H2501     1.0  0.89521  0.39042  0.25599  1.0000
  H   H2502     1.0  0.73448  0.47827  0.04800  1.0000
  C   C1481     1.0  0.78846  0.46671  0.18075  1.0000
  N   N108      1.0  0.79917  0.47022  0.16190  1.0000
  C   C1482     1.0  0.94701  0.35872  0.09841  1.0000
  H   H2503     1.0  0.55839  0.29360  0.08649  1.0000
  H   H2504     1.0  0.94934  0.34289  0.01776  1.0000
  C   C1483     1.0  0.79684  0.45423  0.15040  1.0000
  C   C1484     1.0  0.53839  0.30798  0.14867  1.0000
  C   C1485     1.0  0.56209  0.26204  0.00044  1.0000
  S   S430      1.0  0.90301  0.47859  0.28101  1.0000
  H   H2505     1.0  0.90992  0.34727  0.00233  1.0000
  C   C1486     1.0  0.96139  0.35367  0.11293  1.0000
  H   H2506     1.0  0.78171  0.45335  0.14866  1.0000
  C   C1487     1.0  0.49905  0.47665  0.20169  1.0000
  H   H2507     1.0  0.75843  0.47177  0.07275  1.0000
  H   H2508     1.0  0.82512  0.45598  0.17119  1.0000
  H   H2509     1.0  0.80190  0.44064  0.15762  1.0000
  C   C1488     1.0  0.97304  0.32350  0.10097  1.0000
  H   H2510     1.0  0.77670  0.47370  0.05441  1.0000
  H   H2511     1.0  0.54134  0.27342  0.10539  1.0000
  H   H2512     1.0  0.92158  0.31087  0.24551  1.0000
  C   C1489     1.0  0.91654  0.38309  0.27586  1.0000
  H   H2513     1.0  0.90270  0.43277  0.30422  1.0000
  C   C1490     1.0  0.95190  0.30789  0.23628  1.0000
  C   C1491     1.0  0.95472  0.26763  0.27481  1.0000
  H   H2514     1.0  0.92579  0.35010  0.02832  1.0000
  H   H2515     1.0  0.95488  0.47587  0.21576  1.0000
  C   C1492     1.0  0.85553  0.26208  0.09826  1.0000
  H   H2516     1.0  0.78852  0.47879  0.18938  1.0000
  C   C1493     1.0  0.86836  0.26005  0.07990  1.0000
  H   H2517     1.0  0.97172  0.28967  0.20655  1.0000
  C   C1494     1.0  0.84156  0.25720  0.06074  1.0000
  H   H2518     1.0  0.93437  0.30991  0.31339  1.0000
  C   C1495     1.0  0.99105  0.27616  0.00558  1.0000
  H   H2519     1.0  0.93388  0.40894  0.29097  1.0000
  H   H2520     1.0  0.92154  0.40765  0.31353  1.0000
  C   C1496     1.0  0.95879  0.27345  0.23188  1.0000
  H   H2521     1.0  0.87912  0.34268  0.99504  1.0000
  C   C1497     1.0  0.82420  0.48454  0.17812  1.0000
  H   H2522     1.0  0.97045  0.27334  0.02944  1.0000
  H   H2523     1.0  0.97634  0.35199  0.14609  1.0000
  H   H2524     1.0  0.98703  0.32357  0.13103  1.0000
  H   H2525     1.0  0.88314  0.38258  0.30375  1.0000
  H   H2526     1.0  0.52934  0.26933  0.14745  1.0000
  H   H2527     1.0  0.88948  0.37165  0.27323  1.0000
  H   H2528     1.0  0.95374  0.34676  0.12530  1.0000
  C   C1498     1.0  0.93764  0.33889  0.02805  1.0000
  H   H2529     1.0  0.50124  0.29033  0.11610  1.0000
  H   H2530     1.0  0.98873  0.31836  0.28493  1.0000
  H   H2531     1.0  0.93309  0.28296  0.25988  1.0000
  H   H2532     1.0  0.75461  0.47743  0.03060  1.0000
  H   H2533     1.0  0.88213  0.25305  0.08391  1.0000
  S   S431      1.0  0.63493  0.24557  0.04758  1.0000
  S   S432      1.0  0.57845  0.26424  0.04716  1.0000
  C   C1499     1.0  0.51176  0.29811  0.10710  1.0000
  H   H2534     1.0  0.95338  0.36507  0.08512  1.0000
  H   H2535     1.0  0.55042  0.29713  0.14685  1.0000
  N   N109      1.0  0.52903  0.29914  0.11715  1.0000
  H   H2536     1.0  0.93575  0.36912  0.10404  1.0000
  H   H2537     1.0  0.51522  0.28999  0.09464  1.0000
  H   H2538     1.0  0.71668  0.34485  0.99987  1.0000
  C   C1500     1.0  0.99027  0.35096  0.13776  1.0000
  H   H2539     1.0  0.89848  0.33451  0.02141  1.0000
  C   C1501     1.0  0.54221  0.26467  0.06377  1.0000
  C   C1502     1.0  0.54215  0.31211  0.10657  1.0000
  C   C1503     1.0  0.54928  0.30706  0.08658  1.0000
  H   H2540     1.0  0.54382  0.32194  0.14634  1.0000
  H   H2541     1.0  0.53952  0.27738  0.05502  1.0000
  H   H2542     1.0  0.78784  0.47601  0.08414  1.0000
  H   H2543     1.0  0.95122  0.48035  0.26541  1.0000
  H   H2544     1.0  0.88408  0.40673  0.28183  1.0000
  N   N110      1.0  0.90956  0.39319  0.29306  1.0000
  H   H2545     1.0  0.52786  0.24902  0.99507  1.0000
  H   H2546     1.0  0.94425  0.30964  0.02526  1.0000
  C   C1504     1.0  0.52268  0.30648  0.13589  1.0000
  N   N111      1.0  0.68910  0.38293  0.09014  1.0000
  C   C1505     1.0  0.70284  0.39678  0.09294  1.0000
  C   C1506     1.0  0.68815  0.38281  0.06943  1.0000
  C   C1507     1.0  0.69720  0.36391  0.09755  1.0000
  C   C1508     1.0  0.67033  0.38877  0.10054  1.0000
  C   C1509     1.0  0.70736  0.39838  0.11311  1.0000
  C   C1510     1.0  0.68113  0.40160  0.05942  1.0000
  C   C1511     1.0  0.68555  0.34738  0.09622  1.0000
  C   C1512     1.0  0.65262  0.38150  0.09406  1.0000
  H   H2547     1.0  0.71657  0.39345  0.08465  1.0000
  H   H2548     1.0  0.69758  0.41118  0.08784  1.0000
  H   H2549     1.0  0.67922  0.37228  0.06583  1.0000
  H   H2550     1.0  0.70234  0.37844  0.06250  1.0000
  H   H2551     1.0  0.71146  0.36024  0.09033  1.0000
  H   H2552     1.0  0.69921  0.36383  0.11256  1.0000
  H   H2553     1.0  0.67066  0.38453  0.11565  1.0000
  H   H2554     1.0  0.66764  0.40433  0.09959  1.0000
  H   H2555     1.0  0.71652  0.38603  0.11822  1.0000
  H   H2556     1.0  0.71552  0.41065  0.11336  1.0000
  H   H2557     1.0  0.69449  0.40072  0.12282  1.0000
  H   H2558     1.0  0.69216  0.41148  0.05778  1.0000
  H   H2559     1.0  0.67813  0.39910  0.04513  1.0000
  H   H2560     1.0  0.66805  0.40830  0.06654  1.0000
  H   H2561     1.0  0.69385  0.33426  0.10098  1.0000
  H   H2562     1.0  0.68258  0.34550  0.08183  1.0000
  H   H2563     1.0  0.67230  0.34851  0.10559  1.0000
  H   H2564     1.0  0.64306  0.37754  0.10649  1.0000
  H   H2565     1.0  0.65529  0.36910  0.08585  1.0000
  H   H2566     1.0  0.64442  0.39284  0.08611  1.0000
  H   H2567     1.0  0.84113  0.28643  0.06794  1.0000
  H   H2568     1.0  0.77802  0.48681  0.14650  1.0000
  H   H2569     1.0  0.51338  0.26506  0.07629  1.0000
  H   H2570     1.0  0.53259  0.30593  0.16343  1.0000
  H   H2571     1.0  0.99330  0.36507  0.13191  1.0000
  H   H2572     1.0  0.82301  0.28232  0.05409  1.0000
  H   H2573     1.0  0.53551  0.32680  0.10592  1.0000
  H   H2574     1.0  0.50841  0.46575  0.19526  1.0000
  H   H2575     1.0  0.84641  0.28331  0.04333  1.0000
  H   H2576     1.0  0.76010  0.47306  0.17071  1.0000
  C   C1513     1.0  0.83812  0.27851  0.05627  1.0000
  C   C1514     1.0  0.79110  0.48863  0.15297  1.0000
  H   H2577     1.0  0.50980  0.32490  0.08971  1.0000
  H   H2578     1.0  0.93833  0.47370  0.23557  1.0000
  H   H2579     1.0  0.87179  0.27437  0.07461  1.0000
  C   C1515     1.0  0.98093  0.28179  0.02228  1.0000
  H   H2580     1.0  0.85657  0.27604  0.10335  1.0000
  C   C1516     1.0  0.81971  0.47000  0.16512  1.0000
  C   C1517     1.0  0.90434  0.36039  0.30970  1.0000
  H   H2581     1.0  0.92745  0.29774  0.22507  1.0000
  H   H2582     1.0  0.96475  0.36711  0.11758  1.0000
  H   H2583     1.0  0.95995  0.31228  0.22315  1.0000
  S   S433      1.0  0.99013  0.34384  0.24182  1.0000
  H   H2584     1.0  0.87534  0.26873  0.04405  1.0000
  H   H2585     1.0  0.95346  0.31892  0.24576  1.0000
  H   H2586     1.0  0.51521  0.26410  0.12947  1.0000
  H   H2587     1.0  0.76016  0.46509  0.19475  1.0000
  H   H2588     1.0  0.97039  0.26555  0.20430  1.0000
  H   H2589     1.0  0.93985  0.34640  0.09591  1.0000
  C   C1518     1.0  0.90543  0.33318  0.00700  1.0000
  H   H2590     1.0  0.70654  0.29047  0.00419  1.0000
  C   C1519     1.0  0.92621  0.39944  0.30127  1.0000
  H   H2591     1.0  0.79987  0.46666  0.12168  1.0000
  H   H2592     1.0  0.69769  0.36844  0.01263  1.0000
  H   H2593     1.0  0.82882  0.47206  0.15200  1.0000
  C   C1520     1.0  0.97956  0.29025  0.24897  1.0000
  H   H2594     1.0  0.98536  0.27700  0.25616  1.0000
  N   N112      1.0  0.92229  0.31860  0.00698  1.0000
  H   H2595     1.0  0.83971  0.48507  0.17737  1.0000
  C   C1521     1.0  0.92640  0.48734  0.21166  1.0000
  H   H2596     1.0  0.97877  0.48951  0.23094  1.0000
  C   C1522     1.0  0.93195  0.28299  0.00659  1.0000
  H   H2597     1.0  0.57580  0.26811  0.99739  1.0000
  H   H2598     1.0  0.92112  0.47378  0.20960  1.0000
  C   C1523     1.0  0.95752  0.29072  0.32236  1.0000
  C   C1524     1.0  0.99013  0.35046  0.09030  1.0000
  H   H2599     1.0  0.98312  0.29554  0.09274  1.0000
  C   C1525     1.0  0.98925  0.30833  0.09581  1.0000
  H   H2600     1.0  0.73012  0.36409  0.99397  1.0000
  H   H2601     1.0  0.93089  0.49358  0.19761  1.0000
  H   H2602     1.0  0.83095  0.25368  0.07233  1.0000
  H   H2603     1.0  0.95059  0.31448  0.99270  1.0000
  H   H2604     1.0  0.68290  0.38919  0.00721  1.0000
  H   H2605     1.0  0.89629  0.35241  0.30128  1.0000
  C   C1526     1.0  0.94300  0.48370  0.22394  1.0000
  C   C1527     1.0  0.78393  0.49077  0.08737  1.0000
  H   H2606     1.0  0.83744  0.25021  0.04880  1.0000
  H   H2607     1.0  0.86015  0.25135  0.10918  1.0000
  H   H2608     1.0  0.90635  0.29639  0.02005  1.0000
  H   H2609     1.0  0.99047  0.30710  0.22393  1.0000
  H   H2610     1.0  0.84037  0.26151  0.09712  1.0000
  C   C1528     1.0  0.91604  0.29920  0.00733  1.0000
  H   H2611     1.0  0.49634  0.32585  0.11226  1.0000
  H   H2612     1.0  0.95811  0.25500  0.26690  1.0000
  H   H2613     1.0  0.67624  0.36727  0.00176  1.0000
  H   H2614     1.0  0.77222  0.49135  0.09855  1.0000
  C   C1529     1.0  0.87406  0.25350  0.04717  1.0000
  H   H2615     1.0  0.74823  0.33273  0.99156  1.0000
  C   C1530     1.0  0.50655  0.49294  0.20630  1.0000
  H   H2616     1.0  0.89732  0.38729  0.32127  1.0000
  H   H2617     1.0  0.90762  0.29766  0.99564  1.0000
  H   H2618     1.0  0.88144  0.31830  0.00174  1.0000
  C   C1531     1.0  0.88939  0.32998  0.99528  1.0000
  H   H2619     1.0  0.71874  0.49411  0.07190  1.0000
  C   C1532     1.0  0.93668  0.32264  0.99085  1.0000
  Fe  Fe220     1.0  0.61880  0.39402  0.60908  1.0000
  S   S434      1.0  0.59286  0.40859  0.62425  1.0000
  S   S435      1.0  0.64300  0.41261  0.60165  1.0000
  Fe  Fe221     1.0  0.59897  0.35855  0.60635  1.0000
  S   S436      1.0  0.57232  0.37075  0.62156  1.0000
  S   S437      1.0  0.60247  0.33073  0.59227  1.0000
  Fe  Fe222     1.0  0.57634  0.39727  0.60362  1.0000
  S   S438      1.0  0.54877  0.41171  0.59363  1.0000
  Fe  Fe223     1.0  0.59065  0.38128  0.64118  1.0000
  S   S439      1.0  0.60215  0.38471  0.58721  1.0000
  S   S440      1.0  0.61750  0.36704  0.62725  1.0000
  H   H2620     1.0  0.51253  0.43710  0.65649  1.0000
  S   S441      1.0  0.53284  0.46044  0.51799  1.0000
  H   H2621     1.0  0.58598  0.45508  0.48475  1.0000
  S   S442      1.0  0.88826  0.24506  0.58498  1.0000
  H   H2622     1.0  0.58624  0.48547  0.47167  1.0000
  S   S443      1.0  0.55228  0.26180  0.59349  1.0000
  H   H2623     1.0  0.54515  0.46496  0.45414  1.0000
  C   C1533     1.0  0.93563  0.25214  0.60938  1.0000
  Fe  Fe224     1.0  0.84966  0.27395  0.53309  1.0000
  H   H2624     1.0  0.90642  0.24826  0.61789  1.0000
  S   S444      1.0  0.83745  0.30435  0.52714  1.0000
  C   C1534     1.0  0.94948  0.25374  0.59441  1.0000
  C   C1535     1.0  0.54363  0.24677  0.64361  1.0000
  S   S445      1.0  0.88104  0.26563  0.53232  1.0000
  C   C1536     1.0  0.50977  0.25043  0.65205  1.0000
  Fe  Fe225     1.0  0.75834  0.41272  0.58349  1.0000
  S   S446      1.0  0.77845  0.40827  0.55794  1.0000
  S   S447      1.0  0.73291  0.39558  0.59061  1.0000
  Fe  Fe226     1.0  0.78692  0.43338  0.60187  1.0000
  S   S448      1.0  0.80910  0.43001  0.57739  1.0000
  S   S449      1.0  0.78587  0.44285  0.63175  1.0000
  Fe  Fe227     1.0  0.78478  0.43833  0.55940  1.0000
  S   S450      1.0  0.78580  0.45484  0.53054  1.0000
  Fe  Fe228     1.0  0.80125  0.40036  0.57700  1.0000
  S   S451      1.0  0.81998  0.37247  0.57965  1.0000
  S   S452      1.0  0.76298  0.44312  0.58391  1.0000
  S   S453      1.0  0.78097  0.40346  0.60243  1.0000
  H   H2625     1.0  0.71793  0.46198  0.62964  1.0000
  H   H2626     1.0  0.57286  0.43211  0.65307  1.0000
  H   H2627     1.0  0.90097  0.35218  0.55774  1.0000
  H   H2628     1.0  0.78940  0.46892  0.49215  1.0000
  H   H2629     1.0  0.53085  0.43754  0.62769  1.0000
  H   H2630     1.0  0.94877  0.28310  0.33277  1.0000
  H   H2631     1.0  0.88961  0.39935  0.64800  1.0000
  H   H2632     1.0  0.89063  0.30802  0.53329  1.0000
  C   C1537     1.0  0.53339  0.48801  0.43692  1.0000
  H   H2633     1.0  0.57332  0.24473  0.63334  1.0000
  C   C1538     1.0  0.83201  0.32288  0.54218  1.0000
  C   C1539     1.0  0.82601  0.34087  0.53457  1.0000
  C   C1540     1.0  0.82195  0.35612  0.54585  1.0000
  C   C1541     1.0  0.82396  0.35359  0.56492  1.0000
  C   C1542     1.0  0.82983  0.33557  0.57257  1.0000
  C   C1543     1.0  0.83350  0.32023  0.56135  1.0000
  H   H2634     1.0  0.82473  0.34308  0.51977  1.0000
  H   H2635     1.0  0.81766  0.36991  0.53970  1.0000
  H   H2636     1.0  0.83139  0.33344  0.58732  1.0000
  H   H2637     1.0  0.83774  0.30641  0.56744  1.0000
  C   C1544     1.0  0.82118  0.45415  0.63703  1.0000
  C   C1545     1.0  0.80317  0.45044  0.64495  1.0000
  S   S454      1.0  0.84273  0.25665  0.55956  1.0000
  H   H2638     1.0  0.87350  0.28431  0.59565  1.0000
  H   H2639     1.0  0.82505  0.45229  0.62243  1.0000
  Fe  Fe229     1.0  0.50499  0.47676  0.51076  1.0000
  H   H2640     1.0  0.54709  0.25315  0.65614  1.0000
  H   H2641     1.0  0.56058  0.47179  0.43479  1.0000
  C   C1546     1.0  0.78853  0.48092  0.50034  1.0000
  H   H2642     1.0  0.91497  0.28076  0.54484  1.0000
  C   C1547     1.0  0.54490  0.42570  0.57271  1.0000
  C   C1548     1.0  0.52639  0.43311  0.56969  1.0000
  C   C1549     1.0  0.52249  0.44396  0.55316  1.0000
  C   C1550     1.0  0.53709  0.44744  0.53938  1.0000
  C   C1551     1.0  0.55563  0.44002  0.54240  1.0000
  C   C1552     1.0  0.55955  0.42926  0.55899  1.0000
  H   H2643     1.0  0.51494  0.43042  0.58018  1.0000
  H   H2644     1.0  0.50817  0.44952  0.55103  1.0000
  H   H2645     1.0  0.56704  0.44263  0.53184  1.0000
  H   H2646     1.0  0.57387  0.42368  0.56111  1.0000
  C   C1553     1.0  0.58860  0.31139  0.59336  1.0000
  C   C1554     1.0  0.59403  0.29707  0.58122  1.0000
  C   C1555     1.0  0.58324  0.28175  0.58111  1.0000
  C   C1556     1.0  0.56676  0.28058  0.59312  1.0000
  C   C1557     1.0  0.56130  0.29491  0.60525  1.0000
  C   C1558     1.0  0.57217  0.31016  0.60546  1.0000
  H   H2647     1.0  0.60670  0.29782  0.57181  1.0000
  H   H2648     1.0  0.58765  0.27089  0.57169  1.0000
  H   H2649     1.0  0.54860  0.29420  0.61461  1.0000
  H   H2650     1.0  0.56781  0.32097  0.61493  1.0000
  C   C1559     1.0  0.66795  0.40743  0.59836  1.0000
  C   C1560     1.0  0.67923  0.42205  0.59235  1.0000
  C   C1561     1.0  0.69908  0.41873  0.58969  1.0000
  C   C1562     1.0  0.70793  0.40071  0.59314  1.0000
  C   C1563     1.0  0.69667  0.38610  0.59920  1.0000
  C   C1564     1.0  0.67682  0.38941  0.60178  1.0000
  H   H2651     1.0  0.67253  0.43605  0.58963  1.0000
  H   H2652     1.0  0.70749  0.43010  0.58488  1.0000
  H   H2653     1.0  0.70333  0.37210  0.60195  1.0000
  H   H2654     1.0  0.66837  0.37803  0.60643  1.0000
  S   S455      1.0  0.98791  0.26582  0.33275  1.0000
  H   H2655     1.0  0.93215  0.29789  0.54079  1.0000
  S   S456      1.0  0.97962  0.25412  0.38707  1.0000
  C   C1565     1.0  0.92595  0.24928  0.57317  1.0000
  H   H2656     1.0  0.92966  0.29004  0.57113  1.0000
  H   H2657     1.0  0.87544  0.29347  0.56057  1.0000
  C   C1566     1.0  0.73158  0.45435  0.62495  1.0000
  H   H2658     1.0  0.87670  0.36016  0.55569  1.0000
  H   H2659     1.0  0.54532  0.40347  0.53511  1.0000
  C   C1567     1.0  0.92070  0.25126  0.43645  1.0000
  H   H2660     1.0  0.91978  0.29197  0.52236  1.0000
  H   H2661     1.0  0.88536  0.26190  0.47065  1.0000
  H   H2662     1.0  0.72256  0.42939  0.61531  1.0000
  Fe  Fe230     1.0  0.99411  0.24971  0.61805  1.0000
  C   C1568     1.0  0.89769  0.25448  0.46375  1.0000
  H   H2663     1.0  0.84783  0.46381  0.64149  1.0000
  S   S457      1.0  0.49869  0.47833  0.48067  1.0000
  H   H2664     1.0  0.73479  0.45936  0.61020  1.0000
  N   N113      1.0  0.54266  0.43013  0.65409  1.0000
  H   H2665     1.0  0.75075  0.37879  0.55561  1.0000
  H   H2666     1.0  0.55562  0.40328  0.64562  1.0000
  H   H2667     1.0  0.54099  0.25865  0.63302  1.0000
  H   H2668     1.0  0.86234  0.30676  0.58879  1.0000
  H   H2669     1.0  0.69309  0.44313  0.62536  1.0000
  C   C1569     1.0  0.78591  0.49388  0.53025  1.0000
  H   H2670     1.0  0.90873  0.32295  0.53402  1.0000
  H   H2671     1.0  0.74296  0.45844  0.63267  1.0000
  C   C1570     1.0  0.72287  0.40365  0.64341  1.0000
  H   H2672     1.0  0.75064  0.48981  0.48759  1.0000
  Fe  Fe231     1.0  0.87387  0.24695  0.55789  1.0000
  N   N114      1.0  0.72436  0.42417  0.64505  1.0000
  H   H2673     1.0  0.88468  0.30485  0.59860  1.0000
  C   C1571     1.0  0.73113  0.43288  0.62626  1.0000
  H   H2674     1.0  0.71441  0.40168  0.63178  1.0000
  H   H2675     1.0  0.92211  0.32559  0.56288  1.0000
  C   C1572     1.0  0.74164  0.39137  0.63978  1.0000
  H   H2676     1.0  0.53772  0.46838  0.63929  1.0000
  H   H2677     1.0  0.93576  0.30531  0.58707  1.0000
  H   H2678     1.0  0.73399  0.47732  0.50231  1.0000
  H   H2679     1.0  0.91541  0.29306  0.59267  1.0000
  C   C1573     1.0  0.54653  0.49320  0.47517  1.0000
  H   H2680     1.0  0.88982  0.34895  0.53690  1.0000
  H   H2681     1.0  0.56134  0.45829  0.48385  1.0000
  H   H2682     1.0  0.95502  0.25377  0.56460  1.0000
  H   H2683     1.0  0.89804  0.27338  0.43898  1.0000
  H   H2684     1.0  0.92236  0.24818  0.55917  1.0000
  S   S458      1.0  0.84451  0.25132  0.51468  1.0000
  H   H2685     1.0  0.58725  0.47372  0.45137  1.0000
  Fe  Fe232     1.0  0.97591  0.24763  0.35779  1.0000
  S   S459      1.0  0.97230  0.26004  0.59733  1.0000
  C   C1574     1.0  0.73927  0.49128  0.49909  1.0000
  N   N115      1.0  0.76350  0.33956  0.56151  1.0000
  C   C1575     1.0  0.77030  0.35437  0.54720  1.0000
  C   C1576     1.0  0.77980  0.32488  0.56444  1.0000
  C   C1577     1.0  0.75678  0.34768  0.57981  1.0000
  C   C1578     1.0  0.74721  0.33144  0.55457  1.0000
  C   C1579     1.0  0.75593  0.37134  0.54304  1.0000
  C   C1580     1.0  0.78535  0.31168  0.54863  1.0000
  C   C1581     1.0  0.77114  0.35823  0.58824  1.0000
  C   C1582     1.0  0.73896  0.31532  0.56716  1.0000
  H   H2686     1.0  0.78310  0.35990  0.55126  1.0000
  H   H2687     1.0  0.77488  0.34831  0.53365  1.0000
  H   H2688     1.0  0.77730  0.31604  0.57760  1.0000
  H   H2689     1.0  0.79269  0.33158  0.56630  1.0000
  H   H2690     1.0  0.74364  0.35729  0.57869  1.0000
  H   H2691     1.0  0.75272  0.33647  0.59051  1.0000
  H   H2692     1.0  0.73514  0.34236  0.55314  1.0000
  H   H2693     1.0  0.75071  0.32692  0.54018  1.0000
  H   H2694     1.0  0.76302  0.38153  0.53308  1.0000
  H   H2695     1.0  0.56467  0.48908  0.49836  1.0000
  C   C1583     1.0  0.83409  0.46073  0.64792  1.0000
  H   H2696     1.0  0.77409  0.30268  0.54698  1.0000
  H   H2697     1.0  0.78937  0.31939  0.53518  1.0000
  H   H2698     1.0  0.79793  0.30212  0.55213  1.0000
  H   H2699     1.0  0.78427  0.34922  0.59088  1.0000
  H   H2700     1.0  0.76478  0.36311  0.60184  1.0000
  H   H2701     1.0  0.77465  0.37088  0.57939  1.0000
  H   H2702     1.0  0.72735  0.32089  0.57720  1.0000
  H   H2703     1.0  0.74951  0.30663  0.57509  1.0000
  H   H2704     1.0  0.73335  0.30565  0.55839  1.0000
  C   C1584     1.0  0.70514  0.43308  0.65182  1.0000
  C   C1585     1.0  0.78692  0.47815  0.51993  1.0000
  H   H2705     1.0  0.90660  0.32635  0.58352  1.0000
  C   C1586     1.0  0.57486  0.45835  0.47500  1.0000
  H   H2706     1.0  0.93905  0.25387  0.62330  1.0000
  H   H2707     1.0  0.54731  0.46366  0.61625  1.0000
  H   H2708     1.0  0.74575  0.42698  0.62190  1.0000
  H   H2709     1.0  0.74385  0.36745  0.53626  1.0000
  H   H2710     1.0  0.67618  0.44001  0.64488  1.0000
  N   N116      1.0  0.55423  0.35866  0.55730  1.0000
  C   C1587     1.0  0.53767  0.34981  0.55171  1.0000
  C   C1588     1.0  0.55024  0.37964  0.55500  1.0000
  C   C1589     1.0  0.55742  0.35319  0.57733  1.0000
  C   C1590     1.0  0.57161  0.35189  0.54519  1.0000
  C   C1591     1.0  0.53805  0.32840  0.55596  1.0000
  C   C1592     1.0  0.54840  0.38806  0.53490  1.0000
  C   C1593     1.0  0.54024  0.35705  0.59166  1.0000
  C   C1594     1.0  0.58964  0.36124  0.54715  1.0000
  H   H2711     1.0  0.52411  0.35641  0.55825  1.0000
  H   H2712     1.0  0.53662  0.35234  0.53647  1.0000
  H   H2713     1.0  0.56122  0.38667  0.56086  1.0000
  H   H2714     1.0  0.53681  0.38436  0.56316  1.0000
  H   H2715     1.0  0.56250  0.33814  0.57917  1.0000
  H   H2716     1.0  0.56886  0.36066  0.58170  1.0000
  H   H2717     1.0  0.57537  0.33664  0.54826  1.0000
  H   H2718     1.0  0.56898  0.35360  0.53023  1.0000
  H   H2719     1.0  0.52529  0.32357  0.55106  1.0000
  H   H2720     1.0  0.55042  0.32071  0.54855  1.0000
  H   H2721     1.0  0.53771  0.32418  0.57105  1.0000
  H   H2722     1.0  0.53649  0.38301  0.52876  1.0000
  C   C1595     1.0  0.90492  0.26096  0.44579  1.0000
  H   H2723     1.0  0.56162  0.38547  0.52573  1.0000
  H   H2724     1.0  0.53647  0.37226  0.59280  1.0000
  H   H2725     1.0  0.54400  0.35104  0.60557  1.0000
  H   H2726     1.0  0.52773  0.35036  0.58878  1.0000
  H   H2727     1.0  0.58810  0.37649  0.54331  1.0000
  H   H2728     1.0  0.60136  0.35499  0.53766  1.0000
  H   H2729     1.0  0.59414  0.35866  0.56137  1.0000
  N   N117      1.0  0.89602  0.31334  0.56117  1.0000
  C   C1596     1.0  0.88133  0.33002  0.56114  1.0000
  C   C1597     1.0  0.88632  0.29661  0.56953  1.0000
  C   C1598     1.0  0.90276  0.31035  0.54110  1.0000
  C   C1599     1.0  0.91197  0.31736  0.57195  1.0000
  C   C1600     1.0  0.88792  0.34874  0.55231  1.0000
  C   C1601     1.0  0.87625  0.29844  0.58929  1.0000
  C   C1602     1.0  0.91826  0.29423  0.53746  1.0000
  C   C1603     1.0  0.92366  0.30037  0.58104  1.0000
  H   H2730     1.0  0.86926  0.32718  0.55362  1.0000
  H   H2731     1.0  0.87539  0.33287  0.57554  1.0000
  H   H2732     1.0  0.89629  0.28377  0.57016  1.0000
  H   H2733     1.0  0.86500  0.39781  0.65171  1.0000
  H   H2734     1.0  0.57564  0.44691  0.46548  1.0000
  C   C1604     1.0  0.55041  0.47750  0.44607  1.0000
  H   H2735     1.0  0.55544  0.43044  0.62565  1.0000
  C   C1605     1.0  0.54410  0.43847  0.63425  1.0000
  H   H2736     1.0  0.52677  0.47809  0.42926  1.0000
  C   C1606     1.0  0.52581  0.40267  0.64442  1.0000
  H   H2737     1.0  0.56277  0.46079  0.63421  1.0000
  C   C1607     1.0  0.57768  0.47728  0.46391  1.0000
  C   C1608     1.0  0.68983  0.43398  0.63809  1.0000
  C   C1609     1.0  0.94451  0.25228  0.57631  1.0000
  C   C1610     1.0  0.54818  0.45906  0.63120  1.0000
  H   H2738     1.0  0.78472  0.49210  0.54528  1.0000
  H   H2739     1.0  0.53899  0.48095  0.48079  1.0000
  C   C1611     1.0  0.91708  0.24917  0.60624  1.0000
  H   H2740     1.0  0.75090  0.39099  0.65120  1.0000
  S   S460      1.0  0.92804  0.25876  0.41315  1.0000
  H   H2741     1.0  0.68752  0.41995  0.63404  1.0000
  C   C1612     1.0  0.54241  0.40925  0.65336  1.0000
  H   H2742     1.0  0.70596  0.44751  0.65587  1.0000
  H   H2743     1.0  0.75294  0.42231  0.65316  1.0000
  H   H2744     1.0  0.52556  0.40774  0.62959  1.0000
  H   H2745     1.0  0.52764  0.38715  0.64476  1.0000
  N   N118      1.0  0.55999  0.48868  0.45837  1.0000
  H   H2746     1.0  0.51202  0.40659  0.65220  1.0000
  C   C1613     1.0  0.91207  0.24792  0.58812  1.0000
  H   H2747     1.0  0.50812  0.26075  0.63982  1.0000
  H   H2748     1.0  0.73857  0.37678  0.63846  1.0000
  H   H2749     1.0  0.74934  0.39593  0.62651  1.0000
  H   H2750     1.0  0.52235  0.49377  0.44732  1.0000
  S   S461      1.0  0.99272  0.24546  0.64945  1.0000
  H   H2751     1.0  0.87452  0.41980  0.65298  1.0000
  H   H2752     1.0  0.71511  0.39731  0.65606  1.0000
  C   C1614     1.0  0.87667  0.40459  0.65657  1.0000
  H   H2753     1.0  0.72771  0.24428  0.53677  1.0000
  H   H2754     1.0  0.90072  0.35527  0.32438  1.0000
  H   H2755     1.0  0.52705  0.30802  0.88836  1.0000
  S   S462      1.0  0.97151  0.40986  0.77950  1.0000
  Fe  Fe233     1.0  0.83933  0.48016  0.75200  1.0000
  H   H2756     1.0  0.74608  0.42020  0.68671  1.0000
  Fe  Fe234     1.0  0.87500  0.45503  0.74055  1.0000
  S   S463      1.0  0.88157  0.47410  0.71539  1.0000
  S   S464      1.0  0.89462  0.42795  0.74094  1.0000
  Fe  Fe235     1.0  0.85091  0.47542  0.71045  1.0000
  S   S465      1.0  0.84655  0.47174  0.67985  1.0000
  S   S466      1.0  0.86944  0.47847  0.75980  1.0000
  S   S467      1.0  0.84452  0.45495  0.73483  1.0000
  H   H2757     1.0  0.72847  0.41514  0.98894  1.0000
  H   H2758     1.0  0.51416  0.36213  0.77656  1.0000
  Fe  Fe236     1.0  0.51699  0.27640  0.86431  1.0000
  S   S468      1.0  0.54536  0.25994  0.86164  1.0000
  S   S469      1.0  0.51124  0.30712  0.85288  1.0000
  Fe  Fe237     1.0  0.49948  0.24438  0.88956  1.0000
  H   H2759     1.0  0.96797  0.45146  0.76730  1.0000
  H   H2760     1.0  0.70127  0.39118  0.94493  1.0000
  H   H2761     1.0  0.93244  0.47299  0.71095  1.0000
  S   S470      1.0  0.51261  0.26994  0.89537  1.0000
  Fe  Fe238     1.0  0.72171  0.46313  0.90051  1.0000
  C   C1615     1.0  0.96712  0.48002  0.75352  1.0000
  S   S471      1.0  0.71472  0.45021  0.93002  1.0000
  Fe  Fe239     1.0  0.74485  0.46546  0.86232  1.0000
  S   S472      1.0  0.76921  0.45143  0.84395  1.0000
  H   H2762     1.0  0.55885  0.38159  0.70793  1.0000
  Fe  Fe240     1.0  0.70293  0.47954  0.86553  1.0000
  H   H2763     1.0  0.51420  0.44003  0.69366  1.0000
  S   S473      1.0  0.74934  0.47423  0.89053  1.0000
  S   S474      1.0  0.71853  0.45160  0.87303  1.0000
  Fe  Fe241     1.0  0.57790  0.42433  0.77021  1.0000
  S   S475      1.0  0.54950  0.41567  0.78198  1.0000
  S   S476      1.0  0.58988  0.42655  0.73962  1.0000
  Fe  Fe242     1.0  0.59031  0.43065  0.80888  1.0000
  S   S477      1.0  0.56248  0.42246  0.82309  1.0000
  S   S478      1.0  0.61409  0.43385  0.82755  1.0000
  Fe  Fe243     1.0  0.56509  0.39872  0.80438  1.0000
  S   S479      1.0  0.56527  0.36714  0.81296  1.0000
  Fe  Fe244     1.0  0.54864  0.44023  0.79989  1.0000
  S   S480      1.0  0.52107  0.45857  0.80840  1.0000
  S   S481      1.0  0.59362  0.40597  0.79128  1.0000
  S   S482      1.0  0.57635  0.44984  0.78691  1.0000
  H   H2764     1.0  0.80760  0.46151  0.68951  1.0000
  C   C1616     1.0  0.66065  0.46944  0.84165  1.0000
  C   C1617     1.0  0.64848  0.47620  0.82791  1.0000
  C   C1618     1.0  0.63443  0.46548  0.82315  1.0000
  C   C1619     1.0  0.63219  0.44781  0.83218  1.0000
  C   C1620     1.0  0.64442  0.44101  0.84583  1.0000
  C   C1621     1.0  0.65859  0.45166  0.85047  1.0000
  H   H2765     1.0  0.83074  0.49199  0.81852  1.0000
  H   H2766     1.0  0.62525  0.47097  0.81260  1.0000
  H   H2767     1.0  0.64288  0.42740  0.85298  1.0000
  H   H2768     1.0  0.66774  0.44618  0.86107  1.0000
  C   C1622     1.0  0.52628  0.32353  0.84121  1.0000
  C   C1623     1.0  0.54456  0.31812  0.83345  1.0000
  C   C1624     1.0  0.55624  0.33171  0.82515  1.0000
  C   C1625     1.0  0.54978  0.35088  0.82409  1.0000
  C   C1626     1.0  0.53136  0.35629  0.83143  1.0000
  C   C1627     1.0  0.51974  0.34269  0.83995  1.0000
  H   H2769     1.0  0.54968  0.30344  0.83390  1.0000
  H   H2770     1.0  0.57042  0.32732  0.81946  1.0000
  H   H2771     1.0  0.52606  0.37093  0.83063  1.0000
  H   H2772     1.0  0.52493  0.45357  0.66545  1.0000
  H   H2773     1.0  0.54049  0.31993  0.79014  1.0000
  H   H2774     1.0  0.85614  0.39305  0.71049  1.0000
  H   H2775     1.0  0.69602  0.36840  0.93879  1.0000
  C   C1628     1.0  0.57997  0.25963  0.94410  1.0000
  C   C1629     1.0  0.83642  0.41084  0.68520  1.0000
  H   H2776     1.0  0.55417  0.26571  0.98804  1.0000
  C   C1630     1.0  0.70210  0.32996  0.96239  1.0000
  C   C1631     1.0  0.80000  0.47691  0.79024  1.0000
  H   H2777     1.0  0.59894  0.36332  0.77343  1.0000
  C   C1632     1.0  0.77260  0.47751  0.81355  1.0000
  C   C1633     1.0  0.78047  0.46129  0.82297  1.0000
  C   C1634     1.0  0.79795  0.45273  0.81571  1.0000
  C   C1635     1.0  0.80773  0.46053  0.79950  1.0000
  H   H2778     1.0  0.80415  0.44014  0.82284  1.0000
  H   H2779     1.0  0.82134  0.45400  0.79430  1.0000
  C   C1636     1.0  0.50876  0.48068  0.80150  1.0000
  S   S483      1.0  0.55886  0.26101  0.91425  1.0000
  H   H2780     1.0  0.68920  0.34245  0.98659  1.0000
  C   C1637     1.0  0.74913  0.40675  0.96676  1.0000
  C   C1638     1.0  0.73307  0.41731  0.97432  1.0000
  C   C1639     1.0  0.72274  0.43050  0.96283  1.0000
  C   C1640     1.0  0.72856  0.43363  0.94379  1.0000
  C   C1641     1.0  0.74486  0.42340  0.93632  1.0000
  C   C1642     1.0  0.75498  0.40992  0.94773  1.0000
  H   H2781     1.0  0.85419  0.43175  0.67367  1.0000
  H   H2782     1.0  0.71016  0.43837  0.96875  1.0000
  H   H2783     1.0  0.74950  0.42563  0.92169  1.0000
  H   H2784     1.0  0.76736  0.40181  0.94173  1.0000
  C   C1643     1.0  0.95034  0.41480  0.76841  1.0000
  C   C1644     1.0  0.94740  0.40619  0.75248  1.0000
  C   C1645     1.0  0.93032  0.41046  0.74417  1.0000
  C   C1646     1.0  0.91616  0.42365  0.75145  1.0000
  C   C1647     1.0  0.91919  0.43244  0.76724  1.0000
  C   C1648     1.0  0.93612  0.42790  0.77576  1.0000
  H   H2785     1.0  0.95817  0.39603  0.74672  1.0000
  H   H2786     1.0  0.92808  0.40346  0.73206  1.0000
  H   H2787     1.0  0.90828  0.44236  0.77317  1.0000
  H   H2788     1.0  0.93820  0.43451  0.78817  1.0000
  C   C1649     1.0  0.58219  0.39196  0.69046  1.0000
  C   C1650     1.0  0.59627  0.40419  0.68913  1.0000
  C   C1651     1.0  0.59839  0.41465  0.70429  1.0000
  C   C1652     1.0  0.58660  0.41294  0.72100  1.0000
  C   C1653     1.0  0.57233  0.40094  0.72221  1.0000
  C   C1654     1.0  0.57010  0.39061  0.70699  1.0000
  H   H2789     1.0  0.60558  0.40553  0.67646  1.0000
  H   H2790     1.0  0.60937  0.42402  0.70315  1.0000
  H   H2791     1.0  0.56290  0.39988  0.73481  1.0000
  H   H2792     1.0  0.74053  0.47000  0.79482  1.0000
  N   N119      1.0  0.71567  0.45526  0.80248  1.0000
  C   C1655     1.0  0.82938  0.46353  0.66693  1.0000
  C   C1656     1.0  0.70617  0.43991  0.79535  1.0000
  C   C1657     1.0  0.73378  0.45807  0.79048  1.0000
  C   C1658     1.0  0.71924  0.45164  0.82273  1.0000
  H   H2793     1.0  0.51976  0.33898  0.76953  1.0000
  C   C1659     1.0  0.68669  0.43633  0.80552  1.0000
  C   C1660     1.0  0.74940  0.44167  0.79063  1.0000
  C   C1661     1.0  0.72541  0.43118  0.82962  1.0000
  H   H2794     1.0  0.59363  0.47944  0.86729  1.0000
  H   H2795     1.0  0.52973  0.48918  0.77998  1.0000
  H   H2796     1.0  0.71500  0.42636  0.79575  1.0000
  H   H2797     1.0  0.70412  0.44308  0.78032  1.0000
  H   H2798     1.0  0.73086  0.46175  0.77572  1.0000
  H   H2799     1.0  0.70314  0.48139  0.95938  1.0000
  H   H2800     1.0  0.73008  0.46049  0.82618  1.0000
  H   H2801     1.0  0.70622  0.45594  0.83174  1.0000
  C   C1662     1.0  0.58656  0.36342  0.76531  1.0000
  S   S484      1.0  0.67803  0.48382  0.84712  1.0000
  C   C1663     1.0  0.94952  0.46301  0.73440  1.0000
  H   H2802     1.0  0.67555  0.44741  0.80147  1.0000
  H   H2803     1.0  0.68246  0.42294  0.80147  1.0000
  H   H2804     1.0  0.68674  0.43523  0.82085  1.0000
  H   H2805     1.0  0.76150  0.44552  0.78069  1.0000
  H   H2806     1.0  0.74488  0.42869  0.78610  1.0000
  H   H2807     1.0  0.75503  0.43913  0.80444  1.0000
  H   H2808     1.0  0.73627  0.43122  0.83953  1.0000
  H   H2809     1.0  0.73177  0.42192  0.81882  1.0000
  H   H2810     1.0  0.71344  0.42475  0.83777  1.0000
  H   H2811     1.0  0.50974  0.41908  0.68433  1.0000
  H   H2812     1.0  0.55206  0.32646  0.91270  1.0000
  H   H2813     1.0  0.89430  0.39458  0.67870  1.0000
  H   H2814     1.0  0.72117  0.42401  0.68560  1.0000
  H   H2815     1.0  0.69946  0.42534  0.66476  1.0000
  H   H2816     1.0  0.87962  0.44639  0.66901  1.0000
  C   C1664     1.0  0.70259  0.47302  0.80018  1.0000
  H   H2817     1.0  0.64989  0.48991  0.82093  1.0000
  H   H2818     1.0  0.72271  0.48921  0.98000  1.0000
  H   H2819     1.0  0.55171  0.30145  0.86824  1.0000
  H   H2820     1.0  0.84757  0.43303  0.69751  1.0000
  C   C1665     1.0  0.71983  0.36742  0.95624  1.0000
  H   H2821     1.0  0.58117  0.35128  0.71653  1.0000
  H   H2822     1.0  0.53363  0.48543  0.85655  1.0000
  C   C1666     1.0  0.74069  0.33989  0.97989  1.0000
  S   S485      1.0  0.72931  0.49278  0.85366  1.0000
  H   H2823     1.0  0.70737  0.31842  0.97226  1.0000
  H   H2824     1.0  0.69514  0.48852  0.93717  1.0000
  H   H2825     1.0  0.57648  0.37536  0.76966  1.0000
  C   C1667     1.0  0.52989  0.31857  0.89771  1.0000
  H   H2826     1.0  0.54250  0.40192  0.66750  1.0000
  H   H2827     1.0  0.51201  0.25218  0.68208  1.0000
  H   H2828     1.0  0.52587  0.33274  0.89132  1.0000
  H   H2829     1.0  0.55579  0.46381  0.66539  1.0000
  C   C1668     1.0  0.51056  0.26152  0.66924  1.0000
  C   C1669     1.0  0.73447  0.41776  0.67839  1.0000
  S   S486      1.0  0.76153  0.38863  0.98020  1.0000
  C   C1670     1.0  0.56015  0.43289  0.66330  1.0000
  H   H2830     1.0  0.50558  0.34708  0.84574  1.0000
  H   H2831     1.0  0.94948  0.45058  0.74451  1.0000
  H   H2832     1.0  0.52197  0.27096  0.66721  1.0000
  H   H2833     1.0  0.78464  0.45034  0.67034  1.0000
  H   H2834     1.0  0.58247  0.30916  0.84965  1.0000
  H   H2835     1.0  0.87200  0.38544  0.68039  1.0000
  H   H2836     1.0  0.54726  0.34912  0.73505  1.0000
  H   H2837     1.0  0.58915  0.33335  0.76484  1.0000
  H   H2838     1.0  0.57877  0.28501  0.85220  1.0000
  C   C1671     1.0  0.51618  0.49304  0.78738  1.0000
  C   C1672     1.0  0.57637  0.34093  0.72778  1.0000
  H   H2839     1.0  0.59507  0.29323  0.86583  1.0000
  H   H2840     1.0  0.59716  0.25941  0.96710  1.0000
  H   H2841     1.0  0.56449  0.28722  0.88435  1.0000
  H   H2842     1.0  0.93123  0.46859  0.76749  1.0000
  H   H2843     1.0  0.59162  0.28623  0.89836  1.0000
  H   H2844     1.0  0.73420  0.40241  0.67850  1.0000
  H   H2845     1.0  0.54876  0.35398  0.89484  1.0000
  H   H2846     1.0  0.57372  0.35579  0.88835  1.0000
  C   C1673     1.0  0.54432  0.35464  0.77202  1.0000
  H   H2847     1.0  0.75101  0.34815  0.97117  1.0000
  C   C1674     1.0  0.52050  0.42912  0.68428  1.0000
  H   H2848     1.0  0.75918  0.48427  0.81894  1.0000
  N   N120      1.0  0.70962  0.36117  0.97458  1.0000
  H   H2849     1.0  0.86321  0.41216  0.72115  1.0000
  H   H2850     1.0  0.98285  0.32011  0.70061  1.0000
  H   H2851     1.0  0.53094  0.45336  0.86863  1.0000
  H   H2852     1.0  0.58167  0.48790  0.80715  1.0000
  H   H2853     1.0  0.54445  0.35085  0.78717  1.0000
  H   H2854     1.0  0.57630  0.34191  0.78474  1.0000
  C   C1675     1.0  0.56068  0.35056  0.74105  1.0000
  H   H2855     1.0  0.56082  0.49059  0.79515  1.0000
  H   H2856     1.0  0.88859  0.37713  0.70802  1.0000
  H   H2857     1.0  0.58187  0.29764  0.91895  1.0000
  N   N121      1.0  0.94901  0.48066  0.74436  1.0000
  C   C1676     1.0  0.79849  0.45310  0.66401  1.0000
  H   H2858     1.0  0.79171  0.49015  0.83983  1.0000
  H   H2859     1.0  0.55044  0.45010  0.68687  1.0000
  N   N122      1.0  0.55978  0.34311  0.76111  1.0000
  C   C1677     1.0  0.69925  0.37841  0.98274  1.0000
  H   H2860     1.0  0.74125  0.46154  0.97684  1.0000
  H   H2861     1.0  0.68276  0.35486  0.96607  1.0000
  H   H2862     1.0  0.55469  0.44582  0.86055  1.0000
  H   H2863     1.0  0.59166  0.36592  0.75043  1.0000
  H   H2864     1.0  0.96291  0.46060  0.72532  1.0000
  C   C1678     1.0  0.56646  0.49296  0.80841  1.0000
  H   H2865     1.0  0.88017  0.38253  0.73118  1.0000
  N   N123      1.0  0.56226  0.48264  0.84351  1.0000
  H   H2866     1.0  0.99322  0.28320  0.78589  1.0000
  C   C1679     1.0  0.96895  0.46601  0.77068  1.0000
  C   C1680     1.0  0.85267  0.42292  0.68682  1.0000
  H   H2867     1.0  0.54665  0.36972  0.77033  1.0000
  H   H2868     1.0  0.55576  0.46769  0.82063  1.0000
  C   C1681     1.0  0.89148  0.43827  0.67564  1.0000
  H   H2869     1.0  0.56170  0.36589  0.73965  1.0000
  C   C1682     1.0  0.93196  0.48174  0.75840  1.0000
  H   H2870     1.0  0.90048  0.44871  0.67953  1.0000
  H   H2871     1.0  0.49710  0.27058  0.67151  1.0000
  H   H2872     1.0  0.96953  0.49403  0.75766  1.0000
  H   H2873     1.0  0.98308  0.46628  0.77569  1.0000
  H   H2874     1.0  0.55219  0.30217  0.91069  1.0000
  C   C1683     1.0  0.93129  0.32008  0.97121  1.0000
  H   H2875     1.0  0.73012  0.37736  0.95853  1.0000
  H   H2876     1.0  0.60545  0.30035  0.90950  1.0000
  S   S487      1.0  0.57856  0.37861  0.67177  1.0000
  H   H2877     1.0  0.92290  0.30818  0.97057  1.0000
  H   H2878     1.0  0.55663  0.36476  0.87281  1.0000
  C   C1684     1.0  0.81150  0.45947  0.67495  1.0000
  C   C1685     1.0  0.88503  0.42643  0.69333  1.0000
  H   H2879     1.0  0.69003  0.32531  0.95606  1.0000
  C   C1686     1.0  0.55295  0.31330  0.78189  1.0000
  H   H2880     1.0  0.84093  0.39837  0.67733  1.0000
  N   N124      1.0  0.87121  0.41244  0.69139  1.0000
  C   C1687     1.0  0.93310  0.46183  0.72241  1.0000
  H   H2881     1.0  0.52033  0.31660  0.91063  1.0000
  H   H2882     1.0  0.72895  0.48770  0.93403  1.0000
  C   C1688     1.0  0.52401  0.35339  0.76717  1.0000
  H   H2883     1.0  0.81492  0.48615  0.84622  1.0000
  H   H2884     1.0  0.56330  0.42130  0.67392  1.0000
  C   C1689     1.0  0.57809  0.34451  0.76935  1.0000
  H   H2885     1.0  0.53315  0.42206  0.69051  1.0000
  C   C1690     1.0  0.59204  0.25111  0.95726  1.0000
  H   H2886     1.0  0.94438  0.31673  0.96198  1.0000
  H   H2887     1.0  0.89709  0.39609  0.71862  1.0000
  H   H2888     1.0  0.91933  0.46201  0.73090  1.0000
  C   C1691     1.0  0.58021  0.46968  0.84413  1.0000
  H   H2889     1.0  0.57865  0.46072  0.87425  1.0000
  C   C1692     1.0  0.98541  0.31177  0.77515  1.0000
  H   H2890     1.0  0.58917  0.33542  0.73455  1.0000
  H   H2891     1.0  0.71288  0.33207  0.95060  1.0000
  H   H2892     1.0  0.68924  0.47205  0.80935  1.0000
  H   H2893     1.0  0.52187  0.35905  0.75277  1.0000
  C   C1693     1.0  0.69528  0.34772  0.97261  1.0000
  H   H2894     1.0  0.89824  0.41952  0.69858  1.0000
  H   H2895     1.0  0.87901  0.43636  0.70389  1.0000
  H   H2896     1.0  0.69832  0.47525  0.78571  1.0000
  S   S488      1.0  0.81217  0.48827  0.77059  1.0000
  C   C1694     1.0  0.55987  0.45078  0.67375  1.0000
  H   H2897     1.0  0.57106  0.32927  0.72137  1.0000
  C   C1695     1.0  0.55601  0.32287  0.76212  1.0000
  H   H2898     1.0  0.56563  0.31298  0.78957  1.0000
  N   N125      1.0  0.56543  0.31697  0.88642  1.0000
  C   C1696     1.0  0.58437  0.31696  0.89380  1.0000
  C   C1697     1.0  0.56184  0.33452  0.87395  1.0000
  C   C1698     1.0  0.56494  0.30033  0.87522  1.0000
  C   C1699     1.0  0.55052  0.31599  0.90265  1.0000
  C   C1700     1.0  0.59098  0.29919  0.90573  1.0000
  C   C1701     1.0  0.56019  0.35314  0.88334  1.0000
  C   C1702     1.0  0.58137  0.29702  0.85995  1.0000
  H   H2899     1.0  0.94006  0.33739  0.99040  1.0000
  H   H2900     1.0  0.59555  0.31940  0.88227  1.0000
  H   H2901     1.0  0.58430  0.32874  0.90280  1.0000
  H   H2902     1.0  0.54876  0.33424  0.86697  1.0000
  H   H2903     1.0  0.57327  0.33557  0.86243  1.0000
  C   C1703     1.0  0.70733  0.37697  0.94136  1.0000
  H   H2904     1.0  0.57576  0.27447  0.94410  1.0000
  C   C1704     1.0  0.54251  0.45611  0.85765  1.0000
  C   C1705     1.0  0.52480  0.43830  0.66444  1.0000
  C   C1706     1.0  0.73824  0.42708  0.65861  1.0000
  H   H2905     1.0  0.82967  0.40650  0.69913  1.0000
  C   C1707     1.0  0.86779  0.40210  0.71026  1.0000
  C   C1708     1.0  0.88453  0.38884  0.71709  1.0000
  H   H2906     1.0  0.91876  0.48290  0.75130  1.0000
  H   H2907     1.0  0.54358  0.32108  0.75460  1.0000
  H   H2908     1.0  0.59154  0.47488  0.83399  1.0000
  H   H2909     1.0  0.97952  0.47621  0.74351  1.0000
  H   H2910     1.0  0.82530  0.41937  0.67771  1.0000
  C   C1709     1.0  0.58858  0.46654  0.86309  1.0000
  H   H2911     1.0  0.74260  0.46797  0.95294  1.0000
  H   H2912     1.0  0.73852  0.44224  0.66034  1.0000
  C   C1710     1.0  0.78226  0.48517  0.79723  1.0000
  H   H2913     1.0  0.95837  0.46967  0.78241  1.0000
  H   H2914     1.0  0.93520  0.44825  0.71590  1.0000
  H   H2915     1.0  0.96316  0.48698  0.70565  1.0000
  C   C1711     1.0  0.87900  0.39859  0.67734  1.0000
  H   H2916     1.0  0.99358  0.29608  0.67804  1.0000
  H   H2917     1.0  0.97079  0.30820  0.77933  1.0000
  H   H2918     1.0  0.92366  0.33309  0.96530  1.0000
  H   H2919     1.0  0.55029  0.29853  0.78086  1.0000
  H   H2920     1.0  0.56799  0.31441  0.75478  1.0000
  H   H2921     1.0  0.53738  0.45359  0.84423  1.0000
  C   C1712     1.0  0.74605  0.47252  0.96627  1.0000
  H   H2922     1.0  0.57824  0.45567  0.83963  1.0000
  C   C1713     1.0  0.72374  0.35282  0.98787  1.0000
  H   H2923     1.0  0.89438  0.32742  0.98069  1.0000
  H   H2924     1.0  0.73664  0.32885  0.97187  1.0000
  S   S489      1.0  0.70444  0.49059  0.89373  1.0000
  S   S490      1.0  0.50102  0.25219  0.85857  1.0000
  H   H2925     1.0  0.98818  0.32142  0.78541  1.0000
  H   H2926     1.0  0.90031  0.42958  0.66551  1.0000
  H   H2927     1.0  0.60114  0.45609  0.86180  1.0000
  H   H2928     1.0  0.98593  0.31929  0.76110  1.0000
  H   H2929     1.0  0.71627  0.37895  0.92801  1.0000
  C   C1714     1.0  0.71019  0.49123  0.80461  1.0000
  H   H2930     1.0  0.70922  0.38908  0.98374  1.0000
  H   H2931     1.0  0.71623  0.48978  0.81815  1.0000
  H   H2932     1.0  0.72862  0.35574  0.94966  1.0000
  H   H2933     1.0  0.76160  0.47235  0.96611  1.0000
  H   H2934     1.0  0.68850  0.38518  0.97363  1.0000
  Fe  Fe245     1.0  0.54053  0.25242  0.89260  1.0000
  H   H2935     1.0  0.57428  0.45176  0.67783  1.0000
  H   H2936     1.0  0.79190  0.47687  0.87150  1.0000
  C   C1715     1.0  0.70188  0.49339  0.94882  1.0000
  C   C1716     1.0  0.79407  0.49194  0.86890  1.0000
  H   H2937     1.0  0.76505  0.48572  0.93594  1.0000
  C   C1717     1.0  0.55536  0.48233  0.82454  1.0000
  C   C1718     1.0  0.54714  0.47648  0.85805  1.0000
  C   C1719     1.0  0.57336  0.24914  0.93097  1.0000
  C   C1720     1.0  0.73605  0.49171  0.97127  1.0000
  H   H2938     1.0  0.54023  0.48781  0.82445  1.0000
  H   H2939     1.0  0.55076  0.47843  0.87230  1.0000
  H   H2940     1.0  0.76412  0.63624  0.03353  1.0000
  S   S491      1.0  0.71115  0.51602  0.12896  1.0000
  Fe  Fe246     1.0  0.75430  0.53113  0.15157  1.0000
  S   S492      1.0  0.72834  0.55091  0.14647  1.0000
  S   S493      1.0  0.78088  0.53987  0.16267  1.0000
  Fe  Fe247     1.0  0.71153  0.52685  0.15730  1.0000
  S   S494      1.0  0.68792  0.53353  0.18048  1.0000
  Fe  Fe248     1.0  0.72943  0.53913  0.11850  1.0000
  S   S495      1.0  0.72097  0.55508  0.09153  1.0000
  S   S496      1.0  0.71622  0.66814  0.99435  1.0000
  S   S497      1.0  0.75668  0.52152  0.12242  1.0000
  Fe  Fe249     1.0  0.51127  0.71203  0.15472  1.0000
  H   H2941     1.0  0.92383  0.51935  0.23570  1.0000
  H   H2942     1.0  0.74597  0.57576  0.24932  1.0000
  H   H2943     1.0  0.54995  0.65160  0.21907  1.0000
  S   S498      1.0  0.55499  0.72400  0.09790  1.0000
  H   H2944     1.0  0.52075  0.59881  0.28413  1.0000
  Fe  Fe250     1.0  0.55475  0.55912  0.24834  1.0000
  S   S499      1.0  0.57463  0.57084  0.22527  1.0000
  S   S500      1.0  0.55238  0.56435  0.27958  1.0000
  Fe  Fe251     1.0  0.53109  0.54271  0.22084  1.0000
  S   S501      1.0  0.54931  0.55409  0.19600  1.0000
  H   H2945     1.0  0.99295  0.66825  0.28544  1.0000
  Fe  Fe252     1.0  0.57428  0.54370  0.21208  1.0000
  S   S502      1.0  0.59849  0.52890  0.19374  1.0000
  Fe  Fe253     1.0  0.54877  0.58073  0.21036  1.0000
  S   S503      1.0  0.55232  0.60963  0.19513  1.0000
  S   S504      1.0  0.55607  0.53087  0.23631  1.0000
  S   S505      1.0  0.52880  0.57048  0.23411  1.0000
  H   H2946     1.0  0.77558  0.53329  0.26707  1.0000
  S   S506      1.0  0.88250  0.51444  0.24227  1.0000
  Fe  Fe254     1.0  0.85570  0.53692  0.28603  1.0000
  S   S507      1.0  0.85437  0.55010  0.25659  1.0000
  H   H2947     1.0  0.95220  0.73541  0.04581  1.0000
  Fe  Fe255     1.0  0.85108  0.52122  0.24834  1.0000
  S   S508      1.0  0.82738  0.51180  0.23282  1.0000
  Fe  Fe256     1.0  0.88594  0.54236  0.25298  1.0000
  S   S509      1.0  0.90863  0.55874  0.23626  1.0000
  S   S510      1.0  0.85125  0.50832  0.27792  1.0000
  S   S511      1.0  0.88744  0.53137  0.28275  1.0000
  H   H2948     1.0  0.75004  0.50824  0.03478  1.0000
  S   S512      1.0  0.96873  0.60752  0.26422  1.0000
  H   H2949     1.0  0.95063  0.68299  0.28802  1.0000
  S   S513      1.0  0.77134  0.59533  0.02552  1.0000
  N   N126      1.0  0.97561  0.66167  0.31088  1.0000
  H   H2950     1.0  0.63933  0.56810  0.14199  1.0000
  H   H2951     1.0  0.71298  0.61101  0.05977  1.0000
  H   H2952     1.0  0.96078  0.54091  0.28597  1.0000
  H   H2953     1.0  0.76099  0.53883  0.02841  1.0000
  C   C1721     1.0  0.96235  0.53220  0.21880  1.0000
  H   H2954     1.0  0.70407  0.65986  0.07103  1.0000
  Fe  Fe257     1.0  0.88288  0.50373  0.27215  1.0000
  C   C1722     1.0  0.92529  0.57210  0.24443  1.0000
  C   C1723     1.0  0.93827  0.58072  0.23143  1.0000
  C   C1724     1.0  0.95168  0.59152  0.23719  1.0000
  C   C1725     1.0  0.95222  0.59396  0.25607  1.0000
  C   C1726     1.0  0.93940  0.58515  0.26910  1.0000
  C   C1727     1.0  0.92608  0.57423  0.26335  1.0000
  H   H2955     1.0  0.93777  0.57925  0.21674  1.0000
  H   H2956     1.0  0.96134  0.59827  0.22697  1.0000
  H   H2957     1.0  0.93966  0.58691  0.28376  1.0000
  H   H2958     1.0  0.91622  0.56772  0.27354  1.0000
  H   H2959     1.0  0.63154  0.57808  0.12037  1.0000
  H   H2960     1.0  0.72889  0.65832  0.06775  1.0000
  Fe  Fe258     1.0  0.73856  0.49905  0.13447  1.0000
  H   H2961     1.0  0.79678  0.56891  0.28965  1.0000
  H   H2962     1.0  0.93656  0.65331  0.29694  1.0000
  C   C1728     1.0  0.75709  0.56419  0.25212  1.0000
  H   H2963     1.0  0.93767  0.63506  0.31479  1.0000
  H   H2964     1.0  0.57268  0.71634  0.06165  1.0000
  C   C1729     1.0  0.51622  0.66361  0.17603  1.0000
  C   C1730     1.0  0.50741  0.64819  0.18481  1.0000
  C   C1731     1.0  0.51811  0.63149  0.19063  1.0000
  C   C1732     1.0  0.53783  0.62999  0.18769  1.0000
  C   C1733     1.0  0.54661  0.64539  0.17888  1.0000
  C   C1734     1.0  0.53592  0.66208  0.17311  1.0000
  H   H2965     1.0  0.96724  0.53957  0.20538  1.0000
  H   H2966     1.0  0.51112  0.61981  0.19737  1.0000
  H   H2967     1.0  0.79239  0.50236  0.22174  1.0000
  H   H2968     1.0  0.54293  0.67377  0.16639  1.0000
  C   C1735     1.0  0.79305  0.53249  0.18280  1.0000
  C   C1736     1.0  0.80999  0.54008  0.18495  1.0000
  C   C1737     1.0  0.82057  0.53415  0.20020  1.0000
  C   C1738     1.0  0.81442  0.52039  0.21352  1.0000
  C   C1739     1.0  0.79738  0.51293  0.21149  1.0000
  C   C1740     1.0  0.78670  0.51900  0.19634  1.0000
  H   H2969     1.0  0.81507  0.55054  0.17462  1.0000
  H   H2970     1.0  0.83363  0.54005  0.20148  1.0000
  H   H2971     1.0  0.97460  0.52987  0.22715  1.0000
  H   H2972     1.0  0.77360  0.51317  0.19508  1.0000
  C   C1741     1.0  0.73529  0.56632  0.07351  1.0000
  C   C1742     1.0  0.72733  0.57312  0.05699  1.0000
  C   C1743     1.0  0.73820  0.58183  0.04209  1.0000
  C   C1744     1.0  0.75713  0.58407  0.04367  1.0000
  C   C1745     1.0  0.76511  0.57721  0.06017  1.0000
  C   C1746     1.0  0.75428  0.56832  0.07502  1.0000
  H   H2973     1.0  0.71269  0.57149  0.05564  1.0000
  H   H2974     1.0  0.73195  0.58681  0.02940  1.0000
  H   H2975     1.0  0.77975  0.57887  0.06152  1.0000
  H   H2976     1.0  0.76058  0.56318  0.08765  1.0000
  C   C1747     1.0  0.66299  0.53241  0.18356  1.0000
  C   C1748     1.0  0.65287  0.53869  0.19996  1.0000
  C   C1749     1.0  0.63317  0.53787  0.20327  1.0000
  C   C1750     1.0  0.62329  0.53068  0.19022  1.0000
  C   C1751     1.0  0.63340  0.52446  0.17379  1.0000
  C   C1752     1.0  0.65308  0.52542  0.17040  1.0000
  H   H2977     1.0  0.66038  0.54402  0.21030  1.0000
  H   H2978     1.0  0.62570  0.54246  0.21609  1.0000
  C   C1753     1.0  0.99187  0.70718  0.01744  1.0000
  H   H2979     1.0  0.66062  0.52047  0.15776  1.0000
  C   C1754     1.0  0.97803  0.66593  0.29008  1.0000
  H   H2980     1.0  0.96786  0.74018  0.02583  1.0000
  H   H2981     1.0  0.81944  0.58440  0.25420  1.0000
  C   C1755     1.0  0.58531  0.57442  0.29258  1.0000
  C   C1756     1.0  0.56617  0.57178  0.29642  1.0000
  C   C1757     1.0  0.81020  0.58590  0.26733  1.0000
  H   H2982     1.0  0.70038  0.68004  0.04321  1.0000
  H   H2983     1.0  0.59235  0.57166  0.27902  1.0000
  C   C1758     1.0  0.56556  0.73874  0.07986  1.0000
  H   H2984     1.0  0.61725  0.56264  0.13455  1.0000
  H   H2985     1.0  0.60239  0.63240  0.18007  1.0000
  N   N127      1.0  0.79010  0.55853  0.26409  1.0000
  C   C1759     1.0  0.78438  0.54094  0.27510  1.0000
  C   C1760     1.0  0.77236  0.57159  0.26237  1.0000
  C   C1761     1.0  0.93901  0.52081  0.25962  1.0000
  C   C1762     1.0  0.96671  0.70170  0.99822  1.0000
  H   H2986     1.0  0.77521  0.58529  0.25522  1.0000
  H   H2987     1.0  0.76579  0.57509  0.27644  1.0000
  H   H2988     1.0  0.95615  0.63536  0.29659  1.0000
  H   H2989     1.0  0.79859  0.59714  0.26564  1.0000
  H   H2990     1.0  0.57188  0.63450  0.23364  1.0000
  S   S514      1.0  0.76518  0.64140  0.99243  1.0000
  C   C1763     1.0  0.76084  0.53239  0.04289  1.0000
  H   H2991     1.0  0.77851  0.51817  0.07400  1.0000
  H   H2992     1.0  0.72449  0.51093  0.05279  1.0000
  H   H2993     1.0  0.66340  0.71767  0.99928  1.0000
  H   H2994     1.0  0.80780  0.53116  0.29228  1.0000
  H   H2995     1.0  0.77304  0.53705  0.04890  1.0000
  C   C1764     1.0  0.73005  0.61995  0.07878  1.0000
  Fe  Fe259     1.0  0.53438  0.73248  0.12262  1.0000
  H   H2996     1.0  0.73317  0.63225  0.08569  1.0000
  H   H2997     1.0  0.68807  0.61418  0.04246  1.0000
  H   H2998     1.0  0.53632  0.66543  0.23676  1.0000
  H   H2999     1.0  0.71928  0.68796  0.05382  1.0000
  H   H3000     1.0  0.70063  0.62713  0.07501  1.0000
  H   H3001     1.0  0.98341  0.73773  0.05611  1.0000
  C   C1765     1.0  0.57305  0.73111  0.06311  1.0000
  H   H3002     1.0  0.72576  0.60931  0.08997  1.0000
  H   H3003     1.0  0.52023  0.62367  0.28411  1.0000
  H   H3004     1.0  0.56380  0.61276  0.23160  1.0000
  H   H3005     1.0  0.97749  0.56656  0.27230  1.0000
  H   H3006     1.0  0.71569  0.51883  0.07453  1.0000
  H   H3007     1.0  0.65587  0.59314  0.31140  1.0000
  H   H3008     1.0  0.75003  0.55304  0.26076  1.0000
  S   S515      1.0  0.73762  0.50776  0.16387  1.0000
  H   H3009     1.0  0.55561  0.63445  0.28036  1.0000
  H   H3010     1.0  0.69205  0.69860  0.00955  1.0000
  H   H3011     1.0  0.79181  0.50180  0.05955  1.0000
  H   H3012     1.0  0.58429  0.62002  0.26555  1.0000
  C   C1766     1.0  0.58241  0.61274  0.25308  1.0000
  C   C1767     1.0  0.73359  0.63605  0.03783  1.0000
  C   C1768     1.0  0.96562  0.68310  0.28248  1.0000
  C   C1769     1.0  0.56629  0.62248  0.24209  1.0000
  C   C1770     1.0  0.77922  0.50353  0.06989  1.0000
  H   H3013     1.0  0.94500  0.51143  0.27091  1.0000
  H   H3014     1.0  0.97100  0.69632  0.28550  1.0000
  H   H3015     1.0  0.72441  0.67456  0.03379  1.0000
  H   H3016     1.0  0.73157  0.64253  0.02359  1.0000
  C   C1771     1.0  0.69894  0.64183  0.04036  1.0000
  C   C1772     1.0  0.71620  0.65821  0.06017  1.0000
  C   C1773     1.0  0.71505  0.67611  0.04685  1.0000
  H   H3017     1.0  0.68603  0.64664  0.04932  1.0000
  H   H3018     1.0  0.70009  0.65264  0.02855  1.0000
  H   H3019     1.0  0.81525  0.56800  0.22227  1.0000
  H   H3020     1.0  0.79286  0.54193  0.24026  1.0000
  C   C1774     1.0  0.94650  0.64447  0.30560  1.0000
  H   H3021     1.0  0.96518  0.50672  0.20472  1.0000
  C   C1775     1.0  0.51148  0.72955  0.07008  1.0000
  H   H3022     1.0  0.74296  0.61339  0.07115  1.0000
  H   H3023     1.0  0.99249  0.62927  0.29203  1.0000
  H   H3024     1.0  0.60620  0.63104  0.15514  1.0000
  H   H3025     1.0  0.62359  0.62070  0.17020  1.0000
  H   H3026     1.0  0.94208  0.51869  0.20701  1.0000
  S   S516      1.0  0.49511  0.73913  0.16326  1.0000
  S   S517      1.0  0.53932  0.72377  0.15254  1.0000
  H   H3027     1.0  0.97781  0.55024  0.25550  1.0000
  H   H3028     1.0  0.94624  0.66972  0.31922  1.0000
  C   C1776     1.0  0.97490  0.69959  0.01538  1.0000
  H   H3029     1.0  0.68477  0.62777  0.02107  1.0000
  C   C1777     1.0  0.52223  0.61186  0.27500  1.0000
  C   C1778     1.0  0.80425  0.49896  0.13818  1.0000
  N   N128      1.0  0.94946  0.50075  0.23130  1.0000
  S   S518      1.0  0.83607  0.55265  0.30808  1.0000
  C   C1779     1.0  0.71403  0.62439  0.06598  1.0000
  H   H3030     1.0  0.75558  0.63805  0.05718  1.0000
  H   H3031     1.0  0.73621  0.62083  0.03598  1.0000
  H   H3032     1.0  0.75243  0.65788  0.04054  1.0000
  S   S519      1.0  0.50725  0.71890  0.12438  1.0000
  N   N129      1.0  0.60975  0.58786  0.16460  1.0000
  C   C1780     1.0  0.59774  0.57173  0.16797  1.0000
  C   C1781     1.0  0.62684  0.58317  0.17538  1.0000
  C   C1782     1.0  0.61629  0.59107  0.14428  1.0000
  C   C1783     1.0  0.59812  0.60525  0.17085  1.0000
  C   C1784     1.0  0.58030  0.57303  0.15686  1.0000
  C   C1785     1.0  0.62336  0.58459  0.19660  1.0000
  C   C1786     1.0  0.62664  0.57385  0.13501  1.0000
  C   C1787     1.0  0.60827  0.62328  0.16881  1.0000
  H   H3033     1.0  0.60625  0.55831  0.16503  1.0000
  H   H3034     1.0  0.59236  0.56997  0.18289  1.0000
  H   H3035     1.0  0.63836  0.59203  0.17018  1.0000
  H   H3036     1.0  0.63321  0.56863  0.17327  1.0000
  H   H3037     1.0  0.60430  0.59659  0.13608  1.0000
  H   H3038     1.0  0.62614  0.60218  0.14216  1.0000
  H   H3039     1.0  0.58563  0.60853  0.16276  1.0000
  H   H3040     1.0  0.59174  0.60314  0.18544  1.0000
  H   H3041     1.0  0.58387  0.57489  0.14164  1.0000
  H   H3042     1.0  0.57376  0.55963  0.15953  1.0000
  H   H3043     1.0  0.56938  0.58419  0.16152  1.0000
  H   H3044     1.0  0.61964  0.59924  0.20026  1.0000
  H   H3045     1.0  0.61229  0.57579  0.20294  1.0000
  H   H3046     1.0  0.63656  0.57944  0.20304  1.0000
  C   C1788     1.0  0.95460  0.51398  0.21475  1.0000
  H   H3047     1.0  0.67928  0.59061  0.30066  1.0000
  H   H3048     1.0  0.52182  0.71802  0.07495  1.0000
  H   H3049     1.0  0.94877  0.53139  0.25467  1.0000
  C   C1789     1.0  0.75227  0.64251  0.04285  1.0000
  H   H3050     1.0  0.78661  0.49870  0.16378  1.0000
  C   C1790     1.0  0.58091  0.74245  0.04814  1.0000
  H   H3051     1.0  0.56183  0.64446  0.17653  1.0000
  H   H3052     1.0  0.62595  0.51874  0.16364  1.0000
  H   H3053     1.0  0.77550  0.54441  0.28815  1.0000
  H   H3054     1.0  0.70769  0.61662  0.02491  1.0000
  H   H3055     1.0  0.81638  0.55757  0.27652  1.0000
  H   H3056     1.0  0.79759  0.58335  0.23357  1.0000
  H   H3057     1.0  0.77481  0.50629  0.03373  1.0000
  H   H3058     1.0  0.81917  0.59055  0.27741  1.0000
  S   S520      1.0  0.50198  0.68438  0.16911  1.0000
  H   H3059     1.0  0.56569  0.66076  0.24629  1.0000
  H   H3060     1.0  0.99262  0.68441  0.31333  1.0000
  C   C1791     1.0  0.93355  0.50970  0.24396  1.0000
  H   H3061     1.0  0.74750  0.53800  0.05043  1.0000
  N   N130      1.0  0.71619  0.64014  0.05107  1.0000
  C   C1792     1.0  0.66969  0.58488  0.31225  1.0000
  C   C1793     1.0  0.59552  0.58022  0.30647  1.0000
  H   H3062     1.0  0.81787  0.49881  0.17417  1.0000
  C   C1794     1.0  0.67024  0.70658  0.99106  1.0000
  H   H3063     1.0  0.53606  0.64897  0.27228  1.0000
  H   H3064     1.0  0.52510  0.65639  0.21923  1.0000
  C   C1795     1.0  0.55744  0.57521  0.31432  1.0000
  H   H3065     1.0  0.65693  0.62123  0.32203  1.0000
  H   H3066     1.0  0.51933  0.63867  0.24881  1.0000
  C   C1796     1.0  0.80076  0.56888  0.22949  1.0000
  C   C1797     1.0  0.80328  0.56708  0.27517  1.0000
  H   H3067     1.0  0.79474  0.51319  0.28632  1.0000
  H   H3068     1.0  0.92454  0.49907  0.25104  1.0000
  C   C1798     1.0  0.56350  0.65724  0.26142  1.0000
  C   C1799     1.0  0.79985  0.55328  0.24552  1.0000
  C   C1800     1.0  0.76183  0.51097  0.04264  1.0000
  H   H3069     1.0  0.96794  0.69201  0.02718  1.0000
  H   H3070     1.0  0.76279  0.55890  0.23853  1.0000
  H   H3071     1.0  0.61034  0.58200  0.30333  1.0000
  H   H3072     1.0  0.81033  0.51032  0.14435  1.0000
  H   H3073     1.0  0.81106  0.52308  0.26901  1.0000
  C   C1801     1.0  0.97924  0.67909  0.31973  1.0000
  H   H3074     1.0  0.53093  0.62428  0.23145  1.0000
  H   H3075     1.0  0.95102  0.54189  0.22535  1.0000
  H   H3076     1.0  0.97201  0.50601  0.24765  1.0000
  H   H3077     1.0  0.57995  0.59799  0.25736  1.0000
  C   C1802     1.0  0.53673  0.65317  0.22841  1.0000
  H   H3078     1.0  0.79137  0.56646  0.21878  1.0000
  C   C1803     1.0  0.74485  0.50682  0.07458  1.0000
  H   H3079     1.0  0.55756  0.67039  0.26774  1.0000
  C   C1804     1.0  0.80060  0.52645  0.28087  1.0000
  H   H3080     1.0  0.81458  0.54721  0.24713  1.0000
  C   C1805     1.0  0.55012  0.64188  0.26758  1.0000
  H   H3081     1.0  0.51081  0.61293  0.26558  1.0000
  H   H3082     1.0  0.97526  0.65404  0.28237  1.0000
  H   H3083     1.0  0.58663  0.73639  0.03534  1.0000
  C   C1806     1.0  0.69483  0.62394  0.03181  1.0000
  H   H3084     1.0  0.59587  0.61235  0.24397  1.0000
  C   C1807     1.0  0.72501  0.50745  0.06785  1.0000
  H   H3085     1.0  0.92609  0.52855  0.26602  1.0000
  H   H3086     1.0  0.49877  0.72918  0.08012  1.0000
  H   H3087     1.0  0.57738  0.65353  0.26708  1.0000
  C   C1808     1.0  0.68649  0.69570  0.99687  1.0000
  H   H3088     1.0  0.96627  0.68307  0.26708  1.0000
  C   C1809     1.0  0.53317  0.63525  0.24079  1.0000
  C   C1810     1.0  0.54189  0.61028  0.26403  1.0000
  H   H3089     1.0  0.74634  0.52091  0.07924  1.0000
  N   N131      1.0  0.54807  0.62795  0.25360  1.0000
  H   H3090     1.0  0.54209  0.59897  0.25440  1.0000
  N   N132      1.0  0.76149  0.50021  0.06143  1.0000
  H   H3091     1.0  0.55191  0.60481  0.27443  1.0000
  S   S521      1.0  0.50325  0.52855  0.22052  1.0000
  C   C1811     1.0  0.97636  0.53796  0.28355  1.0000
  H   H3092     1.0  0.91442  0.49628  0.21820  1.0000
  C   C1812     1.0  0.98390  0.55248  0.26859  1.0000
  H   H3093     1.0  0.96803  0.69068  0.31719  1.0000
  H   H3094     1.0  0.97930  0.52356  0.27893  1.0000
  H   H3095     1.0  0.54266  0.57322  0.31753  1.0000
  H   H3096     1.0  0.66852  0.57023  0.30914  1.0000
  H   H3097     1.0  0.52148  0.49435  0.20341  1.0000
  C   C1813     1.0  0.99036  0.64626  0.31650  1.0000
  H   H3098     1.0  0.98215  0.53859  0.29708  1.0000
  Fe  Fe260     1.0  0.76179  0.61071  0.99862  1.0000
  H   H3099     1.0  0.97860  0.61999  0.31257  1.0000
  C   C1814     1.0  0.95602  0.65671  0.31782  1.0000
  H   H3100     1.0  0.79628  0.49559  0.09304  1.0000
  H   H3101     1.0  0.98930  0.57217  0.22964  1.0000
  H   H3102     1.0  0.95368  0.69572  0.99700  1.0000
  Fe  Fe261     1.0  0.99372  0.62095  0.24797  1.0000
  H   H3103     1.0  0.50819  0.72631  0.05616  1.0000
  H   H3104     1.0  0.74440  0.49781  0.08781  1.0000
  H   H3105     1.0  0.98982  0.56943  0.30054  1.0000
  C   C1815     1.0  0.99097  0.62761  0.30741  1.0000
  H   H3106     1.0  0.79567  0.50625  0.12736  1.0000
  C   C1816     1.0  0.49477  0.50738  0.21451  1.0000
  H   H3107     1.0  0.52673  0.74418  0.03187  1.0000
  C   C1817     1.0  0.96688  0.49437  0.24112  1.0000
  S   S522      1.0  0.73220  0.61365  0.99061  1.0000
  Fe  Fe262     1.0  0.59684  0.59850  0.37193  1.0000
  S   S523      1.0  0.57106  0.60648  0.39143  1.0000
  S   S524      1.0  0.60071  0.59047  0.34142  1.0000
  Fe  Fe263     1.0  0.62419  0.60694  0.40017  1.0000
  S   S525      1.0  0.60028  0.61552  0.42136  1.0000
  S   S526      1.0  0.65489  0.61206  0.40295  1.0000
  Fe  Fe264     1.0  0.58694  0.59038  0.41399  1.0000
  S   S527      1.0  0.57584  0.57228  0.43951  1.0000
  Fe  Fe265     1.0  0.58609  0.63113  0.39767  1.0000
  S   S528      1.0  0.56908  0.65995  0.39931  1.0000
  S   S529      1.0  0.61200  0.58075  0.39425  1.0000
  S   S530      1.0  0.61066  0.62420  0.37674  1.0000
  H   H3108     1.0  0.53833  0.59083  0.46620  1.0000
  C   C1818     1.0  0.51126  0.65122  0.45776  1.0000
  C   C1819     1.0  0.98048  0.67712  0.34095  1.0000
  C   C1820     1.0  0.64842  0.61968  0.33562  1.0000
  S   S531      1.0  0.88480  0.71097  0.47746  1.0000
  H   H3109     1.0  0.55242  0.51617  0.44520  1.0000
  H   H3110     1.0  0.78963  0.73125  0.52848  1.0000
  S   S532      1.0  0.84753  0.71756  0.50665  1.0000
  Fe  Fe266     1.0  0.87654  0.72734  0.50277  1.0000
  N   N133      1.0  0.54146  0.62835  0.45274  1.0000
  Fe  Fe267     1.0  0.85477  0.70320  0.47988  1.0000
  S   S533      1.0  0.84758  0.67265  0.48025  1.0000
  S   S534      1.0  0.84433  0.72838  0.46179  1.0000
  Fe  Fe268     1.0  0.75814  0.56827  0.43376  1.0000
  S   S535      1.0  0.77771  0.54159  0.43630  1.0000
  S   S536      1.0  0.72747  0.56249  0.43151  1.0000
  Fe  Fe269     1.0  0.78976  0.59250  0.44091  1.0000
  S   S537      1.0  0.81061  0.56710  0.44454  1.0000
  S   S538      1.0  0.79661  0.62329  0.43943  1.0000
  Fe  Fe270     1.0  0.79957  0.55758  0.41903  1.0000
  S   S539      1.0  0.82135  0.54420  0.39721  1.0000
  Fe  Fe271     1.0  0.78700  0.55301  0.46142  1.0000
  S   S540      1.0  0.78806  0.53816  0.49091  1.0000
  S   S541      1.0  0.77950  0.58339  0.41468  1.0000
  S   S542      1.0  0.76675  0.57930  0.45949  1.0000
  H   H3111     1.0  0.54238  0.63140  0.41131  1.0000
  C   C1821     1.0  0.78810  0.51475  0.50153  1.0000
  H   H3112     1.0  0.75916  0.69570  0.46935  1.0000
  H   H3113     1.0  0.92718  0.71504  0.47793  1.0000
  C   C1822     1.0  0.78652  0.51198  0.52111  1.0000
  H   H3114     1.0  0.66574  0.58130  0.37781  1.0000
  H   H3115     1.0  0.75988  0.71273  0.49715  1.0000
  H   H3116     1.0  0.78576  0.52396  0.52932  1.0000
  C   C1823     1.0  0.72282  0.50568  0.49369  1.0000
  Fe  Fe272     1.0  0.87396  0.73705  0.46127  1.0000
  H   H3117     1.0  0.59229  0.49870  0.43214  1.0000
  H   H3118     1.0  0.51814  0.66371  0.45176  1.0000
  H   H3119     1.0  0.94544  0.70084  0.48879  1.0000
  C   C1824     1.0  0.83449  0.65883  0.46774  1.0000
  C   C1825     1.0  0.83252  0.64012  0.47433  1.0000
  C   C1826     1.0  0.82122  0.62896  0.46580  1.0000
  C   C1827     1.0  0.81178  0.63632  0.45042  1.0000
  C   C1828     1.0  0.81408  0.65491  0.44358  1.0000
  C   C1829     1.0  0.82542  0.66604  0.45207  1.0000
  H   H3120     1.0  0.83947  0.63430  0.48640  1.0000
  H   H3121     1.0  0.81958  0.61477  0.47137  1.0000
  H   H3122     1.0  0.80695  0.66078  0.43165  1.0000
  H   H3123     1.0  0.82698  0.68027  0.44659  1.0000
  H   H3124     1.0  0.55787  0.58863  0.47997  1.0000
  C   C1830     1.0  0.81702  0.56069  0.34199  1.0000
  C   C1831     1.0  0.81332  0.55904  0.36158  1.0000
  C   C1832     1.0  0.82475  0.54645  0.37237  1.0000
  C   C1833     1.0  0.83977  0.53544  0.36323  1.0000
  C   C1834     1.0  0.84334  0.53693  0.34363  1.0000
  H   H3125     1.0  0.55046  0.66233  0.46631  1.0000
  H   H3126     1.0  0.80163  0.56751  0.36831  1.0000
  H   H3127     1.0  0.84870  0.52562  0.37138  1.0000
  C   C1835     1.0  0.56104  0.65609  0.45579  1.0000
  H   H3128     1.0  0.94844  0.70904  0.43071  1.0000
  H   H3129     1.0  0.71209  0.50634  0.50596  1.0000
  S   S543      1.0  0.50150  0.52987  0.45925  1.0000
  H   H3130     1.0  0.71577  0.49935  0.48324  1.0000
  H   H3131     1.0  0.80417  0.65143  0.50674  1.0000
  H   H3132     1.0  0.74464  0.53960  0.46506  1.0000
  C   C1836     1.0  0.52180  0.54234  0.45437  1.0000
  C   C1837     1.0  0.53460  0.54327  0.46756  1.0000
  C   C1838     1.0  0.55111  0.55233  0.46266  1.0000
  C   C1839     1.0  0.55482  0.56100  0.44470  1.0000
  C   C1840     1.0  0.54177  0.56053  0.43168  1.0000
  C   C1841     1.0  0.52541  0.55119  0.43649  1.0000
  H   H3133     1.0  0.53184  0.53690  0.48148  1.0000
  H   H3134     1.0  0.56104  0.55272  0.47290  1.0000
  H   H3135     1.0  0.54437  0.56716  0.41783  1.0000
  H   H3136     1.0  0.51555  0.55065  0.42620  1.0000
  H   H3137     1.0  0.56427  0.63757  0.43362  1.0000
  C   C1842     1.0  0.57472  0.68079  0.40836  1.0000
  C   C1843     1.0  0.56139  0.69665  0.40831  1.0000
  C   C1844     1.0  0.56508  0.71339  0.41554  1.0000
  C   C1845     1.0  0.58220  0.71451  0.42297  1.0000
  C   C1846     1.0  0.59548  0.69861  0.42313  1.0000
  C   C1847     1.0  0.59180  0.68188  0.41588  1.0000
  H   H3138     1.0  0.54813  0.69602  0.40254  1.0000
  H   H3139     1.0  0.55471  0.72544  0.41528  1.0000
  H   H3140     1.0  0.60877  0.69924  0.42881  1.0000
  H   H3141     1.0  0.60221  0.66985  0.41606  1.0000
  C   C1848     1.0  0.67452  0.59818  0.41195  1.0000
  C   C1849     1.0  0.69149  0.60634  0.41237  1.0000
  C   C1850     1.0  0.70781  0.59571  0.41832  1.0000
  C   C1851     1.0  0.70735  0.57673  0.42399  1.0000
  C   C1852     1.0  0.69034  0.56859  0.42367  1.0000
  C   C1853     1.0  0.67402  0.57921  0.41770  1.0000
  H   H3142     1.0  0.69208  0.62097  0.40789  1.0000
  H   H3143     1.0  0.72073  0.60220  0.41849  1.0000
  H   H3144     1.0  0.68981  0.55391  0.42795  1.0000
  H   H3145     1.0  0.66113  0.57270  0.41741  1.0000
  H   H3146     1.0  0.65687  0.70992  0.45519  1.0000
  C   C1854     1.0  0.56763  0.58104  0.32820  1.0000
  H   H3147     1.0  0.52308  0.61764  0.41172  1.0000
  H   H3148     1.0  0.56059  0.62300  0.47453  1.0000
  H   H3149     1.0  0.91478  0.71733  0.44159  1.0000
  H   H3150     1.0  0.66226  0.55187  0.33845  1.0000
  H   H3151     1.0  0.74296  0.68743  0.48768  1.0000
  H   H3152     1.0  0.74897  0.52484  0.50717  1.0000
  N   N134      1.0  0.78827  0.69841  0.49555  1.0000
  C   C1855     1.0  0.67873  0.58532  0.33074  1.0000
  C   C1856     1.0  0.79645  0.69911  0.47551  1.0000
  C   C1857     1.0  0.79778  0.68157  0.50592  1.0000
  C   C1858     1.0  0.76706  0.69822  0.49772  1.0000
  H   H3153     1.0  0.74528  0.49469  0.51178  1.0000
  H   H3154     1.0  0.79909  0.72872  0.46660  1.0000
  C   C1859     1.0  0.79416  0.66226  0.50021  1.0000
  C   C1860     1.0  0.75822  0.68805  0.48328  1.0000
  H   H3155     1.0  0.53505  0.50399  0.47132  1.0000
  H   H3156     1.0  0.99048  0.68601  0.65288  1.0000
  H   H3157     1.0  0.79273  0.68727  0.46822  1.0000
  C   C1861     1.0  0.94605  0.73050  0.49188  1.0000
  H   H3158     1.0  0.81336  0.68225  0.50469  1.0000
  H   H3159     1.0  0.65172  0.61059  0.36414  1.0000
  H   H3160     1.0  0.80860  0.71716  0.50070  1.0000
  C   C1862     1.0  0.74186  0.51273  0.45513  1.0000
  C   C1863     1.0  0.95242  0.73602  0.41651  1.0000
  N   N135      1.0  0.72816  0.52502  0.48725  1.0000
  H   H3161     1.0  0.95121  0.71372  0.46720  1.0000
  H   H3162     1.0  0.95596  0.64957  0.33205  1.0000
  H   H3163     1.0  0.50066  0.65598  0.46910  1.0000
  H   H3164     1.0  0.74833  0.55672  0.48868  1.0000
  S   S544      1.0  0.58777  0.73523  0.43233  1.0000
  H   H3165     1.0  0.79651  0.66091  0.48505  1.0000
  H   H3166     1.0  0.77976  0.65878  0.50550  1.0000
  H   H3167     1.0  0.50333  0.64586  0.44733  1.0000
  C   C1864     1.0  0.69969  0.53140  0.46714  1.0000
  C   C1865     1.0  0.55529  0.50027  0.49156  1.0000
  H   H3168     1.0  0.63506  0.61367  0.33418  1.0000
  H   H3169     1.0  0.70388  0.58923  0.35553  1.0000
  H   H3170     1.0  0.74676  0.55662  0.51332  1.0000
  H   H3171     1.0  0.68880  0.59625  0.32869  1.0000
  H   H3172     1.0  0.69370  0.51794  0.47109  1.0000
  C   C1866     1.0  0.98966  0.70019  0.61652  1.0000
  C   C1867     1.0  0.79327  0.71564  0.50374  1.0000
  H   H3173     1.0  0.97873  0.72976  0.46837  1.0000
  H   H3174     1.0  0.79878  0.70755  0.53283  1.0000
  S   S545      1.0  0.50058  0.50798  0.51325  1.0000
  C   C1868     1.0  0.66002  0.60872  0.35045  1.0000
  C   C1869     1.0  0.78847  0.71673  0.52490  1.0000
  C   C1870     1.0  0.67550  0.58028  0.36483  1.0000
  H   H3175     1.0  0.54369  0.65345  0.43404  1.0000
  H   H3176     1.0  0.96063  0.72766  0.49619  1.0000
  H   H3177     1.0  0.81216  0.69750  0.47472  1.0000
  H   H3178     1.0  0.65349  0.55066  0.36288  1.0000
  C   C1871     1.0  0.83202  0.54964  0.33285  1.0000
  H   H3179     1.0  0.80815  0.57058  0.33386  1.0000
  H   H3180     1.0  0.56067  0.58347  0.34187  1.0000
  H   H3181     1.0  0.98859  0.64256  0.33174  1.0000
  H   H3182     1.0  0.97946  0.71245  0.61945  1.0000
  C   C1872     1.0  0.54625  0.59858  0.47487  1.0000
  C   C1873     1.0  0.52528  0.63583  0.46593  1.0000
  N   N136      1.0  0.66549  0.58819  0.34808  1.0000
  C   C1874     1.0  0.65942  0.72456  0.45711  1.0000
  H   H3183     1.0  0.68752  0.57167  0.33243  1.0000
  C   C1875     1.0  0.89942  0.73736  0.54427  1.0000
  C   C1876     1.0  0.52954  0.62729  0.41986  1.0000
  H   H3184     1.0  0.53069  0.64141  0.47802  1.0000
  H   H3185     1.0  0.56299  0.51271  0.48737  1.0000
  H   H3186     1.0  0.66658  0.72949  0.44366  1.0000
  H   H3187     1.0  0.96821  0.67084  0.34859  1.0000
  H   H3188     1.0  0.57963  0.51969  0.42355  1.0000
  H   H3189     1.0  0.85493  0.52833  0.33689  1.0000
  H   H3190     1.0  0.70050  0.58094  0.37942  1.0000
  H   H3191     1.0  0.75751  0.52076  0.47647  1.0000
  H   H3192     1.0  0.63985  0.58312  0.33631  1.0000
  H   H3193     1.0  0.72544  0.53096  0.51644  1.0000
  C   C1877     1.0  0.91645  0.73637  0.55262  1.0000
  C   C1878     1.0  0.73916  0.55347  0.50148  1.0000
  H   H3194     1.0  0.62906  0.72930  0.45642  1.0000
  H   H3195     1.0  0.92904  0.72903  0.54611  1.0000
  S   S546      1.0  0.89926  0.72676  0.52296  1.0000
  C   C1879     1.0  0.73541  0.53270  0.50371  1.0000
  H   H3196     1.0  0.76446  0.67349  0.48187  1.0000
  C   C1880     1.0  0.71091  0.53759  0.48223  1.0000
  C   C1881     1.0  0.64784  0.57842  0.34838  1.0000
  H   H3197     1.0  0.78589  0.72852  0.49719  1.0000
  C   C1882     1.0  0.74347  0.52509  0.47132  1.0000
  H   H3198     1.0  0.69018  0.60361  0.37251  1.0000
  H   H3199     1.0  0.79324  0.68124  0.52105  1.0000
  H   H3200     1.0  0.63370  0.73776  0.42559  1.0000
  H   H3201     1.0  0.70809  0.53109  0.45347  1.0000
  H   H3202     1.0  0.63733  0.73264  0.47759  1.0000
  H   H3203     1.0  0.57313  0.64845  0.46251  1.0000
  H   H3204     1.0  0.66902  0.72438  0.46826  1.0000
  H   H3205     1.0  0.56728  0.60996  0.45476  1.0000
  C   C1883     1.0  0.56524  0.50685  0.44835  1.0000
  H   H3206     1.0  0.72587  0.56292  0.50175  1.0000
  H   H3207     1.0  0.77391  0.71336  0.52952  1.0000
  N   N137      1.0  0.84950  0.59920  0.40331  1.0000
  C   C1884     1.0  0.85745  0.60459  0.42040  1.0000
  C   C1885     1.0  0.86029  0.60772  0.38633  1.0000
  C   C1886     1.0  0.85131  0.57827  0.40230  1.0000
  C   C1887     1.0  0.82886  0.60624  0.40419  1.0000
  C   C1888     1.0  0.84985  0.59504  0.43908  1.0000
  C   C1889     1.0  0.85838  0.62931  0.38403  1.0000
  C   C1890     1.0  0.87130  0.56817  0.40348  1.0000
  C   C1891     1.0  0.81889  0.60450  0.38658  1.0000
  H   H3208     1.0  0.87311  0.60195  0.41922  1.0000
  H   H3209     1.0  0.85437  0.61989  0.42193  1.0000
  H   H3210     1.0  0.85625  0.60245  0.37340  1.0000
  H   H3211     1.0  0.87565  0.60335  0.38644  1.0000
  H   H3212     1.0  0.84175  0.57157  0.41335  1.0000
  H   H3213     1.0  0.84669  0.57454  0.38899  1.0000
  H   H3214     1.0  0.82077  0.59849  0.41568  1.0000
  H   H3215     1.0  0.82658  0.62116  0.40757  1.0000
  H   H3216     1.0  0.83448  0.59861  0.44199  1.0000
  H   H3217     1.0  0.85308  0.57964  0.43984  1.0000
  H   H3218     1.0  0.85662  0.60026  0.45052  1.0000
  H   H3219     1.0  0.86440  0.63544  0.39538  1.0000
  H   H3220     1.0  0.86649  0.63382  0.37082  1.0000
  H   H3221     1.0  0.84359  0.63537  0.38311  1.0000
  H   H3222     1.0  0.87727  0.57022  0.41660  1.0000
  H   H3223     1.0  0.88111  0.57232  0.39138  1.0000
  H   H3224     1.0  0.87043  0.55289  0.40316  1.0000
  H   H3225     1.0  0.82476  0.61299  0.37435  1.0000
  H   H3226     1.0  0.80379  0.60981  0.38920  1.0000
  H   H3227     1.0  0.81932  0.58977  0.38316  1.0000
  C   C1892     1.0  0.69350  0.58922  0.36795  1.0000
  H   H3228     1.0  0.76233  0.69190  0.51175  1.0000
  C   C1893     1.0  0.92272  0.72755  0.43335  1.0000
  H   H3229     1.0  0.63791  0.58211  0.36066  1.0000
  H   H3230     1.0  0.51949  0.63988  0.42143  1.0000
  H   H3231     1.0  0.71482  0.55176  0.47694  1.0000
  H   H3232     1.0  0.54379  0.50442  0.50235  1.0000
  H   H3233     1.0  0.77559  0.72197  0.46595  1.0000
  C   C1894     1.0  0.53456  0.61696  0.43853  1.0000
  H   H3234     1.0  0.99058  0.69902  0.60124  1.0000
  H   H3235     1.0  0.68005  0.56512  0.36394  1.0000
  C   C1895     1.0  0.79083  0.71726  0.46365  1.0000
  C   C1896     1.0  0.94223  0.71430  0.48057  1.0000
  H   H3236     1.0  0.52201  0.60986  0.44453  1.0000
  H   H3237     1.0  0.79046  0.50076  0.47617  1.0000
  H   H3238     1.0  0.67268  0.61637  0.35060  1.0000
  C   C1897     1.0  0.94178  0.72285  0.42707  1.0000
  H   H3239     1.0  0.51672  0.62439  0.47196  1.0000
  H   H3240     1.0  0.53692  0.60293  0.48725  1.0000
  H   H3241     1.0  0.74130  0.52162  0.44188  1.0000
  C   C1898     1.0  0.58681  0.58351  0.32442  1.0000
  S   S547      1.0  0.97686  0.72990  0.41094  1.0000
  H   H3242     1.0  0.57273  0.51479  0.45734  1.0000
  H   H3243     1.0  0.98411  0.68728  0.62327  1.0000
  H   H3244     1.0  0.56681  0.66794  0.44706  1.0000
  C   C1899     1.0  0.55481  0.61547  0.46395  1.0000
  S   S548      1.0  0.94755  0.74003  0.62335  1.0000
  H   H3245     1.0  0.54544  0.60539  0.43445  1.0000
  C   C1900     1.0  0.64037  0.73582  0.46236  1.0000
  H   H3246     1.0  0.70083  0.53962  0.49484  1.0000
  H   H3247     1.0  0.79423  0.71485  0.44867  1.0000
  C   C1901     1.0  0.55244  0.64371  0.44312  1.0000
  H   H3248     1.0  0.64429  0.63407  0.34002  1.0000
  H   H3249     1.0  0.53759  0.49945  0.42665  1.0000
  C   C1902     1.0  0.65074  0.55689  0.34876  1.0000
  H   H3250     1.0  0.93676  0.72934  0.50511  1.0000
  C   C1903     1.0  0.57792  0.50531  0.42991  1.0000
  H   H3251     1.0  0.68751  0.54204  0.46512  1.0000
  H   H3252     1.0  0.75468  0.50267  0.45336  1.0000
  H   H3253     1.0  0.49919  0.73865  0.54533  1.0000
  H   H3254     1.0  0.98073  0.69126  0.34597  1.0000
  H   H3255     1.0  0.98233  0.71782  0.65023  1.0000
  H   H3256     1.0  0.63751  0.55164  0.34541  1.0000
  Fe  Fe273     1.0  0.83863  0.74320  0.48829  1.0000
  C   C1904     1.0  0.78911  0.49902  0.49121  1.0000
  H   H3257     1.0  0.72949  0.50467  0.45647  1.0000
  H   H3258     1.0  0.57165  0.49788  0.41963  1.0000
  H   H3259     1.0  0.49516  0.72963  0.51220  1.0000
  H   H3260     1.0  0.99384  0.66900  0.34457  1.0000
  H   H3261     1.0  0.94956  0.74364  0.45356  1.0000
  H   H3262     1.0  0.93056  0.74377  0.57568  1.0000
  C   C1905     1.0  0.49553  0.74399  0.51645  1.0000
  C   C1906     1.0  0.52444  0.70374  0.83509  1.0000
  H   H3263     1.0  0.81659  0.52074  0.86713  1.0000
  S   S549      1.0  0.89752  0.51815  0.72975  1.0000
  S   S550      1.0  0.96593  0.71447  0.96047  1.0000
  H   H3264     1.0  0.98816  0.74174  0.66871  1.0000
  H   H3265     1.0  0.51873  0.66760  0.83786  1.0000
  H   H3266     1.0  0.88748  0.65094  0.68365  1.0000
  Fe  Fe274     1.0  0.95597  0.63939  0.78265  1.0000
  H   H3267     1.0  0.50127  0.58637  0.74722  1.0000
  S   S551      1.0  0.95105  0.66192  0.80390  1.0000
  Fe  Fe275     1.0  0.93978  0.60798  0.76427  1.0000
  S   S552      1.0  0.96419  0.60563  0.74230  1.0000
  S   S553      1.0  0.91386  0.59136  0.76758  1.0000
  Fe  Fe276     1.0  0.98253  0.60756  0.76539  1.0000
  Fe  Fe277     1.0  0.96167  0.63733  0.74004  1.0000
  S   S554      1.0  0.96369  0.65092  0.71012  1.0000
  S   S555      1.0  0.95808  0.60811  0.78780  1.0000
  S   S556      1.0  0.93583  0.63955  0.76052  1.0000
  C   C1907     1.0  0.99235  0.71910  0.98481  1.0000
  S   S557      1.0  0.74723  0.63827  0.95297  1.0000
  C   C1908     1.0  0.73178  0.53506  0.97512  1.0000
  S   S558      1.0  0.77507  0.60298  0.97029  1.0000
  Fe  Fe278     1.0  0.77633  0.63417  0.96358  1.0000
  S   S559      1.0  0.80029  0.64860  0.94612  1.0000
  Fe  Fe279     1.0  0.74539  0.60753  0.96174  1.0000
  S   S560      1.0  0.72932  0.58680  0.94842  1.0000
  Fe  Fe280     1.0  0.62507  0.74379  0.97427  1.0000
  Fe  Fe281     1.0  0.89910  0.69544  0.94635  1.0000
  S   S561      1.0  0.92846  0.68026  0.94325  1.0000
  S   S562      1.0  0.87602  0.68095  0.96492  1.0000
  Fe  Fe282     1.0  0.91137  0.72889  0.92099  1.0000
  S   S563      1.0  0.94111  0.71536  0.91567  1.0000
  Fe  Fe283     1.0  0.92803  0.68886  0.91252  1.0000
  S   S564      1.0  0.93691  0.66527  0.89274  1.0000
  Fe  Fe284     1.0  0.93949  0.70787  0.94681  1.0000
  H   H3268     1.0  0.87006  0.67317  0.88290  1.0000
  S   S565      1.0  0.89832  0.70275  0.91570  1.0000
  S   S566      1.0  0.91012  0.72266  0.95203  1.0000
  H   H3269     1.0  0.92859  0.54068  0.72467  1.0000
  S   S567      1.0  0.51978  0.72252  0.89951  1.0000
  Fe  Fe285     1.0  0.73610  0.64392  0.98239  1.0000
  S   S568      1.0  0.74703  0.52699  0.88665  1.0000
  H   H3270     1.0  0.92910  0.63655  0.72210  1.0000
  H   H3271     1.0  0.80417  0.49492  0.87863  1.0000
  H   H3272     1.0  0.52563  0.71894  0.83192  1.0000
  H   H3273     1.0  0.70882  0.51886  0.97284  1.0000
  Fe  Fe286     1.0  0.73220  0.50113  0.88249  1.0000
  H   H3274     1.0  0.95392  0.70147  0.66095  1.0000
  C   C1909     1.0  0.73471  0.57071  0.93076  1.0000
  C   C1910     1.0  0.72019  0.56082  0.92594  1.0000
  C   C1911     1.0  0.72372  0.54731  0.91264  1.0000
  C   C1912     1.0  0.74183  0.54372  0.90370  1.0000
  C   C1913     1.0  0.75632  0.55387  0.90823  1.0000
  C   C1914     1.0  0.75285  0.56715  0.92180  1.0000
  H   H3275     1.0  0.70605  0.56366  0.93257  1.0000
  H   H3276     1.0  0.71232  0.53999  0.90903  1.0000
  H   H3277     1.0  0.77036  0.55137  0.90129  1.0000
  H   H3278     1.0  0.76415  0.57472  0.92525  1.0000
  C   C1915     1.0  0.82036  0.65867  0.95244  1.0000
  C   C1916     1.0  0.82849  0.65321  0.96908  1.0000
  C   C1917     1.0  0.84532  0.66035  0.97272  1.0000
  C   C1918     1.0  0.85430  0.67309  0.95986  1.0000
  C   C1919     1.0  0.84589  0.67897  0.94346  1.0000
  C   C1920     1.0  0.82914  0.67171  0.93974  1.0000
  H   H3279     1.0  0.85230  0.68907  0.93362  1.0000
  H   H3280     1.0  0.82299  0.67613  0.92686  1.0000
  C   C1921     1.0  0.94649  0.66243  0.82861  1.0000
  C   C1922     1.0  0.94681  0.64616  0.84058  1.0000
  C   C1923     1.0  0.94403  0.64734  0.86007  1.0000
  C   C1924     1.0  0.94034  0.66476  0.86795  1.0000
  C   C1925     1.0  0.93973  0.68103  0.85597  1.0000
  C   C1926     1.0  0.94294  0.67985  0.83649  1.0000
  H   H3281     1.0  0.94923  0.63268  0.83480  1.0000
  H   H3282     1.0  0.94474  0.63463  0.86909  1.0000
  H   H3283     1.0  0.93694  0.69454  0.86171  1.0000
  H   H3284     1.0  0.94261  0.69256  0.82742  1.0000
  C   C1927     1.0  0.66290  0.70306  0.97464  1.0000
  H   H3285     1.0  0.54182  0.51870  0.86033  1.0000
  C   C1928     1.0  0.80963  0.51658  0.82112  1.0000
  H   H3286     1.0  0.83059  0.50833  0.79871  1.0000
  C   C1929     1.0  0.68823  0.67759  0.97004  1.0000
  C   C1930     1.0  0.76935  0.52398  0.83872  1.0000
  H   H3287     1.0  0.51357  0.68954  0.88234  1.0000
  H   H3288     1.0  0.50926  0.70184  0.83798  1.0000
  C   C1931     1.0  0.94744  0.49780  0.73104  1.0000
  C   C1932     1.0  0.54915  0.66130  0.83159  1.0000
  S   S569      1.0  0.94741  0.73662  0.67987  1.0000
  H   H3289     1.0  0.55395  0.71531  0.91769  1.0000
  C   C1933     1.0  0.55056  0.68122  0.88857  1.0000
  H   H3290     1.0  0.69215  0.50503  0.95439  1.0000
  C   C1934     1.0  0.95154  0.71259  0.68783  1.0000
  C   C1935     1.0  0.95190  0.70791  0.70706  1.0000
  C   C1936     1.0  0.95535  0.68915  0.71415  1.0000
  C   C1937     1.0  0.95861  0.67477  0.70204  1.0000
  C   C1938     1.0  0.95810  0.67940  0.68280  1.0000
  C   C1939     1.0  0.95452  0.69817  0.67572  1.0000
  C   C1940     1.0  0.54786  0.72923  0.92072  1.0000
  H   H3291     1.0  0.95566  0.68586  0.72897  1.0000
  H   H3292     1.0  0.96046  0.66839  0.67331  1.0000
  H   H3293     1.0  0.75753  0.53440  0.84316  1.0000
  N   N138      1.0  0.73267  0.50628  0.95548  1.0000
  H   H3294     1.0  0.85152  0.65582  0.98555  1.0000
  C   C1941     1.0  0.90181  0.53829  0.74079  1.0000
  C   C1942     1.0  0.88912  0.54616  0.75466  1.0000
  C   C1943     1.0  0.89318  0.56222  0.76284  1.0000
  C   C1944     1.0  0.91005  0.57050  0.75748  1.0000
  C   C1945     1.0  0.92287  0.56247  0.74379  1.0000
  C   C1946     1.0  0.91869  0.54657  0.73543  1.0000
  H   H3295     1.0  0.87609  0.53999  0.75893  1.0000
  H   H3296     1.0  0.88313  0.56833  0.77336  1.0000
  H   H3297     1.0  0.93591  0.56861  0.73952  1.0000
  C   C1947     1.0  0.89689  0.62292  0.69563  1.0000
  H   H3298     1.0  0.71450  0.70928  0.94298  1.0000
  H   H3299     1.0  0.90763  0.62363  0.68344  1.0000
  H   H3300     1.0  0.89116  0.60928  0.69470  1.0000
  H   H3301     1.0  0.93230  0.60273  0.68689  1.0000
  H   H3302     1.0  0.56463  0.50828  0.80971  1.0000
  H   H3303     1.0  0.76110  0.51377  0.95673  1.0000
  H   H3304     1.0  0.49510  0.66382  0.89213  1.0000
  H   H3305     1.0  0.98599  0.58615  0.83566  1.0000
  N   N139      1.0  0.53248  0.67733  0.86029  1.0000
  C   C1948     1.0  0.51395  0.67871  0.87222  1.0000
  C   C1949     1.0  0.53575  0.69670  0.85177  1.0000
  H   H3306     1.0  0.69508  0.73265  0.92762  1.0000
  C   C1950     1.0  0.53147  0.66391  0.84562  1.0000
  H   H3307     1.0  0.51086  0.56929  0.73070  1.0000
  H   H3308     1.0  0.55498  0.53095  0.84132  1.0000
  C   C1951     1.0  0.72126  0.52309  0.96359  1.0000
  H   H3309     1.0  0.92474  0.60434  0.72957  1.0000
  H   H3310     1.0  0.55872  0.64899  0.83618  1.0000
  H   H3311     1.0  0.92530  0.64191  0.69836  1.0000
  H   H3312     1.0  0.55092  0.69788  0.84719  1.0000
  C   C1952     1.0  0.88133  0.63874  0.69142  1.0000
  H   H3313     1.0  0.78443  0.52963  0.86171  1.0000
  H   H3314     1.0  0.50218  0.68359  0.86361  1.0000
  H   H3315     1.0  0.57867  0.50663  0.83802  1.0000
  H   H3316     1.0  0.89539  0.66332  0.71000  1.0000
  H   H3317     1.0  0.79916  0.50991  0.81424  1.0000
  C   C1953     1.0  0.97538  0.71144  0.98272  1.0000
  H   H3318     1.0  0.57007  0.73391  0.93758  1.0000
  H   H3319     1.0  0.50563  0.64988  0.87406  1.0000
  H   H3320     1.0  0.78017  0.49983  0.87229  1.0000
  H   H3321     1.0  0.88279  0.63708  0.73080  1.0000
  C   C1954     1.0  0.54856  0.67010  0.87168  1.0000
  H   H3322     1.0  0.72155  0.54621  0.98104  1.0000
  S   S570      1.0  0.84432  0.50089  0.72704  1.0000
  H   H3323     1.0  0.69505  0.66648  0.96183  1.0000
  H   H3324     1.0  0.55735  0.67360  0.82952  1.0000
  H   H3325     1.0  0.70797  0.71731  0.96543  1.0000
  N   N140      1.0  0.88498  0.63713  0.91545  1.0000
  C   C1955     1.0  0.89392  0.64827  0.92831  1.0000
  C   C1956     1.0  0.88389  0.64850  0.89705  1.0000
  C   C1957     1.0  0.89648  0.61876  0.91225  1.0000
  C   C1958     1.0  0.86575  0.63306  0.92429  1.0000
  C   C1959     1.0  0.89806  0.63830  0.94736  1.0000
  C   C1960     1.0  0.86881  0.66544  0.89682  1.0000
  C   C1961     1.0  0.91726  0.62011  0.90476  1.0000
  C   C1962     1.0  0.85385  0.62265  0.91263  1.0000
  H   H3326     1.0  0.90734  0.65323  0.92159  1.0000
  H   H3327     1.0  0.88478  0.66130  0.93131  1.0000
  H   H3328     1.0  0.88154  0.63970  0.88574  1.0000
  H   H3329     1.0  0.89762  0.65416  0.89236  1.0000
  H   H3330     1.0  0.89620  0.60929  0.92519  1.0000
  H   H3331     1.0  0.89015  0.61112  0.90206  1.0000
  H   H3332     1.0  0.86687  0.62425  0.93755  1.0000
  H   H3333     1.0  0.85726  0.64592  0.92879  1.0000
  H   H3334     1.0  0.90504  0.64782  0.95515  1.0000
  H   H3335     1.0  0.88494  0.63529  0.95609  1.0000
  H   H3336     1.0  0.90784  0.62541  0.94606  1.0000
  H   H3337     1.0  0.85427  0.66117  0.89920  1.0000
  H   H3338     1.0  0.87085  0.67539  0.90711  1.0000
  H   H3339     1.0  0.91842  0.62811  0.89104  1.0000
  H   H3340     1.0  0.92426  0.60582  0.90277  1.0000
  H   H3341     1.0  0.92527  0.62643  0.91455  1.0000
  H   H3342     1.0  0.85635  0.60728  0.91567  1.0000
  H   H3343     1.0  0.85652  0.62585  0.89747  1.0000
  H   H3344     1.0  0.83863  0.62713  0.91614  1.0000
  H   H3345     1.0  0.87248  0.64339  0.70389  1.0000
  H   H3346     1.0  0.78976  0.54319  0.84083  1.0000
  C   C1963     1.0  0.91913  0.60556  0.71568  1.0000
  H   H3347     1.0  0.67513  0.74287  0.97563  1.0000
  H   H3348     1.0  0.56326  0.67514  0.89540  1.0000
  H   H3349     1.0  0.98912  0.66797  0.81262  1.0000
  H   H3350     1.0  0.50644  0.73695  0.98563  1.0000
  H   H3351     1.0  0.51190  0.51981  0.77178  1.0000
  H   H3352     1.0  0.74275  0.54244  0.96637  1.0000
  H   H3353     1.0  0.55254  0.69609  0.88440  1.0000
  C   C1964     1.0  0.90775  0.65874  0.71776  1.0000
  H   H3354     1.0  0.53834  0.68043  0.89922  1.0000
  C   C1965     1.0  0.50224  0.57149  0.74406  1.0000
  H   H3355     1.0  0.94756  0.51069  0.73850  1.0000
  H   H3356     1.0  0.71904  0.51078  0.92994  1.0000
  H   H3357     1.0  0.84172  0.54119  0.84851  1.0000
  C   C1966     1.0  0.56637  0.50197  0.84725  1.0000
  H   H3358     1.0  0.88593  0.59402  0.73436  1.0000
  H   H3359     1.0  0.77534  0.50627  0.92639  1.0000
  H   H3360     1.0  0.66645  0.68556  0.95154  1.0000
  C   C1967     1.0  0.89193  0.62371  0.73037  1.0000
  H   H3361     1.0  0.94593  0.61455  0.70133  1.0000
  H   H3362     1.0  0.80849  0.53127  0.81499  1.0000
  C   C1968     1.0  0.55707  0.73974  0.93202  1.0000
  N   N141      1.0  0.90604  0.62332  0.71342  1.0000
  C   C1969     1.0  0.67196  0.68843  0.96426  1.0000
  N   N142      1.0  0.80485  0.51551  0.84194  1.0000
  H   H3363     1.0  0.94488  0.58994  0.70463  1.0000
  H   H3364     1.0  0.90361  0.65868  0.73296  1.0000
  H   H3365     1.0  0.56227  0.67011  0.86292  1.0000
  H   H3366     1.0  0.72291  0.73052  0.94854  1.0000
  Fe  Fe287     1.0  0.87456  0.49778  0.73406  1.0000
  H   H3367     1.0  0.82200  0.64322  0.97901  1.0000
  C   C1970     1.0  0.69281  0.73287  0.94303  1.0000
  C   C1971     1.0  0.87841  0.60819  0.73263  1.0000
  H   H3368     1.0  0.68089  0.72426  0.94726  1.0000
  S   S571      1.0  0.64320  0.71701  0.96580  1.0000
  H   H3369     1.0  0.53223  0.70725  0.86234  1.0000
  H   H3370     1.0  0.54477  0.65909  0.81771  1.0000
  H   H3371     1.0  0.81802  0.55138  0.85514  1.0000
  H   H3372     1.0  0.53941  0.51487  0.83656  1.0000
  H   H3373     1.0  0.54761  0.65520  0.87674  1.0000
  H   H3374     1.0  0.71533  0.53276  0.95239  1.0000
  H   H3375     1.0  0.50995  0.56345  0.75521  1.0000
  H   H3376     1.0  0.51944  0.74032  0.96300  1.0000
  H   H3377     1.0  0.86947  0.60896  0.72090  1.0000
  C   C1972     1.0  0.82914  0.50715  0.81418  1.0000
  H   H3378     1.0  0.89939  0.62291  0.74324  1.0000
  C   C1973     1.0  0.50596  0.51044  0.78271  1.0000
  H   H3379     1.0  0.82538  0.54561  0.83165  1.0000
  H   H3380     1.0  0.52941  0.64967  0.85215  1.0000
  H   H3381     1.0  0.96027  0.51182  0.70602  1.0000
  H   H3382     1.0  0.83337  0.51080  0.85064  1.0000
  H   H3383     1.0  0.86881  0.61003  0.74553  1.0000
  C   C1974     1.0  0.93642  0.60338  0.70114  1.0000
  H   H3384     1.0  0.91154  0.59295  0.71520  1.0000
  H   H3385     1.0  0.91784  0.66954  0.71449  1.0000
  C   C1975     1.0  0.91781  0.63965  0.71250  1.0000
  H   H3386     1.0  0.77065  0.52472  0.82330  1.0000
  H   H3387     1.0  0.53008  0.69665  0.82239  1.0000
  H   H3388     1.0  0.98649  0.63539  0.80295  1.0000
  H   H3389     1.0  0.69832  0.50248  0.80555  1.0000
  H   H3390     1.0  0.87135  0.63351  0.68274  1.0000
  H   H3391     1.0  0.94952  0.71890  0.71658  1.0000
  H   H3392     1.0  0.51911  0.65468  0.89285  1.0000
  C   C1976     1.0  0.82657  0.54098  0.84645  1.0000
  C   C1977     1.0  0.71064  0.72215  0.95053  1.0000
  H   H3393     1.0  0.98666  0.63796  0.82704  1.0000
  C   C1978     1.0  0.75107  0.51251  0.94620  1.0000
  C   C1979     1.0  0.76173  0.50050  0.93109  1.0000
  S   S572      1.0  0.98184  0.63898  0.76176  1.0000
  C   C1980     1.0  0.69563  0.68117  0.98639  1.0000
  H   H3394     1.0  0.97539  0.60951  0.83260  1.0000
  H   H3395     1.0  0.84084  0.51410  0.81864  1.0000
  C   C1981     1.0  0.54962  0.51734  0.84637  1.0000
  H   H3396     1.0  0.72073  0.49607  0.79344  1.0000
  C   C1982     1.0  0.78748  0.52867  0.84641  1.0000
  H   H3397     1.0  0.57100  0.50199  0.86145  1.0000
  C   C1983     1.0  0.92966  0.49848  0.77076  1.0000
  C   C1984     1.0  0.96305  0.49860  0.71477  1.0000
  H   H3398     1.0  0.76524  0.51009  0.84433  1.0000
  C   C1985     1.0  0.82064  0.52110  0.85187  1.0000
  H   H3399     1.0  0.74866  0.52675  0.93914  1.0000
  H   H3400     1.0  0.94314  0.50342  0.77347  1.0000
  C   C1986     1.0  0.98906  0.60102  0.83411  1.0000
  H   H3401     1.0  0.73810  0.52681  0.98691  1.0000
  C   C1987     1.0  0.50848  0.66056  0.88331  1.0000
  H   H3402     1.0  0.97719  0.49877  0.71972  1.0000
  C   C1988     1.0  0.72135  0.49960  0.94128  1.0000
  C   C1989     1.0  0.80165  0.49556  0.84835  1.0000
  H   H3403     1.0  0.77615  0.49784  0.79016  1.0000
  H   H3404     1.0  0.75383  0.50131  0.91862  1.0000
  H   H3405     1.0  0.49857  0.71878  0.96026  1.0000
  C   C1990     1.0  0.53090  0.73656  0.91342  1.0000
  H   H3406     1.0  0.92089  0.51046  0.76436  1.0000
  H   H3407     1.0  0.49872  0.73163  0.93860  1.0000
  H   H3408     1.0  0.93366  0.49946  0.72499  1.0000
  H   H3409     1.0  0.74482  0.49693  0.98116  1.0000
  H   H3410     1.0  0.66465  0.74307  0.91895  1.0000
  H   H3411     1.0  0.99472  0.60418  0.84704  1.0000
  H   H3412     1.0  0.92262  0.49425  0.78461  1.0000
  H   H3413     1.0  0.54630  0.78286  0.21294  1.0000
  S   S573      1.0  0.97868  0.97719  0.02269  1.0000
  S   S574      1.0  0.52009  0.76090  0.12893  1.0000
  H   H3414     1.0  0.98880  0.75607  0.08512  1.0000
  S   S575      1.0  0.53411  0.76778  0.18121  1.0000
  Fe  Fe288     1.0  0.52587  0.85550  0.28837  1.0000
  S   S576      1.0  0.54281  0.85433  0.26025  1.0000
  S   S577      1.0  0.53167  0.83239  0.31155  1.0000
  C   C1991     1.0  0.71477  0.97744  0.00162  1.0000
  S   S578      1.0  0.51247  0.88777  0.24489  1.0000
  Fe  Fe289     1.0  0.51500  0.85620  0.24794  1.0000
  H   H3415     1.0  0.72278  0.96445  0.99810  1.0000
  Fe  Fe290     1.0  0.53917  0.88600  0.25920  1.0000
  S   S579      1.0  0.56241  0.90308  0.24457  1.0000
  C   C1992     1.0  0.99175  0.77020  0.07894  1.0000
  S   S580      1.0  0.52417  0.88701  0.28811  1.0000
  S   S581      1.0  0.59321  0.97671  0.26920  1.0000
  S   S582      1.0  0.59172  0.77641  0.03168  1.0000
  H   H3416     1.0  0.57222  0.87018  0.17081  1.0000
  H   H3417     1.0  0.57458  0.89528  0.19106  1.0000
  H   H3418     1.0  0.57483  0.86099  0.23193  1.0000
  C   C1993     1.0  0.96083  0.74625  0.03859  1.0000
  C   C1994     1.0  0.56998  0.92407  0.25142  1.0000
  C   C1995     1.0  0.56479  0.93051  0.26910  1.0000
  C   C1996     1.0  0.57196  0.94667  0.27424  1.0000
  C   C1997     1.0  0.58415  0.95678  0.26171  1.0000
  C   C1998     1.0  0.58901  0.95060  0.24389  1.0000
  C   C1999     1.0  0.58208  0.93427  0.23886  1.0000
  H   H3419     1.0  0.55554  0.92282  0.27894  1.0000
  H   H3420     1.0  0.56807  0.95128  0.28806  1.0000
  H   H3421     1.0  0.59837  0.95819  0.23408  1.0000
  H   H3422     1.0  0.58622  0.92944  0.22515  1.0000
  C   C2000     1.0  0.54819  0.84878  0.18495  1.0000
  C   C2001     1.0  0.58459  0.88247  0.19184  1.0000
  H   H3423     1.0  0.53723  0.86553  0.21750  1.0000
  C   C2002     1.0  0.52521  0.78793  0.19340  1.0000
  C   C2003     1.0  0.53441  0.79217  0.20863  1.0000
  C   C2004     1.0  0.52835  0.80826  0.21838  1.0000
  C   C2005     1.0  0.51313  0.82054  0.21285  1.0000
  H   H3424     1.0  0.97081  0.78143  0.02392  1.0000
  C   C2006     1.0  0.98849  0.98836  0.32001  1.0000
  H   H3425     1.0  0.53552  0.81113  0.23012  1.0000
  S   S583      1.0  0.63331  0.76626  0.99084  1.0000
  C   C2007     1.0  0.97715  0.98624  0.09169  1.0000
  C   C2008     1.0  0.56615  0.75785  0.08157  1.0000
  H   H3426     1.0  0.56073  0.76382  0.09449  1.0000
  C   C2009     1.0  0.57420  0.76915  0.06668  1.0000
  H   H3427     1.0  0.61757  0.93616  0.31231  1.0000
  H   H3428     1.0  0.57484  0.78386  0.06822  1.0000
  H   H3429     1.0  0.95120  0.80121  0.04232  1.0000
  C   C2010     1.0  0.61892  0.99061  0.30938  1.0000
  H   H3430     1.0  0.66498  0.89105  0.03674  1.0000
  H   H3431     1.0  0.97316  0.97277  0.09878  1.0000
  H   H3432     1.0  0.52380  0.74949  0.08413  1.0000
  H   H3433     1.0  0.58260  0.83685  0.23578  1.0000
  H   H3434     1.0  0.97503  0.79455  0.31136  1.0000
  C   C2011     1.0  0.52352  0.78929  0.08025  1.0000
  H   H3435     1.0  0.65035  0.95764  0.27543  1.0000
  H   H3436     1.0  0.57558  0.83067  0.20426  1.0000
  H   H3437     1.0  0.58832  0.85444  0.18269  1.0000
  H   H3438     1.0  0.53415  0.79961  0.07791  1.0000
  C   C2012     1.0  0.54765  0.87225  0.20736  1.0000
  H   H3439     1.0  0.55564  0.87998  0.21599  1.0000
  H   H3440     1.0  0.54327  0.85903  0.17370  1.0000
  H   H3441     1.0  0.67195  0.96445  0.00890  1.0000
  C   C2013     1.0  0.66347  0.93344  0.99722  1.0000
  C   C2014     1.0  0.56738  0.84255  0.21118  1.0000
  H   H3442     1.0  0.55527  0.83655  0.21965  1.0000
  H   H3443     1.0  0.65118  0.92769  0.03742  1.0000
  H   H3444     1.0  0.69529  0.90686  0.99352  1.0000
  H   H3445     1.0  0.69259  0.96052  0.03434  1.0000
  H   H3446     1.0  0.53513  0.84459  0.19311  1.0000
  S   S584      1.0  0.49817  0.85559  0.27589  1.0000
  H   H3447     1.0  0.55844  0.81882  0.18499  1.0000
  H   H3448     1.0  0.66775  0.98784  0.27064  1.0000
  H   H3449     1.0  0.97885  0.77999  0.08046  1.0000
  H   H3450     1.0  0.95432  0.78337  0.06003  1.0000
  H   H3451     1.0  0.52171  0.98128  0.24761  1.0000
  H   H3452     1.0  0.52832  0.96573  0.26627  1.0000
  H   H3453     1.0  0.54622  0.97211  0.24832  1.0000
  H   H3454     1.0  0.67457  0.91907  0.04188  1.0000
  H   H3455     1.0  0.67874  0.76807  0.99381  1.0000
  H   H3456     1.0  0.58878  0.88011  0.20618  1.0000
  C   C2015     1.0  0.99085  0.92483  0.02424  1.0000
  H   H3457     1.0  0.53111  0.89916  0.20320  1.0000
  C   C2016     1.0  0.66476  0.92125  0.03073  1.0000
  C   C2017     1.0  0.53627  0.88690  0.19508  1.0000
  H   H3458     1.0  0.68750  0.97366  0.27991  1.0000
  C   C2018     1.0  0.66053  0.96102  0.28504  1.0000
  H   H3459     1.0  0.67821  0.96754  0.25950  1.0000
  H   H3460     1.0  0.51026  0.79663  0.08647  1.0000
  H   H3461     1.0  0.53529  0.77766  0.05487  1.0000
  C   C2019     1.0  0.53320  0.97748  0.25671  1.0000
  H   H3462     1.0  0.59744  0.88553  0.18264  1.0000
  H   H3463     1.0  0.63567  0.93361  0.29356  1.0000
  C   C2020     1.0  0.71918  0.98678  0.01688  1.0000
  C   C2021     1.0  0.58057  0.84835  0.22475  1.0000
  C   C2022     1.0  0.66068  0.90169  0.02558  1.0000
  C   C2023     1.0  0.62730  0.94398  0.30239  1.0000
  C   C2024     1.0  0.57640  0.86551  0.18499  1.0000
  C   C2025     1.0  0.67424  0.97338  0.27324  1.0000
  H   H3464     1.0  0.68862  0.98503  0.22021  1.0000
  H   H3465     1.0  0.67105  0.97336  0.04168  1.0000
  H   H3466     1.0  0.66809  0.89686  0.01246  1.0000
  H   H3467     1.0  0.67494  0.94931  0.04995  1.0000
  H   H3468     1.0  0.69883  0.94088  0.00018  1.0000
  H   H3469     1.0  0.63441  0.93063  0.01026  1.0000
  C   C2026     1.0  0.50981  0.80009  0.18805  1.0000
  N   N143      1.0  0.98795  0.76558  0.04414  1.0000
  C   C2027     1.0  0.55756  0.83147  0.17515  1.0000
  H   H3470     1.0  0.96992  0.98835  0.07870  1.0000
  C   C2028     1.0  0.64188  0.93810  0.99822  1.0000
  H   H3471     1.0  0.54481  0.89193  0.18239  1.0000
  N   N144      1.0  0.56025  0.85758  0.19711  1.0000
  H   H3472     1.0  0.59475  0.85030  0.21760  1.0000
  Fe  Fe291     1.0  0.52291  0.75153  0.15921  1.0000
  C   C2029     1.0  0.66491  0.97538  0.31340  1.0000
  C   C2030     1.0  0.98265  0.79914  0.32248  1.0000
  Fe  Fe292     1.0  0.49765  0.88692  0.27359  1.0000
  C   C2031     1.0  0.70122  0.91098  0.00593  1.0000
  H   H3473     1.0  0.96838  0.80297  0.05851  1.0000
  N   N145      1.0  0.67232  0.93440  0.01510  1.0000
  C   C2032     1.0  0.97735  0.78342  0.03685  1.0000
  H   H3474     1.0  0.64529  0.90105  0.02522  1.0000
  H   H3475     1.0  0.54857  0.82833  0.16436  1.0000
  H   H3476     1.0  0.69913  0.90037  0.01773  1.0000
  H   H3477     1.0  0.61858  0.95384  0.29344  1.0000
  C   C2033     1.0  0.58162  0.76153  0.04989  1.0000
  C   C2034     1.0  0.69346  0.93072  0.01138  1.0000
  H   H3478     1.0  0.57172  0.83371  0.16815  1.0000
  S   S585      1.0  0.50585  0.84200  0.22343  1.0000
  H   H3479     1.0  0.71670  0.91074  0.00232  1.0000
  Fe  Fe293     1.0  0.60251  0.76892  0.00216  1.0000
  H   H3480     1.0  0.52976  0.76874  0.02665  1.0000
  H   H3481     1.0  0.98982  0.90992  0.02895  1.0000
  H   H3482     1.0  0.50263  0.79712  0.17635  1.0000
  C   C2035     1.0  0.66795  0.95427  0.02069  1.0000
  H   H3483     1.0  0.67246  0.98677  0.30562  1.0000
  H   H3484     1.0  0.99217  0.75560  0.01632  1.0000
  C   C2036     1.0  0.50391  0.81631  0.19765  1.0000
  C   C2037     1.0  0.96214  0.79314  0.05041  1.0000
  C   C2038     1.0  0.67729  0.95931  0.03768  1.0000
  C   C2039     1.0  0.52044  0.74815  0.06967  1.0000
  H   H3485     1.0  0.65252  0.95761  0.02409  1.0000
  H   H3486     1.0  0.73052  0.98071  0.02494  1.0000
  N   N146      1.0  0.65023  0.96933  0.30217  1.0000
  C   C2040     1.0  0.52085  0.78166  0.06152  1.0000
  H   H3487     1.0  0.51349  0.75779  0.01508  1.0000
  H   H3488     1.0  0.52884  0.77813  0.09035  1.0000
  H   H3489     1.0  0.66882  0.94750  0.28886  1.0000
  H   H3490     1.0  0.63796  0.95339  0.99859  1.0000
  H   H3491     1.0  0.98729  0.79411  0.03222  1.0000
  H   H3492     1.0  0.70064  0.93276  0.02384  1.0000
  H   H3493     1.0  0.53432  0.74631  0.06132  1.0000
  C   C2041     1.0  0.51935  0.75822  0.02864  1.0000
  H   H3494     1.0  0.97702  0.93255  0.02854  1.0000
  N   N147      1.0  0.50887  0.76548  0.06261  1.0000
  C   C2042     1.0  0.50306  0.76339  0.04354  1.0000
  H   H3495     1.0  0.52363  0.88109  0.19102  1.0000
  H   H3496     1.0  0.51522  0.79365  0.05233  1.0000
  C   C2043     1.0  0.64025  0.95403  0.31326  1.0000
  Fe  Fe294     1.0  0.97216  0.97858  0.99270  1.0000
  H   H3497     1.0  0.52818  0.99236  0.28177  1.0000
  H   H3498     1.0  0.49541  0.77665  0.03810  1.0000
  C   C2044     1.0  0.53715  0.99340  0.26831  1.0000
  C   C2045     1.0  0.70005  0.98494  0.99101  1.0000
  H   H3499     1.0  0.96640  0.75500  0.06470  1.0000
  H   H3500     1.0  0.63151  0.98383  0.28259  1.0000
  H   H3501     1.0  0.67592  0.96355  0.31595  1.0000
  H   H3502     1.0  0.98326  0.92189  0.99663  1.0000
  H   H3503     1.0  0.99120  0.89149  0.00003  1.0000
  H   H3504     1.0  0.99065  0.82278  0.30533  1.0000
  H   H3505     1.0  0.66665  0.91963  0.99140  1.0000
  H   H3506     1.0  0.60857  0.98022  0.30925  1.0000
  C   C2046     1.0  0.63682  0.98586  0.29614  1.0000
  H   H3507     1.0  0.95094  0.75856  0.03482  1.0000
  H   H3508     1.0  0.55163  0.98941  0.27250  1.0000
  C   C2047     1.0  0.97498  0.75100  0.05179  1.0000
  H   H3509     1.0  0.65071  0.94308  0.31905  1.0000
  H   H3510     1.0  0.99250  0.94299  0.99939  1.0000
  H   H3511     1.0  0.99411  0.77121  0.29997  1.0000
  H   H3512     1.0  0.49477  0.76849  0.09044  1.0000
  C   C2048     1.0  0.94526  0.83837  0.65431  1.0000
  H   H3513     1.0  0.91522  0.89393  0.63244  1.0000
  C   C2049     1.0  0.89535  0.86457  0.65339  1.0000
  H   H3514     1.0  0.86686  0.87577  0.64853  1.0000
  H   H3515     1.0  0.50211  0.82058  0.35829  1.0000
  S   S586      1.0  0.95038  0.78302  0.60438  1.0000
  H   H3516     1.0  0.68576  0.94711  0.62545  1.0000
  S   S587      1.0  0.92521  0.77590  0.64420  1.0000
  Fe  Fe295     1.0  0.92751  0.76496  0.61550  1.0000
  H   H3517     1.0  0.92431  0.77916  0.45962  1.0000
  Fe  Fe296     1.0  0.94947  0.79250  0.63348  1.0000
  S   S588      1.0  0.97169  0.76958  0.64177  1.0000
  S   S589      1.0  0.72735  0.96144  0.61196  1.0000
  Fe  Fe297     1.0  0.77204  0.95932  0.63970  1.0000
  S   S590      1.0  0.75640  0.93453  0.63630  1.0000
  H   H3518     1.0  0.90804  0.86293  0.64326  1.0000
  Fe  Fe298     1.0  0.75519  0.94468  0.60624  1.0000
  S   S591      1.0  0.76216  0.92318  0.58432  1.0000
  Fe  Fe299     1.0  0.72968  0.95317  0.64234  1.0000
  S   S592      1.0  0.77291  0.96843  0.60884  1.0000
  Fe  Fe300     1.0  0.70191  0.85338  0.47550  1.0000
  S   S593      1.0  0.72623  0.85882  0.45417  1.0000
  S   S594      1.0  0.68326  0.83366  0.46374  1.0000
  Fe  Fe301     1.0  0.71680  0.87892  0.50208  1.0000
  S   S595      1.0  0.74166  0.88575  0.48205  1.0000
  S   S596      1.0  0.70929  0.89409  0.52894  1.0000
  Fe  Fe302     1.0  0.72117  0.88906  0.46017  1.0000
  S   S597      1.0  0.71812  0.91036  0.43514  1.0000
  Fe  Fe303     1.0  0.74491  0.85482  0.47754  1.0000
  S   S598      1.0  0.77483  0.84048  0.47137  1.0000
  S   S599      1.0  0.69583  0.88403  0.48026  1.0000
  S   S600      1.0  0.72113  0.84759  0.49891  1.0000
  Fe  Fe304     1.0  0.57164  0.76441  0.43486  1.0000
  S   S601      1.0  0.54416  0.77774  0.42472  1.0000
  H   H3519     1.0  0.97271  0.79758  0.56704  1.0000
  Fe  Fe305     1.0  0.57873  0.79937  0.45366  1.0000
  S   S602      1.0  0.55142  0.81472  0.44552  1.0000
  S   S603      1.0  0.59717  0.81431  0.47082  1.0000
  Fe  Fe306     1.0  0.53780  0.78825  0.45358  1.0000
  S   S604      1.0  0.50683  0.78869  0.46595  1.0000
  Fe  Fe307     1.0  0.55921  0.80372  0.41727  1.0000
  S   S605      1.0  0.55607  0.82783  0.39469  1.0000
  S   S606      1.0  0.56443  0.77346  0.46408  1.0000
  S   S607      1.0  0.58732  0.78975  0.42516  1.0000
  H   H3520     1.0  0.67896  0.91677  0.64990  1.0000
  C   C2050     1.0  0.50636  0.79425  0.50383  1.0000
  C   C2051     1.0  0.99323  0.84364  0.60741  1.0000
  H   H3521     1.0  0.98992  0.83666  0.62140  1.0000
  C   C2052     1.0  0.88319  0.74659  0.55306  1.0000
  H   H3522     1.0  0.52154  0.79408  0.50154  1.0000
  H   H3523     1.0  0.99255  0.78462  0.57630  1.0000
  Fe  Fe308     1.0  0.97043  0.75879  0.61377  1.0000
  C   C2053     1.0  0.65900  0.82933  0.46564  1.0000
  C   C2054     1.0  0.65270  0.81908  0.45211  1.0000
  C   C2055     1.0  0.63383  0.81469  0.45324  1.0000
  C   C2056     1.0  0.62105  0.81998  0.46825  1.0000
  C   C2057     1.0  0.62729  0.83035  0.48169  1.0000
  C   C2058     1.0  0.64607  0.83513  0.48034  1.0000
  H   H3524     1.0  0.66252  0.81464  0.44060  1.0000
  H   H3525     1.0  0.62921  0.80718  0.44252  1.0000
  H   H3526     1.0  0.61756  0.83468  0.49332  1.0000
  H   H3527     1.0  0.65064  0.84297  0.49089  1.0000
  H   H3528     1.0  0.69392  0.89344  0.57719  1.0000
  C   C2059     1.0  0.54118  0.81410  0.34471  1.0000
  C   C2060     1.0  0.54647  0.81264  0.36308  1.0000
  C   C2061     1.0  0.54977  0.82866  0.37142  1.0000
  C   C2062     1.0  0.54773  0.84610  0.36113  1.0000
  C   C2063     1.0  0.63282  0.75324  0.42375  1.0000
  H   H3529     1.0  0.54809  0.79911  0.37071  1.0000
  H   H3530     1.0  0.55023  0.85860  0.36741  1.0000
  C   C2064     1.0  0.74781  0.91645  0.56777  1.0000
  C   C2065     1.0  0.72994  0.92560  0.56511  1.0000
  C   C2066     1.0  0.71857  0.91892  0.55277  1.0000
  C   C2067     1.0  0.72504  0.90332  0.54256  1.0000
  C   C2068     1.0  0.74320  0.89461  0.54469  1.0000
  C   C2069     1.0  0.75443  0.90108  0.55729  1.0000
  H   H3531     1.0  0.72488  0.93779  0.57259  1.0000
  H   H3532     1.0  0.70465  0.92589  0.55105  1.0000
  H   H3533     1.0  0.74836  0.88256  0.53703  1.0000
  H   H3534     1.0  0.76828  0.89397  0.55910  1.0000
  H   H3535     1.0  0.82356  0.96841  0.63744  1.0000
  C   C2070     1.0  0.57358  0.86028  0.45516  1.0000
  H   H3536     1.0  0.61398  0.88460  0.42106  1.0000
  H   H3537     1.0  0.60655  0.83249  0.43088  1.0000
  H   H3538     1.0  0.67966  0.77242  0.47304  1.0000
  N   N148      1.0  0.59642  0.86167  0.42517  1.0000
  C   C2071     1.0  0.85175  0.91436  0.63875  1.0000
  C   C2072     1.0  0.80026  0.78104  0.48950  1.0000
  C   C2073     1.0  0.81017  0.79249  0.47630  1.0000
  C   C2074     1.0  0.80205  0.81053  0.47076  1.0000
  C   C2075     1.0  0.78389  0.81726  0.47817  1.0000
  C   C2076     1.0  0.77385  0.80567  0.49113  1.0000
  C   C2077     1.0  0.78205  0.78770  0.49681  1.0000
  H   H3539     1.0  0.82418  0.78757  0.47052  1.0000
  H   H3540     1.0  0.80993  0.81937  0.46072  1.0000
  H   H3541     1.0  0.75989  0.81067  0.49698  1.0000
  H   H3542     1.0  0.77425  0.77899  0.50705  1.0000
  C   C2078     1.0  0.99075  0.81570  0.57816  1.0000
  Fe  Fe309     1.0  0.94746  0.75219  0.65095  1.0000
  H   H3543     1.0  0.67963  0.75345  0.45864  1.0000
  C   C2079     1.0  0.53902  0.83154  0.33443  1.0000
  S   S608      1.0  0.95209  0.82385  0.63545  1.0000
  C   C2080     1.0  0.73007  0.93061  0.42858  1.0000
  C   C2081     1.0  0.74563  0.93450  0.43731  1.0000
  C   C2082     1.0  0.75599  0.94954  0.43022  1.0000
  C   C2083     1.0  0.75060  0.96117  0.41468  1.0000
  C   C2084     1.0  0.73473  0.95759  0.40629  1.0000
  C   C2085     1.0  0.72466  0.94228  0.41309  1.0000
  H   H3544     1.0  0.74985  0.92577  0.44934  1.0000
  H   H3545     1.0  0.76821  0.95224  0.43685  1.0000
  H   H3546     1.0  0.73049  0.96634  0.39427  1.0000
  H   H3547     1.0  0.71270  0.93934  0.40619  1.0000
  C   C2086     1.0  0.82001  0.78238  0.54073  1.0000
  H   H3548     1.0  0.63232  0.86061  0.44086  1.0000
  H   H3549     1.0  0.50323  0.79139  0.42062  1.0000
  H   H3550     1.0  0.70896  0.92618  0.60057  1.0000
  H   H3551     1.0  0.96340  0.76039  0.49773  1.0000
  C   C2087     1.0  0.70148  0.92225  0.61432  1.0000
  H   H3552     1.0  0.64987  0.97303  0.34174  1.0000
  H   H3553     1.0  0.84630  0.95490  0.37033  1.0000
  H   H3554     1.0  0.68135  0.88157  0.60815  1.0000
  H   H3555     1.0  0.92558  0.96473  0.65565  1.0000
  H   H3556     1.0  0.73555  0.88417  0.62911  1.0000
  H   H3557     1.0  0.66943  0.90105  0.58028  1.0000
  H   H3558     1.0  0.84855  0.90047  0.63512  1.0000
  H   H3559     1.0  0.61654  0.77924  0.45713  1.0000
  C   C2088     1.0  0.61884  0.76434  0.46244  1.0000
  C   C2089     1.0  0.88116  0.88082  0.64660  1.0000
  H   H3560     1.0  0.98709  0.98390  0.33467  1.0000
  C   C2090     1.0  0.59343  0.86345  0.44591  1.0000
  H   H3561     1.0  0.56276  0.87146  0.45070  1.0000
  C   C2091     1.0  0.64417  0.76171  0.43739  1.0000
  C   C2092     1.0  0.94365  0.75383  0.41188  1.0000
  H   H3562     1.0  0.65122  0.75879  0.48380  1.0000
  H   H3563     1.0  0.51393  0.83898  0.42908  1.0000
  C   C2093     1.0  0.60355  0.83619  0.40149  1.0000
  H   H3564     1.0  0.84835  0.92460  0.62694  1.0000
  H   H3565     1.0  0.85849  0.78067  0.54805  1.0000
  C   C2094     1.0  0.91400  0.74543  0.42889  1.0000
  H   H3566     1.0  0.57362  0.86043  0.47048  1.0000
  H   H3567     1.0  0.66891  0.90325  0.61263  1.0000
  H   H3568     1.0  0.61983  0.77129  0.49166  1.0000
  H   H3569     1.0  0.98326  0.75304  0.47344  1.0000
  C   C2095     1.0  0.61167  0.76338  0.48334  1.0000
  H   H3570     1.0  0.81498  0.75360  0.54933  1.0000
  N   N149      1.0  0.69905  0.90162  0.61597  1.0000
  C   C2096     1.0  0.88403  0.75474  0.57001  1.0000
  C   C2097     1.0  0.91417  0.90611  0.64099  1.0000
  H   H3571     1.0  0.84220  0.91896  0.65092  1.0000
  C   C2098     1.0  0.87269  0.91468  0.64207  1.0000
  H   H3572     1.0  0.92844  0.90725  0.64529  1.0000
  H   H3573     1.0  0.95167  0.76409  0.40380  1.0000
  S   S609      1.0  0.90145  0.76449  0.59960  1.0000
  C   C2099     1.0  0.57699  0.89333  0.41784  1.0000
  H   H3574     1.0  0.68077  0.94354  0.60261  1.0000
  H   H3575     1.0  0.90109  0.77471  0.46881  1.0000
  H   H3576     1.0  0.50540  0.79793  0.53323  1.0000
  C   C2100     1.0  0.67920  0.90163  0.64810  1.0000
  H   H3577     1.0  0.71088  0.92549  0.62470  1.0000
  C   C2101     1.0  0.85405  0.96284  0.37900  1.0000
  C   C2102     1.0  0.94850  0.85741  0.65196  1.0000
  H   H3578     1.0  0.88469  0.88277  0.63126  1.0000
  H   H3579     1.0  0.91784  0.77228  0.41437  1.0000
  S   S610      1.0  0.81034  0.75879  0.49810  1.0000
  C   C2103     1.0  0.68328  0.90265  0.58533  1.0000
  H   H3580     1.0  0.52098  0.81612  0.42086  1.0000
  H   H3581     1.0  0.68613  0.91742  0.58208  1.0000
  H   H3582     1.0  0.70900  0.89781  0.64347  1.0000
  H   H3583     1.0  0.61658  0.87004  0.40237  1.0000
  H   H3584     1.0  0.60900  0.75686  0.45546  1.0000
  H   H3585     1.0  0.85736  0.97027  0.64172  1.0000
  H   H3586     1.0  0.61129  0.74878  0.48937  1.0000
  H   H3587     1.0  0.51397  0.83464  0.39414  1.0000
  H   H3588     1.0  0.56175  0.89793  0.41714  1.0000
  N   N150      1.0  0.77341  0.88263  0.41646  1.0000
  C   C2104     1.0  0.76944  0.88496  0.43710  1.0000
  C   C2105     1.0  0.75910  0.87039  0.41140  1.0000
  C   C2106     1.0  0.76987  0.90180  0.40664  1.0000
  C   C2107     1.0  0.79352  0.87435  0.41264  1.0000
  C   C2108     1.0  0.78362  0.89523  0.44626  1.0000
  C   C2109     1.0  0.76240  0.84936  0.41767  1.0000
  C   C2110     1.0  0.77498  0.90371  0.38546  1.0000
  C   C2111     1.0  0.79919  0.86613  0.39353  1.0000
  H   H3589     1.0  0.75517  0.89237  0.44023  1.0000
  H   H3590     1.0  0.76906  0.87126  0.44513  1.0000
  H   H3591     1.0  0.75789  0.87124  0.39624  1.0000
  H   H3592     1.0  0.74464  0.87557  0.41729  1.0000
  H   H3593     1.0  0.75469  0.90698  0.40907  1.0000
  H   H3594     1.0  0.77770  0.91221  0.41227  1.0000
  H   H3595     1.0  0.80336  0.88505  0.41396  1.0000
  H   H3596     1.0  0.79694  0.86294  0.42353  1.0000
  H   H3597     1.0  0.77874  0.89604  0.46125  1.0000
  H   H3598     1.0  0.79784  0.88741  0.44572  1.0000
  H   H3599     1.0  0.78457  0.90982  0.44046  1.0000
  H   H3600     1.0  0.76341  0.84667  0.43280  1.0000
  H   H3601     1.0  0.75019  0.84228  0.41444  1.0000
  H   H3602     1.0  0.77512  0.84238  0.41021  1.0000
  H   H3603     1.0  0.76804  0.89408  0.37784  1.0000
  H   H3604     1.0  0.79046  0.90215  0.38195  1.0000
  H   H3605     1.0  0.76996  0.91812  0.38020  1.0000
  H   H3606     1.0  0.81024  0.87399  0.38548  1.0000
  H   H3607     1.0  0.78748  0.86603  0.38475  1.0000
  H   H3608     1.0  0.80549  0.85142  0.39563  1.0000
  H   H3609     1.0  0.80019  0.81102  0.51962  1.0000
  C   C2112     1.0  0.59716  0.84126  0.42163  1.0000
  N   N151      1.0  0.83491  0.79549  0.53467  1.0000
  C   C2113     1.0  0.84952  0.79423  0.54845  1.0000
  C   C2114     1.0  0.84461  0.79008  0.51617  1.0000
  C   C2115     1.0  0.65132  0.76587  0.46953  1.0000
  C   C2116     1.0  0.82555  0.81525  0.53332  1.0000
  C   C2117     1.0  0.84191  0.79677  0.56888  1.0000
  C   C2118     1.0  0.85903  0.80317  0.50672  1.0000
  C   C2119     1.0  0.92952  0.97928  0.65480  1.0000
  C   C2120     1.0  0.81203  0.81992  0.51791  1.0000
  C   C2121     1.0  0.92450  0.75846  0.41797  1.0000
  H   H3610     1.0  0.85952  0.80504  0.54467  1.0000
  H   H3611     1.0  0.83415  0.78873  0.50613  1.0000
  H   H3612     1.0  0.85252  0.77600  0.51769  1.0000
  C   C2122     1.0  0.73513  0.89245  0.61554  1.0000
  H   H3613     1.0  0.79923  0.97189  0.35592  1.0000
  H   H3614     1.0  0.81704  0.81850  0.54659  1.0000
  H   H3615     1.0  0.83625  0.82555  0.53125  1.0000
  H   H3616     1.0  0.85405  0.79551  0.57750  1.0000
  H   H3617     1.0  0.50791  0.77534  0.40285  1.0000
  H   H3618     1.0  0.83274  0.78584  0.57467  1.0000
  H   H3619     1.0  0.86464  0.79791  0.49304  1.0000
  H   H3620     1.0  0.85265  0.81767  0.50386  1.0000
  H   H3621     1.0  0.87129  0.80318  0.51493  1.0000
  H   H3622     1.0  0.51233  0.80463  0.38633  1.0000
  H   H3623     1.0  0.59412  0.84331  0.39131  1.0000
  H   H3624     1.0  0.61788  0.75910  0.42483  1.0000
  H   H3625     1.0  0.81941  0.81883  0.50379  1.0000
  H   H3626     1.0  0.69758  0.87872  0.63720  1.0000
  H   H3627     1.0  0.49829  0.82165  0.43360  1.0000
  H   H3628     1.0  0.64499  0.86663  0.41912  1.0000
  H   H3629     1.0  0.65921  0.75759  0.43303  1.0000
  H   H3630     1.0  0.63150  0.95930  0.32561  1.0000
  H   H3631     1.0  0.56701  0.86564  0.41888  1.0000
  H   H3632     1.0  0.58314  0.87097  0.40002  1.0000
  H   H3633     1.0  0.71925  0.89662  0.59197  1.0000
  H   H3634     1.0  0.60340  0.85326  0.45327  1.0000
  C   C2123     1.0  0.58051  0.87213  0.41529  1.0000
  H   H3635     1.0  0.58531  0.90136  0.40675  1.0000
  H   H3636     1.0  0.58039  0.89717  0.43149  1.0000
  C   C2124     1.0  0.71657  0.89129  0.60675  1.0000
  H   H3637     1.0  0.94809  0.77804  0.48780  1.0000
  H   H3638     1.0  0.58305  0.83607  0.42520  1.0000
  H   H3639     1.0  0.56951  0.84647  0.45245  1.0000
  H   H3640     1.0  0.53870  0.80160  0.33839  1.0000
  C   C2125     1.0  0.61454  0.86970  0.41783  1.0000
  S   S611      1.0  0.74503  0.97766  0.64698  1.0000
  H   H3641     1.0  0.83653  0.75966  0.55645  1.0000
  H   H3642     1.0  0.67046  0.93007  0.62238  1.0000
  C   C2126     1.0  0.91591  0.77401  0.47234  1.0000
  C   C2127     1.0  0.82924  0.96250  0.65016  1.0000
  C   C2128     1.0  0.68342  0.93609  0.61629  1.0000
  C   C2129     1.0  0.69704  0.89429  0.63613  1.0000
  C   C2130     1.0  0.94841  0.76368  0.49480  1.0000
  H   H3643     1.0  0.81016  0.78238  0.52980  1.0000
  Fe  Fe310     1.0  0.74475  0.98490  0.61605  1.0000
  H   H3644     1.0  0.63501  0.84483  0.42239  1.0000
  H   H3645     1.0  0.86768  0.96620  0.37155  1.0000
  C   C2131     1.0  0.63256  0.85970  0.42562  1.0000
  C   C2132     1.0  0.67217  0.76710  0.46214  1.0000
  H   H3646     1.0  0.63864  0.75693  0.40927  1.0000
  H   H3647     1.0  0.85108  0.98678  0.39479  1.0000
  C   C2133     1.0  0.84222  0.98051  0.38569  1.0000
  H   H3648     1.0  0.97200  0.80745  0.33152  1.0000
  S   S612      1.0  0.86719  0.75386  0.48637  1.0000
  H   H3649     1.0  0.73774  0.90708  0.61709  1.0000
  C   C2134     1.0  0.84843  0.96357  0.65267  1.0000
  C   C2135     1.0  0.68257  0.89692  0.60638  1.0000
  H   H3650     1.0  0.60292  0.82097  0.40064  1.0000
  C   C2136     1.0  0.80575  0.97843  0.36672  1.0000
  C   C2137     1.0  0.54237  0.84756  0.34277  1.0000
  H   H3651     1.0  0.95518  0.86285  0.63886  1.0000
  S   S613      1.0  0.76482  0.97914  0.40552  1.0000
  H   H3652     1.0  0.50644  0.84310  0.36557  1.0000
  H   H3653     1.0  0.95409  0.76623  0.45803  1.0000
  H   H3654     1.0  0.59683  0.87728  0.44967  1.0000
  H   H3655     1.0  0.91041  0.91918  0.63240  1.0000
  H   H3656     1.0  0.71475  0.87615  0.60636  1.0000
  H   H3657     1.0  0.83462  0.75529  0.53245  1.0000
  C   C2138     1.0  0.90112  0.75389  0.57829  1.0000
  H   H3658     1.0  0.61833  0.83899  0.39712  1.0000
  H   H3659     1.0  0.93615  0.77894  0.51870  1.0000
  H   H3660     1.0  0.81095  0.78715  0.55318  1.0000
  H   H3661     1.0  0.91605  0.78346  0.48364  1.0000
  H   H3662     1.0  0.66597  0.89848  0.64285  1.0000
  H   H3663     1.0  0.49543  0.84868  0.40485  1.0000
  H   H3664     1.0  0.83432  0.81082  0.57066  1.0000
  H   H3665     1.0  0.80567  0.83462  0.51861  1.0000
  H   H3666     1.0  0.64248  0.77717  0.43449  1.0000
  H   H3667     1.0  0.83227  0.97517  0.35024  1.0000
  H   H3668     1.0  0.88061  0.91446  0.62805  1.0000
  C   C2139     1.0  0.82726  0.76166  0.54495  1.0000
  H   H3669     1.0  0.91292  0.74912  0.49068  1.0000
  H   H3670     1.0  0.86459  0.97940  0.34382  1.0000
  H   H3671     1.0  0.67344  0.77738  0.44988  1.0000
  H   H3672     1.0  0.98531  0.80705  0.61407  1.0000
  H   H3673     1.0  0.59698  0.77009  0.48495  1.0000
  H   H3674     1.0  0.85748  0.95336  0.39134  1.0000
  H   H3675     1.0  0.64556  0.78063  0.47152  1.0000
  N   N152      1.0  0.63911  0.75667  0.45779  1.0000
  H   H3676     1.0  0.98025  0.84592  0.60005  1.0000
  H   H3677     1.0  0.87136  0.76153  0.57692  1.0000
  C   C2140     1.0  0.82394  0.98654  0.35778  1.0000
  H   H3678     1.0  0.54077  0.86106  0.33509  1.0000
  H   H3679     1.0  0.80848  0.96743  0.37800  1.0000
  H   H3680     1.0  0.74711  0.88646  0.60617  1.0000
  H   H3681     1.0  0.79504  0.98950  0.37195  1.0000
  C   C2141     1.0  0.98796  0.79790  0.56858  1.0000
  C   C2142     1.0  0.65788  0.98292  0.33239  1.0000
  H   H3682     1.0  0.94511  0.97838  0.65210  1.0000
  C   C2143     1.0  0.92253  0.75360  0.47852  1.0000
  H   H3683     1.0  0.87418  0.92865  0.64691  1.0000
  H   H3684     1.0  0.94403  0.75470  0.52455  1.0000
  S   S614      1.0  0.99382  0.74644  0.59348  1.0000
  H   H3685     1.0  0.83004  0.97586  0.39508  1.0000
  C   C2144     1.0  0.50125  0.83378  0.40421  1.0000
  S   S615      1.0  0.89015  0.75211  0.43686  1.0000
  H   H3686     1.0  0.97689  0.82036  0.58564  1.0000
  N   N153      1.0  0.88085  0.89925  0.65523  1.0000
  H   H3687     1.0  0.99353  0.82684  0.56692  1.0000
  C   C2145     1.0  0.93708  0.76452  0.51410  1.0000
  H   H3688     1.0  0.92233  0.76124  0.51420  1.0000
  C   C2146     1.0  0.91735  0.74468  0.56945  1.0000
  H   H3689     1.0  0.92283  0.98671  0.64282  1.0000
  H   H3690     1.0  0.51046  0.74726  0.51443  1.0000
  C   C2147     1.0  0.95497  0.75150  0.46404  1.0000
  C   C2148     1.0  0.49595  0.79219  0.48891  1.0000
  N   N154      1.0  0.94298  0.74980  0.48234  1.0000
  H   H3691     1.0  0.88886  0.85119  0.65380  1.0000
  H   H3692     1.0  0.98317  0.74708  0.45003  1.0000
  H   H3693     1.0  0.67035  0.98534  0.33955  1.0000
  C   C2149     1.0  0.49543  0.83424  0.36285  1.0000
  H   H3694     1.0  0.86998  0.74708  0.54696  1.0000
  C   C2150     1.0  0.50895  0.82698  0.42294  1.0000
  C   C2151     1.0  0.49749  0.80323  0.39217  1.0000
  C   C2152     1.0  0.49813  0.78731  0.40778  1.0000
  C   C2153     1.0  0.49713  0.79646  0.52183  1.0000
  H   H3695     1.0  0.98813  0.78703  0.33143  1.0000
  H   H3696     1.0  0.62182  0.99191  0.32386  1.0000
  H   H3697     1.0  0.91940  0.74498  0.46738  1.0000
  C   C2154     1.0  0.97617  0.74492  0.46436  1.0000
  Fe  Fe311     1.0  0.90440  0.90985  0.90627  1.0000
  S   S616      1.0  0.91729  0.88518  0.89072  1.0000
  S   S617      1.0  0.92193  0.93294  0.91303  1.0000
  Fe  Fe312     1.0  0.86389  0.89865  0.90462  1.0000
  S   S618      1.0  0.87430  0.87335  0.88856  1.0000
  S   S619      1.0  0.83511  0.90507  0.92118  1.0000
  Fe  Fe313     1.0  0.89678  0.86807  0.90839  1.0000
  S   S620      1.0  0.90467  0.84062  0.92525  1.0000
  Fe  Fe314     1.0  0.89404  0.89239  0.87169  1.0000
  S   S621      1.0  0.90502  0.88954  0.84105  1.0000
  S   S622      1.0  0.88559  0.89234  0.92536  1.0000
  S   S623      1.0  0.88204  0.91809  0.88637  1.0000
  C   C2155     1.0  0.83930  0.96891  0.95839  1.0000
  C   C2156     1.0  0.53167  0.86886  0.79927  1.0000
  H   H3698     1.0  0.66849  0.86484  0.88369  1.0000
  Fe  Fe315     1.0  0.93815  0.94830  0.70828  1.0000
  S   S624      1.0  0.90848  0.96078  0.71656  1.0000
  S   S625      1.0  0.96393  0.96549  0.70033  1.0000
  Fe  Fe316     1.0  0.92445  0.90893  0.70530  1.0000
  S   S626      1.0  0.89427  0.91949  0.71351  1.0000
  S   S627      1.0  0.92776  0.87715  0.70239  1.0000
  Fe  Fe317     1.0  0.89912  0.94474  0.69425  1.0000
  S   S628      1.0  0.88064  0.95737  0.67130  1.0000
  Fe  Fe318     1.0  0.90589  0.93432  0.73539  1.0000
  S   S629      1.0  0.88863  0.93454  0.76378  1.0000
  S   S630      1.0  0.92886  0.93351  0.68471  1.0000
  S   S631      1.0  0.93594  0.92252  0.72839  1.0000
  H   H3699     1.0  0.84480  0.93870  0.93865  1.0000
  H   H3700     1.0  0.49665  0.76569  0.95329  1.0000
  C   C2157     1.0  0.50942  0.74714  0.97373  1.0000
  Fe  Fe319     1.0  0.63279  0.96398  0.75084  1.0000
  S   S632      1.0  0.65507  0.97571  0.72926  1.0000
  Fe  Fe320     1.0  0.60099  0.93804  0.76155  1.0000
  S   S633      1.0  0.59382  0.94952  0.78956  1.0000
  S   S634      1.0  0.58695  0.91503  0.74951  1.0000
  Fe  Fe321     1.0  0.62529  0.94839  0.79167  1.0000
  S   S635      1.0  0.64226  0.93373  0.81524  1.0000
  S   S636      1.0  0.60206  0.96633  0.74591  1.0000
  S   S637      1.0  0.63236  0.93485  0.76436  1.0000
  C   C2158     1.0  0.90021  0.90400  0.65853  1.0000
  Fe  Fe322     1.0  0.62435  0.78681  0.96735  1.0000
  S   S638      1.0  0.61756  0.76411  0.95004  1.0000
  S   S639      1.0  0.64301  0.80834  0.95130  1.0000
  Fe  Fe323     1.0  0.58805  0.76676  0.96412  1.0000
  C   C2159     1.0  0.66677  0.75766  0.92148  1.0000
  S   S640      1.0  0.50005  0.89959  0.75667  1.0000
  H   H3701     1.0  0.91666  0.84134  0.79867  1.0000
  Fe  Fe324     1.0  0.72070  0.92280  0.92520  1.0000
  S   S641      1.0  0.71380  0.91984  0.95647  1.0000
  S   S642      1.0  0.74781  0.91619  0.90612  1.0000
  Fe  Fe325     1.0  0.68029  0.93751  0.91755  1.0000
  S   S643      1.0  0.67075  0.93598  0.94809  1.0000
  S   S644      1.0  0.65834  0.94976  0.89768  1.0000
  Fe  Fe326     1.0  0.69729  0.94832  0.95316  1.0000
  S   S645      1.0  0.69294  0.97324  0.97216  1.0000
  Fe  Fe327     1.0  0.68744  0.90775  0.94976  1.0000
  S   S646      1.0  0.67257  0.88562  0.96882  1.0000
  S   S647      1.0  0.70570  0.95192  0.92220  1.0000
  S   S648      1.0  0.69547  0.90860  0.91886  1.0000
  H   H3702     1.0  0.89654  0.88033  0.78895  1.0000
  H   H3703     1.0  0.66956  0.77940  0.97343  1.0000
  H   H3704     1.0  0.53231  0.95297  0.77422  1.0000
  C   C2160     1.0  0.67991  0.97659  0.69772  1.0000
  H   H3705     1.0  0.93985  0.76950  0.91307  1.0000
  H   H3706     1.0  0.52039  0.87853  0.79344  1.0000
  C   C2161     1.0  0.52637  0.84887  0.80571  1.0000
  H   H3707     1.0  0.53576  0.87549  0.81137  1.0000
  C   C2162     1.0  0.65102  0.82977  0.95666  1.0000
  C   C2163     1.0  0.66343  0.83890  0.94343  1.0000
  C   C2164     1.0  0.67016  0.85592  0.94689  1.0000
  C   C2165     1.0  0.66449  0.86415  0.96365  1.0000
  C   C2166     1.0  0.65213  0.85501  0.97690  1.0000
  C   C2167     1.0  0.64541  0.83797  0.97344  1.0000
  H   H3708     1.0  0.66800  0.83266  0.93045  1.0000
  H   H3709     1.0  0.67994  0.86254  0.93672  1.0000
  H   H3710     1.0  0.71019  0.79287  0.93184  1.0000
  H   H3711     1.0  0.78216  0.96117  0.70455  1.0000
  C   C2168     1.0  0.64610  0.93839  0.83831  1.0000
  C   C2169     1.0  0.63779  0.95441  0.84671  1.0000
  C   C2170     1.0  0.64155  0.95753  0.86493  1.0000
  C   C2171     1.0  0.65381  0.94483  0.87493  1.0000
  C   C2172     1.0  0.66203  0.92873  0.86661  1.0000
  C   C2173     1.0  0.65816  0.92554  0.84844  1.0000
  H   H3712     1.0  0.62846  0.96441  0.83918  1.0000
  H   H3713     1.0  0.63502  0.97000  0.87124  1.0000
  H   H3714     1.0  0.67142  0.91881  0.87414  1.0000
  H   H3715     1.0  0.66462  0.91306  0.84211  1.0000
  H   H3716     1.0  0.81582  0.90473  0.88711  1.0000
  S   S649      1.0  0.90165  0.75654  0.90516  1.0000
  C   C2174     1.0  0.69159  0.96894  0.68279  1.0000
  C   C2175     1.0  0.82520  0.94636  0.68061  1.0000
  C   C2176     1.0  0.52460  0.90229  0.75512  1.0000
  C   C2177     1.0  0.53117  0.91309  0.76798  1.0000
  C   C2178     1.0  0.55027  0.91669  0.76677  1.0000
  C   C2179     1.0  0.56301  0.90981  0.75243  1.0000
  C   C2180     1.0  0.55655  0.89859  0.73985  1.0000
  C   C2181     1.0  0.53747  0.89480  0.74118  1.0000
  H   H3717     1.0  0.52138  0.91880  0.77893  1.0000
  H   H3718     1.0  0.55514  0.92487  0.77686  1.0000
  H   H3719     1.0  0.56633  0.89301  0.72882  1.0000
  H   H3720     1.0  0.53267  0.88647  0.73117  1.0000
  H   H3721     1.0  0.52888  0.84921  0.75008  1.0000
  C   C2182     1.0  0.69204  0.94993  0.67998  1.0000
  C   C2183     1.0  0.68052  0.93875  0.69215  1.0000
  C   C2184     1.0  0.66886  0.94641  0.70711  1.0000
  C   C2185     1.0  0.66856  0.96540  0.71005  1.0000
  H   H3722     1.0  0.68073  0.92403  0.69013  1.0000
  H   H3723     1.0  0.66022  0.93762  0.71647  1.0000
  N   N155      1.0  0.51066  0.84189  0.79655  1.0000
  C   C2186     1.0  0.84437  0.94742  0.68312  1.0000
  C   C2187     1.0  0.87832  0.96603  0.91760  1.0000
  H   H3724     1.0  0.65770  0.75137  0.95025  1.0000
  H   H3725     1.0  0.84999  0.94163  0.69591  1.0000
  H   H3726     1.0  0.53962  0.83947  0.80320  1.0000
  C   C2188     1.0  0.93484  0.86264  0.68357  1.0000
  H   H3727     1.0  0.93814  0.82676  0.89620  1.0000
  H   H3728     1.0  0.69395  0.95029  0.87671  1.0000
  C   C2189     1.0  0.87407  0.88484  0.68901  1.0000
  C   C2190     1.0  0.76579  0.93693  0.71160  1.0000
  C   C2191     1.0  0.93183  0.93809  0.93346  1.0000
  C   C2192     1.0  0.94227  0.95370  0.93263  1.0000
  C   C2193     1.0  0.94971  0.95891  0.94856  1.0000
  C   C2194     1.0  0.94686  0.94851  0.96560  1.0000
  C   C2195     1.0  0.93652  0.93283  0.96642  1.0000
  C   C2196     1.0  0.92902  0.92765  0.95049  1.0000
  H   H3729     1.0  0.94455  0.96190  0.91955  1.0000
  H   H3730     1.0  0.95765  0.97097  0.94764  1.0000
  C   C2197     1.0  0.94335  0.86947  0.66647  1.0000
  H   H3731     1.0  0.92107  0.91560  0.95140  1.0000
  C   C2198     1.0  0.90097  0.90464  0.82083  1.0000
  C   C2199     1.0  0.91550  0.90566  0.80625  1.0000
  C   C2200     1.0  0.91220  0.91537  0.78896  1.0000
  C   C2201     1.0  0.89416  0.92380  0.78588  1.0000
  C   C2202     1.0  0.87976  0.92321  0.80060  1.0000
  C   C2203     1.0  0.88314  0.91375  0.81799  1.0000
  H   H3732     1.0  0.92938  0.89874  0.80831  1.0000
  H   H3733     1.0  0.92354  0.91614  0.77796  1.0000
  H   H3734     1.0  0.86579  0.92981  0.79843  1.0000
  H   H3735     1.0  0.87176  0.91295  0.82896  1.0000
  C   C2204     1.0  0.90230  0.81745  0.91988  1.0000
  C   C2205     1.0  0.90709  0.80254  0.93287  1.0000
  C   C2206     1.0  0.90629  0.78384  0.92891  1.0000
  C   C2207     1.0  0.90087  0.77983  0.91177  1.0000
  C   C2208     1.0  0.89558  0.79477  0.89897  1.0000
  C   C2209     1.0  0.89629  0.81349  0.90297  1.0000
  H   H3736     1.0  0.91165  0.80547  0.94603  1.0000
  H   H3737     1.0  0.91025  0.77250  0.93894  1.0000
  H   H3738     1.0  0.89132  0.79180  0.88569  1.0000
  H   H3739     1.0  0.89257  0.82482  0.89284  1.0000
  C   C2210     1.0  0.81098  0.90822  0.91647  1.0000
  C   C2211     1.0  0.79705  0.91161  0.93130  1.0000
  C   C2212     1.0  0.77770  0.91410  0.92844  1.0000
  C   C2213     1.0  0.77201  0.91319  0.91065  1.0000
  C   C2214     1.0  0.78595  0.90971  0.89582  1.0000
  C   C2215     1.0  0.80531  0.90728  0.89868  1.0000
  H   H3740     1.0  0.80124  0.91237  0.94513  1.0000
  H   H3741     1.0  0.76719  0.91676  0.93998  1.0000
  H   H3742     1.0  0.78173  0.90897  0.88200  1.0000
  N   N156      1.0  0.83418  0.84286  0.93004  1.0000
  C   C2216     1.0  0.85205  0.85171  0.93168  1.0000
  C   C2217     1.0  0.83235  0.84142  0.90962  1.0000
  C   C2218     1.0  0.83474  0.82354  0.93977  1.0000
  C   C2219     1.0  0.81778  0.85483  0.93902  1.0000
  C   C2220     1.0  0.85757  0.85278  0.95159  1.0000
  C   C2221     1.0  0.82565  0.85977  0.89865  1.0000
  C   C2222     1.0  0.85206  0.80998  0.93384  1.0000
  C   C2223     1.0  0.79805  0.84830  0.93797  1.0000
  H   H3743     1.0  0.86429  0.84435  0.92364  1.0000
  H   H3744     1.0  0.85107  0.86628  0.92531  1.0000
  H   H3745     1.0  0.82263  0.83089  0.90745  1.0000
  H   H3746     1.0  0.84611  0.83613  0.90234  1.0000
  H   H3747     1.0  0.83398  0.82415  0.95514  1.0000
  H   H3748     1.0  0.82206  0.81667  0.93738  1.0000
  H   H3749     1.0  0.81921  0.85546  0.95409  1.0000
  H   H3750     1.0  0.81766  0.86973  0.93353  1.0000
  H   H3751     1.0  0.84740  0.86237  0.95970  1.0000
  H   H3752     1.0  0.85947  0.83887  0.95924  1.0000
  H   H3753     1.0  0.87141  0.85863  0.95067  1.0000
  H   H3754     1.0  0.83411  0.87130  0.90063  1.0000
  H   H3755     1.0  0.82715  0.85759  0.88355  1.0000
  H   H3756     1.0  0.81054  0.86421  0.90253  1.0000
  C   C2224     1.0  0.50981  0.95333  0.74037  1.0000
  H   H3757     1.0  0.86527  0.81444  0.93803  1.0000
  H   H3758     1.0  0.94931  0.74998  0.86617  1.0000
  H   H3759     1.0  0.79374  0.83964  0.95079  1.0000
  H   H3760     1.0  0.79718  0.84014  0.92587  1.0000
  H   H3761     1.0  0.78756  0.86074  0.93648  1.0000
  N   N157      1.0  0.54100  0.96954  0.73368  1.0000
  H   H3762     1.0  0.51598  0.98737  0.74334  1.0000
  H   H3763     1.0  0.73716  0.92243  0.86672  1.0000
  C   C2225     1.0  0.53002  0.95340  0.73070  1.0000
  C   C2226     1.0  0.55042  0.96611  0.75153  1.0000
  H   H3764     1.0  0.56133  0.97587  0.75210  1.0000
  S   S650      1.0  0.79297  0.95238  0.66219  1.0000
  H   H3765     1.0  0.86674  0.94431  0.97408  1.0000
  H   H3766     1.0  0.90723  0.89365  0.66836  1.0000
  H   H3767     1.0  0.69449  0.77886  0.97664  1.0000
  C   C2227     1.0  0.72286  0.91877  0.86508  1.0000
  H   H3768     1.0  0.73700  0.98886  0.69240  1.0000
  H   H3769     1.0  0.94447  0.81259  0.91632  1.0000
  H   H3770     1.0  0.52842  0.95279  0.71561  1.0000
  H   H3771     1.0  0.53788  0.93983  0.73499  1.0000
  H   H3772     1.0  0.55873  0.95221  0.75209  1.0000
  H   H3773     1.0  0.86772  0.91354  0.67900  1.0000
  C   C2228     1.0  0.86846  0.89952  0.67337  1.0000
  H   H3774     1.0  0.57992  0.95581  0.70227  1.0000
  H   H3775     1.0  0.57651  0.94703  0.72585  1.0000
  H   H3776     1.0  0.77430  0.95791  0.72925  1.0000
  C   C2229     1.0  0.93675  0.83156  0.67142  1.0000
  H   H3777     1.0  0.56097  0.94181  0.70924  1.0000
  H   H3778     1.0  0.73677  0.94107  0.73852  1.0000
  H   H3779     1.0  0.86157  0.92540  0.96059  1.0000
  C   C2230     1.0  0.96601  0.75565  0.92221  1.0000
  H   H3780     1.0  0.99154  0.77454  0.90183  1.0000
  H   H3781     1.0  0.96828  0.77546  0.86668  1.0000
  H   H3782     1.0  0.87202  0.87053  0.68557  1.0000
  H   H3783     1.0  0.64500  0.86849  0.87824  1.0000
  N   N158      1.0  0.91150  0.86625  0.76563  1.0000
  C   C2231     1.0  0.90299  0.88281  0.75403  1.0000
  C   C2232     1.0  0.93187  0.86919  0.76697  1.0000
  C   C2233     1.0  0.90076  0.86585  0.78475  1.0000
  C   C2234     1.0  0.90948  0.84889  0.75603  1.0000
  C   C2235     1.0  0.88131  0.88452  0.75372  1.0000
  C   C2236     1.0  0.94454  0.86972  0.74845  1.0000
  C   C2237     1.0  0.91885  0.83023  0.76430  1.0000
  H   H3784     1.0  0.90896  0.88267  0.73926  1.0000
  H   H3785     1.0  0.93892  0.85829  0.77629  1.0000
  H   H3786     1.0  0.93277  0.88250  0.77348  1.0000
  H   H3787     1.0  0.65982  0.88740  0.87379  1.0000
  H   H3788     1.0  0.88730  0.85942  0.78464  1.0000
  H   H3789     1.0  0.89433  0.84675  0.75599  1.0000
  H   H3790     1.0  0.91437  0.85042  0.74092  1.0000
  H   H3791     1.0  0.87644  0.87249  0.74763  1.0000
  H   H3792     1.0  0.94028  0.88197  0.73904  1.0000
  H   H3793     1.0  0.95925  0.87116  0.75134  1.0000
  H   H3794     1.0  0.94487  0.85671  0.74121  1.0000
  H   H3795     1.0  0.90921  0.82375  0.77539  1.0000
  H   H3796     1.0  0.93253  0.83140  0.76969  1.0000
  H   H3797     1.0  0.92227  0.82045  0.75307  1.0000
  H   H3798     1.0  0.49877  0.84288  0.77024  1.0000
  H   H3799     1.0  0.50001  0.96430  0.73381  1.0000
  N   N159      1.0  0.63060  0.88768  0.90942  1.0000
  C   C2238     1.0  0.62871  0.88999  0.93010  1.0000
  C   C2239     1.0  0.61774  0.87318  0.90626  1.0000
  C   C2240     1.0  0.62426  0.90634  0.89974  1.0000
  C   C2241     1.0  0.65106  0.88184  0.90355  1.0000
  C   C2242     1.0  0.63910  0.90571  0.93643  1.0000
  C   C2243     1.0  0.62286  0.85332  0.91522  1.0000
  C   C2244     1.0  0.61844  0.90632  0.87981  1.0000
  C   C2245     1.0  0.65607  0.87548  0.88367  1.0000
  H   H3800     1.0  0.61358  0.89267  0.93545  1.0000
  H   H3801     1.0  0.63418  0.87697  0.93797  1.0000
  H   H3802     1.0  0.61695  0.87161  0.89129  1.0000
  H   H3803     1.0  0.60294  0.87773  0.91158  1.0000
  H   H3804     1.0  0.61181  0.91335  0.90787  1.0000
  H   H3805     1.0  0.63546  0.91605  0.89904  1.0000
  H   H3806     1.0  0.65980  0.89353  0.90458  1.0000
  H   H3807     1.0  0.65700  0.87060  0.91335  1.0000
  H   H3808     1.0  0.65455  0.90312  0.93323  1.0000
  H   H3809     1.0  0.63399  0.91978  0.93045  1.0000
  H   H3810     1.0  0.63653  0.90596  0.95180  1.0000
  H   H3811     1.0  0.62088  0.85270  0.93064  1.0000
  H   H3812     1.0  0.61325  0.84367  0.91090  1.0000
  H   H3813     1.0  0.63744  0.84765  0.91063  1.0000
  H   H3814     1.0  0.62929  0.89909  0.87027  1.0000
  H   H3815     1.0  0.61625  0.92104  0.87388  1.0000
  H   H3816     1.0  0.60482  0.90028  0.87975  1.0000
  N   N160      1.0  0.96262  0.78176  0.89558  1.0000
  H   H3817     1.0  0.75450  0.95342  0.68063  1.0000
  H   H3818     1.0  0.87378  0.88650  0.76768  1.0000
  H   H3819     1.0  0.87691  0.89723  0.74488  1.0000
  C   C2246     1.0  0.91097  0.85586  0.80111  1.0000
  H   H3820     1.0  0.90660  0.89615  0.75879  1.0000
  H   H3821     1.0  0.81631  0.93961  0.69152  1.0000
  H   H3822     1.0  0.92241  0.86388  0.80458  1.0000
  H   H3823     1.0  0.77276  0.93105  0.69861  1.0000
  H   H3824     1.0  0.74543  0.95330  0.86674  1.0000
  C   C2247     1.0  0.94951  0.79858  0.88985  1.0000
  C   C2248     1.0  0.94885  0.81577  0.90140  1.0000
  C   C2249     1.0  0.55632  0.97099  0.71779  1.0000
  H   H3825     1.0  0.86727  0.97837  0.95431  1.0000
  H   H3826     1.0  0.93418  0.81697  0.67350  1.0000
  H   H3827     1.0  0.95292  0.80345  0.87502  1.0000
  H   H3828     1.0  0.69272  0.93897  0.82038  1.0000
  H   H3829     1.0  0.51540  0.79601  0.81743  1.0000
  H   H3830     1.0  0.90078  0.85532  0.81375  1.0000
  C   C2250     1.0  0.93165  0.84360  0.68593  1.0000
  H   H3831     1.0  0.93477  0.79483  0.89061  1.0000
  H   H3832     1.0  0.94627  0.88394  0.66453  1.0000
  H   H3833     1.0  0.98363  0.81009  0.87573  1.0000
  H   H3834     1.0  0.52301  0.84824  0.82109  1.0000
  H   H3835     1.0  0.92515  0.83808  0.69908  1.0000
  H   H3836     1.0  0.97624  0.75709  0.88242  1.0000
  S   S651      1.0  0.56000  0.77158  0.95065  1.0000
  C   C2251     1.0  0.51295  0.82073  0.79810  1.0000
  C   C2252     1.0  0.81743  0.95395  0.66418  1.0000
  H   H3837     1.0  0.89908  0.91739  0.66543  1.0000
  C   C2253     1.0  0.56894  0.95275  0.71376  1.0000
  H   H3838     1.0  0.71416  0.91935  0.87864  1.0000
  C   C2254     1.0  0.85614  0.95608  0.66916  1.0000
  C   C2255     1.0  0.71318  0.93100  0.84958  1.0000
  H   H3839     1.0  0.63669  0.93384  0.98540  1.0000
  C   C2256     1.0  0.74481  0.95858  0.69250  1.0000
  H   H3840     1.0  0.68827  0.78822  0.92446  1.0000
  C   C2257     1.0  0.95445  0.77306  0.91384  1.0000
  C   C2258     1.0  0.71572  0.96060  0.72631  1.0000
  H   H3841     1.0  0.83874  0.97665  0.97112  1.0000
  H   H3842     1.0  0.72437  0.90393  0.86161  1.0000
  H   H3843     1.0  0.52905  0.82627  0.76140  1.0000
  H   H3844     1.0  0.54440  0.86833  0.78911  1.0000
  C   C2259     1.0  0.89344  0.97859  0.92157  1.0000
  H   H3845     1.0  0.89151  0.95309  0.95024  1.0000
  H   H3846     1.0  0.85041  0.79592  0.94097  1.0000
  C   C2260     1.0  0.97610  0.98377  0.70793  1.0000
  H   H3847     1.0  0.75643  0.90761  0.69271  1.0000
  H   H3848     1.0  0.54197  0.84363  0.76992  1.0000
  C   C2261     1.0  0.88064  0.94509  0.94556  1.0000
  H   H3849     1.0  0.90527  0.97058  0.92829  1.0000
  H   H3850     1.0  0.96241  0.82210  0.89993  1.0000
  H   H3851     1.0  0.83843  0.95407  0.96318  1.0000
  H   H3852     1.0  0.88862  0.88544  0.69264  1.0000
  C   C2262     1.0  0.53243  0.76508  0.92879  1.0000
  C   C2263     1.0  0.66875  0.75933  0.94228  1.0000
  C   C2264     1.0  0.77919  0.95083  0.71641  1.0000
  C   C2265     1.0  0.52887  0.84127  0.76391  1.0000
  H   H3853     1.0  0.69484  0.97599  0.83835  1.0000
  H   H3854     1.0  0.66443  0.77405  0.94522  1.0000
  H   H3855     1.0  0.88747  0.99035  0.92998  1.0000
  H   H3856     1.0  0.88550  0.95484  0.90887  1.0000
  H   H3857     1.0  0.75692  0.96594  0.84808  1.0000
  C   C2266     1.0  0.72909  0.96008  0.84188  1.0000
  H   H3858     1.0  0.52722  0.81531  0.79211  1.0000
  N   N161      1.0  0.86700  0.95763  0.93440  1.0000
  H   H3859     1.0  0.70024  0.97776  0.67350  1.0000
  H   H3860     1.0  0.88389  0.92522  0.96934  1.0000
  H   H3861     1.0  0.71410  0.97174  0.71496  1.0000
  H   H3862     1.0  0.55014  0.97613  0.70456  1.0000
  H   H3863     1.0  0.98131  0.79603  0.91007  1.0000
  H   H3864     1.0  0.50900  0.95479  0.75548  1.0000
  C   C2267     1.0  0.51090  0.84798  0.77612  1.0000
  H   H3865     1.0  0.97701  0.75968  0.93047  1.0000
  N   N162      1.0  0.71148  0.95197  0.85073  1.0000
  C   C2268     1.0  0.69485  0.95401  0.82020  1.0000
  H   H3866     1.0  0.50876  0.86331  0.77357  1.0000
  C   C2269     1.0  0.83962  0.95621  0.91399  1.0000
  H   H3867     1.0  0.76610  0.92519  0.72263  1.0000
  H   H3868     1.0  0.51029  0.76049  0.91187  1.0000
  N   N163      1.0  0.74567  0.94452  0.70908  1.0000
  C   C2270     1.0  0.85346  0.94584  0.92727  1.0000
  C   C2271     1.0  0.53763  0.96671  0.76997  1.0000
  C   C2272     1.0  0.74344  0.91649  0.68931  1.0000
  C   C2273     1.0  0.70683  0.95678  0.87065  1.0000
  C   C2274     1.0  0.69521  0.96047  0.83998  1.0000
  H   H3869     1.0  0.67949  0.89458  0.66231  1.0000
  H   H3870     1.0  0.79300  0.94296  0.71895  1.0000
  Fe  Fe328     1.0  0.59644  0.97791  0.77402  1.0000
  H   H3871     1.0  0.89980  0.86547  0.66738  1.0000
  C   C2275     1.0  0.98191  0.78716  0.89810  1.0000
  H   H3872     1.0  0.94315  0.74890  0.89061  1.0000
  H   H3873     1.0  0.93426  0.76875  0.87597  1.0000
  H   H3874     1.0  0.82636  0.97438  0.95163  1.0000
  C   C2276     1.0  0.96447  0.76823  0.88052  1.0000
  S   S652      1.0  0.62732  0.97761  0.77822  1.0000
  H   H3875     1.0  0.56614  0.98134  0.72026  1.0000
  H   H3876     1.0  0.63591  0.83117  0.98379  1.0000
  H   H3877     1.0  0.95270  0.78326  0.92472  1.0000
  H   H3878     1.0  0.70607  0.94980  0.72507  1.0000
  H   H3879     1.0  0.93084  0.97961  0.68404  1.0000
  C   C2277     1.0  0.52841  0.98770  0.73294  1.0000
  H   H3880     1.0  0.70765  0.95703  0.81099  1.0000
  H   H3881     1.0  0.74628  0.92523  0.67625  1.0000
  C   C2278     1.0  0.73641  0.95221  0.72690  1.0000
  H   H3882     1.0  0.71084  0.96711  0.73955  1.0000
  H   H3883     1.0  0.84669  0.95841  0.89972  1.0000
  H   H3884     1.0  0.89975  0.98478  0.90811  1.0000
  H   H3885     1.0  0.93090  0.99272  0.71054  1.0000
  H   H3886     1.0  0.82799  0.94741  0.91286  1.0000
  H   H3887     1.0  0.52236  0.99009  0.71925  1.0000
  S   S653      1.0  0.95595  0.95429  0.98622  1.0000
  C   C2279     1.0  0.68198  0.77080  0.97856  1.0000
  H   H3888     1.0  0.52644  0.77905  0.93180  1.0000
  H   H3889     1.0  0.70970  0.75942  0.92681  1.0000
  H   H3890     1.0  0.73056  0.95993  0.68734  1.0000
  C   C2280     1.0  0.51035  0.81110  0.81791  1.0000
  C   C2281     1.0  0.94667  0.75858  0.87838  1.0000
  C   C2282     1.0  0.73506  0.92828  0.70556  1.0000
  H   H3891     1.0  0.72039  0.93322  0.70247  1.0000
  H   H3892     1.0  0.72069  0.92704  0.83604  1.0000
  H   H3893     1.0  0.68992  0.79260  0.94824  1.0000
  C   C2283     1.0  0.74940  0.97869  0.69509  1.0000
  H   H3894     1.0  0.75490  0.94145  0.84629  1.0000
  H   H3895     1.0  0.88841  0.93430  0.93677  1.0000
  H   H3896     1.0  0.71786  0.95076  0.87971  1.0000
  C   C2284     1.0  0.74744  0.95463  0.85138  1.0000
  H   H3897     1.0  0.69053  0.98450  0.86777  1.0000
  H   H3898     1.0  0.86142  0.93417  0.91976  1.0000
  C   C2285     1.0  0.54940  0.75777  0.93612  1.0000
  H   H3899     1.0  0.73302  0.90691  0.68656  1.0000
  S   S654      1.0  0.70723  0.93935  0.66198  1.0000
  H   H3900     1.0  0.69895  0.92598  0.85000  1.0000
  H   H3901     1.0  0.86899  0.97502  0.90842  1.0000
  H   H3902     1.0  0.73368  0.91842  0.71821  1.0000
  H   H3903     1.0  0.54601  0.97023  0.78107  1.0000
  S   S655      1.0  0.59481  0.74498  0.98729  1.0000
  H   H3904     1.0  0.93425  0.92464  0.97951  1.0000
  C   C2286     1.0  0.87232  0.93456  0.96333  1.0000
  H   H3905     1.0  0.65403  0.76664  0.91742  1.0000
  H   H3906     1.0  0.90788  0.98472  0.67720  1.0000
  H   H3907     1.0  0.95638  0.74715  0.93154  1.0000
  H   H3908     1.0  0.83317  0.96978  0.91891  1.0000
  H   H3909     1.0  0.67914  0.76210  0.91239  1.0000
  H   H3910     1.0  0.85360  0.80828  0.91867  1.0000
  H   H3911     1.0  0.68148  0.95758  0.84772  1.0000
  C   C2287     1.0  0.52322  0.75458  0.91751  1.0000
  C   C2288     1.0  0.85722  0.97323  0.94557  1.0000
  H   H3912     1.0  0.71494  0.76331  0.94939  1.0000
  C   C2289     1.0  0.70314  0.76454  0.94030  1.0000
  H   H3913     1.0  0.51849  0.81704  0.82783  1.0000
  C   C2290     1.0  0.69732  0.78566  0.93614  1.0000
  H   H3914     1.0  0.97270  0.74619  0.91166  1.0000
  H   H3915     1.0  0.86462  0.88766  0.70182  1.0000
  H   H3916     1.0  0.74405  0.96320  0.73163  1.0000
  H   H3917     1.0  0.68257  0.96176  0.81378  1.0000
  H   H3918     1.0  0.85267  0.98542  0.93599  1.0000
  H   H3919     1.0  0.52575  0.97777  0.76982  1.0000
  H   H3920     1.0  0.72699  0.97563  0.83997  1.0000
  S   S656      1.0  0.59423  0.79095  0.97971  1.0000
  H   H3921     1.0  0.73236  0.95585  0.82741  1.0000
  C   C2291     1.0  0.68626  0.75194  0.96970  1.0000
  H   H3922     1.0  0.85374  0.89718  0.67133  1.0000
  C   C2292     1.0  0.99132  0.99054  0.69630  1.0000
  C   C2293     1.0  0.99201  0.79726  0.88092  1.0000
  H   H3923     1.0  0.70109  0.97953  0.88897  1.0000
  H   H3924     1.0  0.67976  0.99129  0.69983  1.0000
  H   H3925     1.0  0.50450  0.93969  0.73860  1.0000
  H   H3926     1.0  0.69955  0.74558  0.97529  1.0000
  H   H3927     1.0  0.50290  0.81509  0.78975  1.0000
  H   H3928     1.0  0.71582  0.98537  0.86840  1.0000
  N   N164      1.0  0.68785  0.75263  0.94872  1.0000
  H   H3929     1.0  0.51695  0.75819  0.97875  1.0000
  C   C2294     1.0  0.92272  0.98789  0.67342  1.0000
  H   H3930     1.0  0.66967  0.94334  0.98627  1.0000
  H   H3931     1.0  0.95931  0.98709  0.73401  1.0000
  H   H3932     1.0  0.75382  0.98104  0.70877  1.0000
  C   C2295     1.0  0.97087  0.99204  0.72478  1.0000
  H   H3933     1.0  0.76104  0.98253  0.68457  1.0000
  C   C2296     1.0  0.70346  0.97782  0.87378  1.0000
  H   H3934     1.0  0.49526  0.87543  0.81609  1.0000
  H   H3935     1.0  0.64770  0.86112  0.98997  1.0000
  H   H3936     1.0  0.49521  0.81164  0.82323  1.0000
