data_image0
_chemical_formula_structural       FeSHFeS2Fe2S3FeSHFeS2FeSFeS3FeSHFeS2FeSFeS2FeS2FeS2FeSFeS3C6H4C6H4C6H4C6H6CH5C2HCHNCH4CH2CHCH3NHCHC2HSCHCH3CH8CH5C3H8NC7H15NC8H22CH3CSCH2CHC2H2SH4SCH2CH5CH3CH2CHCH3C2HSHC2HCHSH3SCH6FeS2FeS2FeSFeHS2FeS2FeSFeSFeS3C4H3C6H4C3H2C6H4C2H2CH4C7H3SHCH12C2HCHCH5CH2NSFeHCH3NC2HCH6CH6CHC5H6CHCH2CH2C2HCH3C2H8CH2CHC2HCH2NH4CHCH3C2HSHC4HNCH5SHCSHSFeS2FeS2FeCFeS3FeS2FeS2FeSFeCS2C6H6CH2NHSCHC3H2CHCH2FeHC4H3FeC6H4C6H7C2SH6C4H3NC6H10FeHFeNH2FeH2FeH2SCHCH2CSH2CNC2H3SH4CH5C2H3C3H3CH4SHCH3CH2CH3C2HCHCH5CHCH2CH2C2H2CH2SFeC2H6NH3CH7FeS2FeSHFeSFeS3FeH2FeS2FeC2S2FeS2FeSHFeSFeS3FeSFeS2FeHFeS3C6H4C5H3CHC6H4C6H4C2H3CH5C4H2CH8CHCH2NC8H20C2H7CH3C3HCH8CSH3C2H5SCHCH2C3HC2H2C2HCH3C2H2SCHNSH3CFeHCHSH2SCNC2H8C2NCHC3H2SH4CSCHCH3CH3CH2CH6NH3N2CH6CH2C2H2CHC2H2CH5CNH2CH2C3HCH4C3H2C2H3CH5C2H2FeS2CH2CHFeSCSH2C3HCHFeSNSFeS2FeS2FeSFeS3FeS2FeS2FeSFeS3C6H7CH2C6H9C2H3C6H4CH2C2HCHCHCH5CHSH2CHC2HCH3C2H2CH5CH3CHC2HCHCHC4H6N2C3H2C2H9C2NH2C2SH3NCHC3H11C2H7CHC2H4CH2CH2C2H4CH3CHC5HCHNH3CH5CH2C3H3C2HNC2H6CHCHCH4CHCH5FeS2FeS2FeS2FeS2FeS2FeS2FeSFeS3FeS2FeS2FeSFeS3HCHSCH4NH3C4HC3H2C6H4CHSH2C2H4C2H2C6H5CSHSC2H2C6H4NC5H15CH4CHC2H4C4H3CH2CH4CHCNH7C4H4CH2FeH4CSH3CH3C2H3NCHCH2C2HFeH7CHSH2C4H3FeHC5SFeH2CH5CHCHCHNCH5C2H7CHCH3CH2FeS2FeS2FeSFeS3FeS2FeS2FeSFeS3H2CHCFeCH5C6H4C6H4C6H2CH3SC3HCH2CH2C4H3C6H5C5H3CFeSH2CH2CHCH7CH6CH3NCHC2H2CH2CNCH9C2H4C2H4C2HNH2CH3FeH11C2H2C3H2SCNH2CH2C3H6C6H2CH5CHSHFeHCHC3H3CNHCH2CHSH2NFeH2C2H2CHCH4CH3SH2SH4SH2CH3CH5NCH4C2HCHNCH3C2H10NH5C2FeS2FeS2FeCFeS3FeS2FeS2FeSFeCS2C6H4C6H4C6H3C6H5NHFeCSC6H7CH8CH2CH2CH3CH6C2H4C2H2SHCH3CH2NCH2CHCHCH5SC2H2CH5CH8CH4SH9C2HC2HCHCH3NC4H2C2H2SCH4CH2C4HCHFeHNC3H2CH8CHCH7CH6C3H3CH2CSC2H2NH4CH6SFeS2FeSFeS4HS2FeSFeSCSHCSFeSFeS2HFeHSCFeSFeSH2CHC2HCH3C4H2CH4C6H4C2HSC2H2CH2CSH2FeC3H2CH4C4FeH4SC6H4CHCHSCH10CH3CFeHC3H2CNC6HNH2CH10CHCNHNC8H20NC4FeC3H10CH8C2H2CH3NH2C2HSH5SC3HCH2C2HFeHCHCH5C4FeSCHCHCHCH2CNH2SH2CSH3S2HCH9CH2CH2CH5SCH5C2H4C2H4C2H3FeS2FeS2FeSFeS3FeS2FeS2FeSFeS3HCHC6H4C2H2C2H2CHC4HCH4C6H4C2HC3H4CHSC7H4CHFeC7H6C2NCH3C4H2CH3FeCH4CH2C2HFeH3C2H4CH3CH2CHFeH2CHC4H3SH2NHCFeC2H2C2H2CH4NC8H14CH9CH3C2HCH4SH2CH2CFeCN2CH6FeHC3NCNH3SH3CNSH2CSH5C3H4CH9CH2SH3NCH2CHCH2CHSH6C2SC2H2CH2CHCSH3CH3SH2SHSH8SCH4CH3C2H4CSH2FeS2FeS2FeSFeS3FeS2FeS2FeSFeS3C3H2C2H2C7H4C2HC2H2CH3C7H5C2H3SCH3CHCH2C6H6CHCNC5H8NCH4NCH3CHC2HCH3CH2CNCH2CH3CH2NCHCHCHCHNC6H18CHCHNC7H18C3HNH2C2H2NH2CH2CH6CH3C2H2C3HCH3SH2CH3CH7SH2SC2HNH2SH6CHC2HC2H6C6HC2H2CH3CH5CH2FeCHCH3CHC2SCH6C2H2CH3CH2CSHFeS2FeSHFeSFeS3CSHFeS2FeSFeHSHFeS2FeSHFeSFeS3FeHSFeCHCH3S2HCH5CH4C6H4C2H2C3H4CH2CH2CH4C6H4C6H5NC5HC2H10SH2C2H5NC8H4C2HSCSCH3CNHSH7CH3CH3CH3CH2C2HC4H2SCH3CH3NH2C2H3C2FeH2SHC3H5C2HC3H2C2HNHCH3CH3CHNCH5CHCHCH6CH2CH2NH3
_chemical_formula_sum              "Fe160 S320 H1920 C1120 N80"
_cell_length_a       80.3183
_cell_length_b       80.1166
_cell_length_c       37.1573
_cell_angle_alpha    88.6861
_cell_angle_beta     88.6536
_cell_angle_gamma    79.1564

_space_group_name_H-M_alt    "P 1"
_space_group_IT_number       1

loop_
  _space_group_symop_operation_xyz
  'x, y, z'

loop_
  _atom_site_type_symbol
  _atom_site_label
  _atom_site_symmetry_multiplicity
  _atom_site_fract_x
  _atom_site_fract_y
  _atom_site_fract_z
  _atom_site_occupancy
  Fe  Fe1       1.0  0.06726  0.22636  0.71593  1.0000
  S   S1        1.0  0.05728  0.20238  0.72898  1.0000
  H   H1        1.0  0.11167  0.21067  0.43583  1.0000
  Fe  Fe2       1.0  0.07023  0.21789  0.63619  1.0000
  S   S2        1.0  0.06010  0.19367  0.64297  1.0000
  S   S3        1.0  0.07752  0.22910  0.58318  1.0000
  Fe  Fe3       1.0  0.04077  0.20860  0.68073  1.0000
  Fe  Fe4       1.0  0.07754  0.18908  0.69059  1.0000
  S   S4        1.0  0.09137  0.16205  0.70503  1.0000
  S   S5        1.0  0.04972  0.23315  0.66990  1.0000
  S   S6        1.0  0.08886  0.21258  0.68146  1.0000
  Fe  Fe5       1.0  0.21789  0.07378  0.71159  1.0000
  S   S7        1.0  0.19209  0.07887  0.73907  1.0000
  H   H2        1.0  0.18368  0.02727  0.54694  1.0000
  Fe  Fe6       1.0  0.20188  0.06681  0.63986  1.0000
  S   S8        1.0  0.17535  0.07116  0.66293  1.0000
  S   S9        1.0  0.20463  0.05531  0.58446  1.0000
  Fe  Fe7       1.0  0.18248  0.09391  0.68912  1.0000
  S   S10       1.0  0.16780  0.12152  0.68459  1.0000
  Fe  Fe8       1.0  0.18711  0.05582  0.71040  1.0000
  S   S11       1.0  0.18037  0.03253  0.73914  1.0000
  S   S12       1.0  0.20874  0.09028  0.66303  1.0000
  S   S13       1.0  0.21315  0.05007  0.68568  1.0000
  Fe  Fe9       1.0  0.05325  0.24023  0.33028  1.0000
  S   S14       1.0  0.05977  0.21819  0.29232  1.0000
  H   H3        1.0  0.15800  0.01823  0.41261  1.0000
  Fe  Fe10      1.0  0.04553  0.21665  0.39277  1.0000
  S   S15       1.0  0.05111  0.19316  0.35941  1.0000
  S   S16       1.0  0.03574  0.21343  0.44960  1.0000
  Fe  Fe11      1.0  0.07396  0.20313  0.33859  1.0000
  S   S17       1.0  0.10156  0.18824  0.34203  1.0000
  Fe  Fe12      1.0  0.03649  0.20967  0.31676  1.0000
  S   S18       1.0  0.06899  0.22595  0.37477  1.0000
  S   S19       1.0  0.02930  0.23239  0.35159  1.0000
  Fe  Fe13      1.0  0.20625  0.08302  0.31194  1.0000
  S   S20       1.0  0.18145  0.07405  0.30482  1.0000
  S   S21       1.0  0.22471  0.08038  0.26338  1.0000
  Fe  Fe14      1.0  0.19833  0.08953  0.39152  1.0000
  S   S22       1.0  0.17351  0.08061  0.39078  1.0000
  S   S23       1.0  0.20819  0.09939  0.44168  1.0000
  Fe  Fe15      1.0  0.18736  0.05928  0.35655  1.0000
  S   S24       1.0  0.18868  0.03110  0.37030  1.0000
  Fe  Fe16      1.0  0.16926  0.09628  0.33943  1.0000
  S   S25       1.0  0.14237  0.11128  0.32770  1.0000
  S   S26       1.0  0.21267  0.06713  0.36183  1.0000
  S   S27       1.0  0.19358  0.10639  0.34191  1.0000
  C   C1        1.0  0.11248  0.16666  0.33835  1.0000
  C   C2        1.0  0.12977  0.16257  0.34725  1.0000
  C   C3        1.0  0.13901  0.14573  0.34505  1.0000
  C   C4        1.0  0.13119  0.13270  0.33309  1.0000
  C   C5        1.0  0.11390  0.13679  0.32427  1.0000
  C   C6        1.0  0.10457  0.15357  0.32714  1.0000
  H   H4        1.0  0.13605  0.17252  0.35612  1.0000
  H   H5        1.0  0.15219  0.14287  0.35248  1.0000
  H   H6        1.0  0.10763  0.12688  0.31507  1.0000
  H   H7        1.0  0.09131  0.15641  0.32020  1.0000
  C   C7        1.0  0.20617  0.06758  0.54503  1.0000
  C   C8        1.0  0.21249  0.08267  0.54550  1.0000
  C   C9        1.0  0.21334  0.09222  0.51349  1.0000
  C   C10       1.0  0.20790  0.08671  0.48095  1.0000
  C   C11       1.0  0.20184  0.07146  0.48042  1.0000
  C   C12       1.0  0.20108  0.06188  0.51235  1.0000
  H   H8        1.0  0.21677  0.08695  0.57048  1.0000
  H   H9        1.0  0.21820  0.10392  0.51389  1.0000
  H   H10       1.0  0.19772  0.06707  0.45541  1.0000
  H   H11       1.0  0.19639  0.05011  0.51171  1.0000
  C   C13       1.0  0.06534  0.22554  0.54628  1.0000
  C   C14       1.0  0.06918  0.23144  0.51179  1.0000
  C   C15       1.0  0.06001  0.22807  0.48183  1.0000
  C   C16       1.0  0.04697  0.21878  0.48636  1.0000
  C   C17       1.0  0.04293  0.21320  0.52093  1.0000
  C   C18       1.0  0.05207  0.21658  0.55080  1.0000
  H   H12       1.0  0.07934  0.23852  0.50815  1.0000
  H   H13       1.0  0.06303  0.23263  0.45531  1.0000
  H   H14       1.0  0.03282  0.20607  0.52456  1.0000
  H   H15       1.0  0.04882  0.21221  0.57728  1.0000
  C   C19       1.0  0.11253  0.15089  0.69717  1.0000
  C   C20       1.0  0.12560  0.15912  0.68524  1.0000
  C   C21       1.0  0.14239  0.14994  0.68206  1.0000
  C   C22       1.0  0.14634  0.13235  0.68992  1.0000
  C   C23       1.0  0.13322  0.12407  0.70118  1.0000
  C   C24       1.0  0.11648  0.13332  0.70508  1.0000
  H   H16       1.0  0.12285  0.17262  0.67920  1.0000
  H   H17       1.0  0.15242  0.15654  0.67348  1.0000
  H   H18       1.0  0.13600  0.11059  0.70746  1.0000
  H   H19       1.0  0.10652  0.12681  0.71455  1.0000
  H   H20       1.0  0.12841  0.18690  0.76887  1.0000
  H   H21       1.0  0.17047  0.13751  0.17141  1.0000
  C   C25       1.0  0.15729  0.02309  0.69262  1.0000
  H   H22       1.0  0.23716  0.01974  0.76731  1.0000
  H   H23       1.0  0.17144  0.04332  0.57426  1.0000
  H   H24       1.0  0.07696  0.19426  0.85058  1.0000
  H   H25       1.0  0.10335  0.20131  0.85271  1.0000
  H   H26       1.0  0.13551  0.19859  0.81599  1.0000
  C   C26       1.0  0.16606  0.14176  0.24324  1.0000
  C   C27       1.0  0.12997  0.19292  0.83966  1.0000
  H   H27       1.0  0.00555  0.20253  0.36095  1.0000
  C   C28       1.0  0.14391  0.13798  0.18269  1.0000
  H   H28       1.0  0.13715  0.01276  0.45863  1.0000
  N   N1        1.0  0.10432  0.19114  0.79903  1.0000
  C   C29       1.0  0.11120  0.19108  0.83651  1.0000
  H   H29       1.0  0.18994  0.02724  0.61550  1.0000
  H   H30       1.0  0.24652  0.09655  0.30864  1.0000
  H   H31       1.0  0.09138  0.20896  0.75974  1.0000
  H   H32       1.0  0.06399  0.18331  0.82482  1.0000
  C   C30       1.0  0.24658  0.08199  0.26068  1.0000
  H   H33       1.0  0.10390  0.16802  0.53497  1.0000
  H   H34       1.0  0.07845  0.19588  0.49575  1.0000
  C   C31       1.0  0.10120  0.20530  0.44887  1.0000
  H   H35       1.0  0.11794  0.22297  0.80266  1.0000
  C   C32       1.0  0.07357  0.19167  0.82278  1.0000
  H   H36       1.0  0.13805  0.18044  0.84635  1.0000
  H   H37       1.0  0.18977  0.10283  0.17286  1.0000
  H   H38       1.0  0.24520  0.02028  0.33726  1.0000
  N   N2        1.0  0.16888  0.12514  0.22342  1.0000
  H   H39       1.0  0.15478  0.03616  0.68307  1.0000
  C   C33       1.0  0.16268  0.12916  0.18562  1.0000
  H   H40       1.0  0.16312  0.02488  0.45560  1.0000
  C   C34       1.0  0.15946  0.11307  0.24345  1.0000
  C   C35       1.0  0.18063  0.01499  0.34821  1.0000
  H   H41       1.0  0.12192  0.21415  0.75757  1.0000
  S   S28       1.0  0.01554  0.20163  0.28491  1.0000
  C   C36       1.0  0.15489  0.09825  0.22205  1.0000
  H   H42       1.0  0.08964  0.21049  0.43376  1.0000
  C   C37       1.0  0.21613  0.01032  0.57590  1.0000
  H   H43       1.0  0.16425  0.11769  0.16894  1.0000
  H   H44       1.0  0.17146  0.15157  0.22750  1.0000
  H   H45       1.0  0.13109  0.20122  0.86271  1.0000
  C   C38       1.0  0.16916  0.01811  0.71961  1.0000
  H   H46       1.0  0.16670  0.10745  0.26736  1.0000
  H   H47       1.0  0.14715  0.12019  0.25424  1.0000
  H   H48       1.0  0.00736  0.21552  0.56986  1.0000
  H   H49       1.0  0.19017  0.09072  0.21527  1.0000
  H   H50       1.0  0.16856  0.15337  0.29471  1.0000
  H   H51       1.0  0.24355  0.04932  0.31814  1.0000
  H   H52       1.0  0.08943  0.21658  0.80441  1.0000
  H   H53       1.0  0.10594  0.23228  0.76550  1.0000
  C   C39       1.0  0.17423  0.02943  0.56934  1.0000
  H   H54       1.0  0.16437  0.03136  0.31159  1.0000
  H   H55       1.0  0.20795  0.09932  0.20016  1.0000
  H   H56       1.0  0.15591  0.08689  0.24019  1.0000
  H   H57       1.0  0.16298  0.09430  0.19821  1.0000
  H   H58       1.0  0.14138  0.10122  0.21416  1.0000
  C   C40       1.0  0.08901  0.18264  0.80054  1.0000
  C   C41       1.0  0.11684  0.18140  0.77260  1.0000
  C   C42       1.0  0.12288  0.16237  0.78187  1.0000
  H   H59       1.0  0.08449  0.18107  0.77290  1.0000
  H   H60       1.0  0.09228  0.16954  0.81218  1.0000
  H   H61       1.0  0.11129  0.18227  0.74526  1.0000
  H   H62       1.0  0.11013  0.17895  0.85090  1.0000
  H   H63       1.0  0.06721  0.20364  0.80939  1.0000
  H   H64       1.0  0.13387  0.15715  0.76411  1.0000
  H   H65       1.0  0.12703  0.16015  0.81006  1.0000
  H   H66       1.0  0.11288  0.15492  0.77660  1.0000
  N   N3        1.0  0.09221  0.17627  0.46150  1.0000
  C   C43       1.0  0.10571  0.18573  0.44767  1.0000
  C   C44       1.0  0.10005  0.15766  0.46491  1.0000
  C   C45       1.0  0.08528  0.18252  0.49778  1.0000
  C   C46       1.0  0.07782  0.17922  0.43539  1.0000
  C   C47       1.0  0.10443  0.14831  0.42911  1.0000
  C   C48       1.0  0.09838  0.18140  0.52783  1.0000
  C   C49       1.0  0.06306  0.16977  0.44417  1.0000
  H   H67       1.0  0.11772  0.18176  0.46252  1.0000
  H   H68       1.0  0.10911  0.18253  0.41910  1.0000
  H   H69       1.0  0.09188  0.15053  0.48135  1.0000
  H   H70       1.0  0.11208  0.15595  0.48001  1.0000
  H   H71       1.0  0.07187  0.19292  0.43402  1.0000
  H   H72       1.0  0.08235  0.17651  0.40716  1.0000
  H   H73       1.0  0.09297  0.14775  0.41341  1.0000
  H   H74       1.0  0.11343  0.15417  0.41232  1.0000
  H   H75       1.0  0.11071  0.13497  0.43485  1.0000
  H   H76       1.0  0.09185  0.18729  0.55244  1.0000
  H   H77       1.0  0.10863  0.18848  0.52082  1.0000
  H   H78       1.0  0.05322  0.17766  0.46126  1.0000
  H   H79       1.0  0.06701  0.15731  0.45776  1.0000
  H   H80       1.0  0.05719  0.16700  0.41875  1.0000
  H   H81       1.0  0.20041  0.01526  0.66498  1.0000
  N   N4        1.0  0.16023  0.11913  0.57385  1.0000
  C   C50       1.0  0.15388  0.13656  0.58914  1.0000
  C   C51       1.0  0.17887  0.11452  0.58193  1.0000
  C   C52       1.0  0.15106  0.10672  0.59347  1.0000
  C   C53       1.0  0.15664  0.11990  0.53405  1.0000
  C   C54       1.0  0.13449  0.14288  0.58979  1.0000
  C   C55       1.0  0.19003  0.12655  0.56547  1.0000
  C   C56       1.0  0.15556  0.08803  0.58199  1.0000
  C   C57       1.0  0.16739  0.10610  0.51021  1.0000
  H   H82       1.0  0.15824  0.13716  0.61716  1.0000
  H   H83       1.0  0.15935  0.14642  0.57384  1.0000
  H   H84       1.0  0.18450  0.10158  0.57339  1.0000
  H   H85       1.0  0.18080  0.11404  0.61158  1.0000
  H   H86       1.0  0.15311  0.10701  0.62303  1.0000
  H   H87       1.0  0.13714  0.11029  0.58991  1.0000
  H   H88       1.0  0.14305  0.11952  0.52968  1.0000
  H   H89       1.0  0.15864  0.13229  0.52217  1.0000
  H   H90       1.0  0.12873  0.14146  0.56351  1.0000
  H   H91       1.0  0.12824  0.13636  0.61148  1.0000
  H   H92       1.0  0.13174  0.15661  0.59631  1.0000
  H   H93       1.0  0.18835  0.12848  0.53606  1.0000
  H   H94       1.0  0.18769  0.13898  0.57903  1.0000
  H   H95       1.0  0.20356  0.12085  0.56983  1.0000
  H   H96       1.0  0.15127  0.08642  0.55436  1.0000
  H   H97       1.0  0.14866  0.08032  0.60012  1.0000
  H   H98       1.0  0.16921  0.08249  0.58447  1.0000
  H   H99       1.0  0.15906  0.10158  0.49062  1.0000
  H   H100      1.0  0.17408  0.09469  0.52458  1.0000
  H   H101      1.0  0.17676  0.11162  0.49357  1.0000
  H   H102      1.0  0.00451  0.23430  0.20262  1.0000
  H   H103      1.0  0.01441  0.17934  0.65741  1.0000
  C   C58       1.0  0.14833  0.01120  0.67868  1.0000
  H   H104      1.0  0.09975  0.21002  0.47679  1.0000
  H   H105      1.0  0.16923  0.13103  0.29845  1.0000
  H   H106      1.0  0.13532  0.13153  0.19942  1.0000
  C   C59       1.0  0.17335  0.14106  0.28139  1.0000
  S   S29       1.0  0.01192  0.21417  0.68423  1.0000
  C   C60       1.0  0.09848  0.20907  0.78506  1.0000
  H   H107      1.0  0.14207  0.15155  0.19019  1.0000
  H   H108      1.0  0.19259  0.11515  0.25004  1.0000
  C   C61       1.0  0.11216  0.21988  0.77747  1.0000
  H   H109      1.0  0.13902  0.01516  0.65812  1.0000
  C   C62       1.0  0.19385  0.10188  0.20118  1.0000
  C   C63       1.0  0.16875  0.01839  0.32077  1.0000
  H   H110      1.0  0.15226  0.14700  0.24675  1.0000
  H   H111      1.0  0.23705  0.02552  0.28191  1.0000
  S   S30       1.0  0.06720  0.24433  0.76313  1.0000
  H   H112      1.0  0.20766  0.00496  0.80164  1.0000
  H   H113      1.0  0.16216  0.02595  0.56117  1.0000
  H   H114      1.0  0.13995  0.13777  0.15427  1.0000
  H   H115      1.0  0.18739  0.13932  0.28075  1.0000
  S   S31       1.0  0.24011  0.07092  0.75072  1.0000
  C   C64       1.0  0.18772  0.11825  0.22239  1.0000
  H   H116      1.0  0.21773  0.03078  0.78553  1.0000
  H   H117      1.0  0.19467  0.12806  0.21111  1.0000
  C   C65       1.0  0.22706  0.01864  0.78753  1.0000
  H   H118      1.0  0.07548  0.17530  0.50782  1.0000
  H   H119      1.0  0.22923  0.00289  0.57300  1.0000
  H   H120      1.0  0.00578  0.24170  0.24695  1.0000
  H   H121      1.0  0.23201  0.01797  0.81523  1.0000
  H   H122      1.0  0.25106  0.06775  0.21171  1.0000
  C   C66       1.0  0.18090  0.01999  0.60431  1.0000
  H   H123      1.0  0.21583  0.01767  0.60071  1.0000
  H   H124      1.0  0.17526  0.00586  0.43772  1.0000
  H   H125      1.0  0.24533  0.02126  0.23784  1.0000
  C   C67       1.0  0.16227  0.01348  0.43978  1.0000
  H   H126      1.0  0.21445  0.01933  0.55249  1.0000
  H   H127      1.0  0.24014  0.04293  0.25296  1.0000
  C   C68       1.0  0.24558  0.02963  0.26116  1.0000
  H   H128      1.0  0.21111  0.00689  0.75451  1.0000
  C   C69       1.0  0.21779  0.00388  0.78051  1.0000
  H   H129      1.0  0.15303  0.00767  0.28450  1.0000
  H   H130      1.0  0.17016  0.02172  0.62411  1.0000
  H   H131      1.0  0.00189  0.19574  0.58338  1.0000
  C   C70       1.0  0.16229  0.00494  0.30557  1.0000
  C   C71       1.0  0.14952  0.00377  0.45865  1.0000
  H   H132      1.0  0.02604  0.28924  0.64085  1.0000
  S   S32       1.0  0.05171  0.26916  0.32395  1.0000
  H   H133      1.0  0.02071  0.31089  0.19393  1.0000
  C   C72       1.0  0.03229  0.27582  0.69085  1.0000
  C   C73       1.0  0.09538  0.31028  0.12595  1.0000
  H   H134      1.0  0.10825  0.41563  0.93138  1.0000
  C   C74       1.0  0.05137  0.30170  0.29789  1.0000
  H   H135      1.0  0.02035  0.30860  0.25546  1.0000
  S   S33       1.0  0.04881  0.48972  0.27373  1.0000
  H   H136      1.0  0.07379  0.40646  0.83858  1.0000
  H   H137      1.0  0.03344  0.48757  0.54466  1.0000
  H   H138      1.0  0.01608  0.29225  0.14796  1.0000
  S   S34       1.0  0.06903  0.46499  0.73244  1.0000
  C   C75       1.0  0.06749  0.27007  0.65031  1.0000
  H   H139      1.0  0.11246  0.33450  0.15262  1.0000
  H   H140      1.0  0.08475  0.28874  0.10532  1.0000
  H   H141      1.0  0.04544  0.42333  0.92297  1.0000
  H   H142      1.0  0.04834  0.27192  0.80438  1.0000
  H   H143      1.0  0.03628  0.26774  0.63610  1.0000
  H   H144      1.0  0.01111  0.47182  0.63922  1.0000
  Fe  Fe17      1.0  0.05206  0.39196  0.21987  1.0000
  S   S35       1.0  0.04326  0.40279  0.16595  1.0000
  S   S36       1.0  0.05412  0.40891  0.26782  1.0000
  Fe  Fe18      1.0  0.05158  0.35453  0.19808  1.0000
  S   S37       1.0  0.04203  0.36347  0.14310  1.0000
  S   S38       1.0  0.05625  0.32527  0.20008  1.0000
  Fe  Fe19      1.0  0.06108  0.38041  0.14231  1.0000
  S   S39       1.0  0.07961  0.38162  0.09549  1.0000
  Fe  Fe20      1.0  0.02514  0.38473  0.17123  1.0000
  H   H145      1.0  0.04874  0.46333  0.33021  1.0000
  S   S40       1.0  0.07174  0.37078  0.19624  1.0000
  S   S41       1.0  0.03284  0.37475  0.22625  1.0000
  Fe  Fe21      1.0  0.06651  0.36014  0.88632  1.0000
  S   S42       1.0  0.07197  0.36559  0.82766  1.0000
  S   S43       1.0  0.08535  0.36408  0.92847  1.0000
  Fe  Fe22      1.0  0.03237  0.35225  0.87001  1.0000
  S   S44       1.0  0.03460  0.35763  0.81060  1.0000
  Fe  Fe23      1.0  0.06098  0.34216  0.81624  1.0000
  S   S45       1.0  0.07302  0.32285  0.77384  1.0000
  Fe  Fe24      1.0  0.04524  0.38043  0.82670  1.0000
  S   S46       1.0  0.03383  0.40747  0.80725  1.0000
  S   S47       1.0  0.05801  0.33561  0.87500  1.0000
  S   S48       1.0  0.04062  0.37613  0.88588  1.0000
  C   C76       1.0  0.08053  0.27312  0.74412  1.0000
  C   C77       1.0  0.08188  0.29034  0.74765  1.0000
  C   C78       1.0  0.07108  0.30107  0.77136  1.0000
  C   C79       1.0  0.05892  0.29428  0.79160  1.0000
  H   H146      1.0  0.07207  0.34661  0.08958  1.0000
  H   H147      1.0  0.09147  0.29536  0.73221  1.0000
  H   H148      1.0  0.05056  0.30230  0.81008  1.0000
  C   C80       1.0  0.07954  0.37671  0.04910  1.0000
  C   C81       1.0  0.06533  0.37346  0.03096  1.0000
  C   C82       1.0  0.06659  0.36965  0.99368  1.0000
  C   C83       1.0  0.08214  0.36884  0.97486  1.0000
  C   C84       1.0  0.09618  0.37189  0.99343  1.0000
  C   C85       1.0  0.09485  0.37594  0.02993  1.0000
  H   H149      1.0  0.05341  0.37402  0.04548  1.0000
  H   H150      1.0  0.05565  0.36726  0.97965  1.0000
  H   H151      1.0  0.10824  0.37120  0.97940  1.0000
  H   H152      1.0  0.10590  0.37839  0.04354  1.0000
  C   C86       1.0  0.05540  0.30990  0.23520  1.0000
  C   C87       1.0  0.05230  0.31438  0.27123  1.0000
  C   C88       1.0  0.05766  0.29260  0.22631  1.0000
  H   H153      1.0  0.05060  0.32759  0.27860  1.0000
  H   H154      1.0  0.06006  0.28895  0.19857  1.0000
  C   C89       1.0  0.04421  0.42321  0.78727  1.0000
  C   C90       1.0  0.06009  0.41915  0.77010  1.0000
  C   C91       1.0  0.06747  0.43207  0.75337  1.0000
  C   C92       1.0  0.05910  0.44917  0.75357  1.0000
  C   C93       1.0  0.04334  0.45324  0.77126  1.0000
  C   C94       1.0  0.03596  0.44034  0.78802  1.0000
  H   H155      1.0  0.06657  0.40604  0.76913  1.0000
  H   H156      1.0  0.07971  0.42879  0.73990  1.0000
  H   H157      1.0  0.03696  0.46638  0.77234  1.0000
  H   H158      1.0  0.02382  0.44365  0.80178  1.0000
  C   C95       1.0  0.07334  0.33402  0.10363  1.0000
  C   C96       1.0  0.00553  0.46890  0.71295  1.0000
  H   H159      1.0  0.09338  0.35011  0.14417  1.0000
  H   H160      1.0  0.09742  0.40726  0.96772  1.0000
  C   C97       1.0  0.10355  0.33515  0.09665  1.0000
  H   H161      1.0  0.08693  0.28100  0.61827  1.0000
  H   H162      1.0  0.02095  0.26972  0.69187  1.0000
  H   H163      1.0  0.09805  0.33523  0.02254  1.0000
  H   H164      1.0  0.04892  0.30533  0.32567  1.0000
  C   C98       1.0  0.05361  0.28440  0.28905  1.0000
  C   C99       1.0  0.04945  0.46733  0.27280  1.0000
  C   C100      1.0  0.05035  0.45927  0.23930  1.0000
  C   C101      1.0  0.05152  0.44149  0.23721  1.0000
  C   C102      1.0  0.05193  0.43148  0.26869  1.0000
  C   C103      1.0  0.05072  0.43959  0.30215  1.0000
  C   C104      1.0  0.04942  0.45738  0.30424  1.0000
  H   H165      1.0  0.05041  0.46678  0.21477  1.0000
  H   H166      1.0  0.05249  0.43548  0.21128  1.0000
  H   H167      1.0  0.05101  0.43201  0.32669  1.0000
  S   S49       1.0  0.03344  0.49657  0.68296  1.0000
  H   H168      1.0  0.05307  0.28515  0.54961  1.0000
  C   C105      1.0  0.05685  0.27992  0.25302  1.0000
  H   H169      1.0  0.06001  0.44393  0.89044  1.0000
  H   H170      1.0  0.01394  0.28132  0.28739  1.0000
  H   H171      1.0  0.09070  0.42562  0.81372  1.0000
  H   H172      1.0  0.07898  0.44645  0.82534  1.0000
  H   H173      1.0  0.00782  0.48637  0.75526  1.0000
  H   H174      1.0  0.10559  0.30796  0.05608  1.0000
  H   H175      1.0  0.04685  0.41028  0.88329  1.0000
  H   H176      1.0  0.10152  0.44248  0.82352  1.0000
  H   H177      1.0  0.05901  0.43340  0.84926  1.0000
  H   H178      1.0  0.01625  0.44462  0.25785  1.0000
  H   H179      1.0  0.06367  0.31925  0.63798  1.0000
  H   H180      1.0  0.06420  0.26837  0.57702  1.0000
  C   C106      1.0  0.08583  0.27206  0.64083  1.0000
  C   C107      1.0  0.08048  0.40424  0.86467  1.0000
  H   H181      1.0  0.01890  0.33040  0.82836  1.0000
  C   C108      1.0  0.00583  0.44827  0.66573  1.0000
  H   H182      1.0  0.06914  0.49906  0.16601  1.0000
  C   C109      1.0  0.01020  0.40994  0.29162  1.0000
  H   H183      1.0  0.03428  0.43107  0.88319  1.0000
  H   H184      1.0  0.01831  0.33663  0.24836  1.0000
  H   H185      1.0  0.01932  0.49453  0.58200  1.0000
  H   H186      1.0  0.04122  0.27336  0.57821  1.0000
  H   H187      1.0  0.01415  0.34099  0.20098  1.0000
  C   C110      1.0  0.05762  0.27704  0.78812  1.0000
  H   H188      1.0  0.01974  0.44340  0.66812  1.0000
  H   H189      1.0  0.00830  0.38366  0.84338  1.0000
  N   N5        1.0  0.09072  0.32354  0.09655  1.0000
  S   S50       1.0  0.00929  0.34554  0.89771  1.0000
  Fe  Fe25      1.0  0.05612  0.49225  0.71831  1.0000
  H   H190      1.0  0.10021  0.34578  0.07678  1.0000
  C   C111      1.0  0.03678  0.27952  0.65105  1.0000
  H   H191      1.0  0.07388  0.39520  0.87997  1.0000
  H   H192      1.0  0.09437  0.31630  0.15285  1.0000
  H   H193      1.0  0.06477  0.29767  0.59947  1.0000
  N   N6        1.0  0.05351  0.28525  0.64420  1.0000
  C   C112      1.0  0.01126  0.28536  0.25893  1.0000
  C   C113      1.0  0.06730  0.31092  0.66188  1.0000
  H   H194      1.0  0.00372  0.35513  0.23410  1.0000
  C   C114      1.0  0.10566  0.34367  0.13266  1.0000
  H   H195      1.0  0.11636  0.32824  0.08821  1.0000
  H   H196      1.0  0.01729  0.43547  0.72804  1.0000
  H   H197      1.0  0.10122  0.39517  0.82612  1.0000
  H   H198      1.0  0.02199  0.46814  0.47698  1.0000
  H   H199      1.0  0.06729  0.31949  0.68503  1.0000
  H   H200      1.0  0.07136  0.30173  0.13848  1.0000
  C   C115      1.0  0.00248  0.44657  0.26460  1.0000
  H   H201      1.0  0.07565  0.33570  0.03033  1.0000
  H   H202      1.0  0.10903  0.39879  0.86978  1.0000
  H   H203      1.0  0.01649  0.41889  0.30618  1.0000
  H   H204      1.0  0.07712  0.42951  0.93948  1.0000
  H   H205      1.0  0.05863  0.26669  0.24576  1.0000
  H   H206      1.0  0.10142  0.39524  0.92800  1.0000
  C   C116      1.0  0.09806  0.40841  0.93787  1.0000
  H   H207      1.0  0.08982  0.28738  0.15173  1.0000
  C   C117      1.0  0.00320  0.43927  0.72793  1.0000
  C   C118      1.0  0.08455  0.29638  0.12983  1.0000
  C   C119      1.0  0.06826  0.26638  0.76408  1.0000
  C   C120      1.0  0.00666  0.29356  0.17059  1.0000
  C   C121      1.0  0.05780  0.32647  0.09278  1.0000
  H   H208      1.0  0.09960  0.38094  0.86271  1.0000
  H   H209      1.0  0.06756  0.26576  0.67890  1.0000
  H   H210      1.0  0.10458  0.42547  0.87648  1.0000
  H   H211      1.0  0.01966  0.46545  0.71235  1.0000
  H   H212      1.0  0.07172  0.33705  0.13272  1.0000
  H   H213      1.0  0.06052  0.31316  0.08405  1.0000
  C   C122      1.0  0.06130  0.43109  0.87849  1.0000
  H   H214      1.0  0.08932  0.26492  0.72679  1.0000
  C   C123      1.0  0.05293  0.27879  0.57648  1.0000
  H   H215      1.0  0.03043  0.47957  0.44192  1.0000
  H   H216      1.0  0.02252  0.27991  0.24223  1.0000
  C   C124      1.0  0.00770  0.30494  0.25640  1.0000
  H   H217      1.0  0.01001  0.42652  0.16843  1.0000
  H   H218      1.0  0.07164  0.40912  0.93455  1.0000
  C   C125      1.0  0.05350  0.29196  0.60593  1.0000
  C   C126      1.0  0.00711  0.31022  0.19020  1.0000
  H   H219      1.0  0.10885  0.30378  0.12248  1.0000
  C   C127      1.0  0.05439  0.29926  0.67023  1.0000
  H   H220      1.0  0.08443  0.30543  0.05831  1.0000
  H   H221      1.0  0.06514  0.25883  0.63559  1.0000
  H   H222      1.0  0.05076  0.33443  0.07114  1.0000
  C   C128      1.0  0.09039  0.43668  0.83124  1.0000
  C   C129      1.0  0.08056  0.41737  0.92460  1.0000
  H   H223      1.0  0.00261  0.46727  0.77271  1.0000
  H   H224      1.0  0.08949  0.44353  0.88714  1.0000
  H   H225      1.0  0.00936  0.49605  0.35843  1.0000
  H   H226      1.0  0.04253  0.30260  0.60196  1.0000
  H   H227      1.0  0.04187  0.30802  0.67233  1.0000
  H   H228      1.0  0.05700  0.29390  0.69782  1.0000
  H   H229      1.0  0.08044  0.30396  0.65869  1.0000
  H   H230      1.0  0.00999  0.36493  0.11521  1.0000
  C   C130      1.0  0.08824  0.32734  0.02755  1.0000
  H   H231      1.0  0.04882  0.32692  0.11613  1.0000
  H   H232      1.0  0.04054  0.47731  0.48402  1.0000
  C   C131      1.0  0.04629  0.42330  0.89313  1.0000
  H   H233      1.0  0.02900  0.28767  0.70650  1.0000
  C   C132      1.0  0.09866  0.39464  0.85560  1.0000
  C   C133      1.0  0.09129  0.43157  0.87157  1.0000
  H   H234      1.0  0.04255  0.26701  0.70467  1.0000
  C   C134      1.0  0.09242  0.31517  0.06031  1.0000
  H   H235      1.0  0.11342  0.35365  0.12785  1.0000
  H   H236      1.0  0.08799  0.31978  0.00294  1.0000
  N   N7        1.0  0.07881  0.42072  0.88459  1.0000
  H   H237      1.0  0.01857  0.41648  0.23893  1.0000
  H   H238      1.0  0.00235  0.32049  0.17023  1.0000
  H   H239      1.0  0.00990  0.28213  0.18804  1.0000
  H   H240      1.0  0.01752  0.43993  0.19967  1.0000
  C   C135      1.0  0.02788  0.47933  0.47143  1.0000
  H   H241      1.0  0.09216  0.27584  0.66475  1.0000
  C   C136      1.0  0.01717  0.49669  0.48247  1.0000
  H   H242      1.0  0.02722  0.47247  0.57572  1.0000
  H   H243      1.0  0.00922  0.47012  0.52842  1.0000
  H   H244      1.0  0.01927  0.39763  0.29105  1.0000
  C   C137      1.0  0.02266  0.48467  0.56122  1.0000
  C   C138      1.0  0.00705  0.48319  0.53874  1.0000
  H   H245      1.0  0.04858  0.50109  0.18637  1.0000
  S   S51       1.0  0.04094  0.50219  0.38126  1.0000
  H   H246      1.0  0.09312  0.25963  0.63166  1.0000
  C   C139      1.0  0.00840  0.34147  0.22848  1.0000
  C   C140      1.0  0.00623  0.43806  0.18492  1.0000
  C   C141      1.0  0.00616  0.41607  0.25259  1.0000
  C   C142      1.0  0.00582  0.32980  0.83437  1.0000
  H   H247      1.0  0.00853  0.45543  0.60949  1.0000
  N   N8        1.0  0.00275  0.49644  0.50919  1.0000
  C   C143      1.0  0.00366  0.46172  0.63496  1.0000
  H   H248      1.0  0.00286  0.44914  0.16626  1.0000
  H   H249      1.0  0.00157  0.41673  0.69594  1.0000
  H   H250      1.0  0.00234  0.30988  0.28284  1.0000
  H   H251      1.0  0.00198  0.44584  0.29458  1.0000
  H   H252      1.0  0.00212  0.47976  0.69369  1.0000
  S   S52       1.0  0.02916  0.57232  0.30290  1.0000
  H   H253      1.0  0.07788  0.74278  0.60922  1.0000
  C   C144      1.0  0.13381  0.73090  0.66306  1.0000
  S   S53       1.0  0.06938  0.55118  0.74377  1.0000
  H   H254      1.0  0.00535  0.65040  0.21640  1.0000
  S   S54       1.0  0.03310  0.53756  0.68928  1.0000
  Fe  Fe26      1.0  0.04737  0.65217  0.19043  1.0000
  S   S55       1.0  0.02434  0.65994  0.15607  1.0000
  S   S56       1.0  0.06101  0.62516  0.20399  1.0000
  Fe  Fe27      1.0  0.05006  0.68913  0.20530  1.0000
  S   S57       1.0  0.02740  0.69973  0.17245  1.0000
  S   S58       1.0  0.06444  0.70365  0.24167  1.0000
  Fe  Fe28      1.0  0.01571  0.67927  0.19877  1.0000
  C   C145      1.0  0.06462  0.59489  0.58650  1.0000
  Fe  Fe29      1.0  0.03785  0.67974  0.13170  1.0000
  S   S59       1.0  0.03244  0.68926  0.07409  1.0000
  S   S60       1.0  0.03742  0.67001  0.23482  1.0000
  S   S61       1.0  0.06185  0.67070  0.16272  1.0000
  Fe  Fe30      1.0  0.04127  0.65076  0.80443  1.0000
  S   S62       1.0  0.03022  0.65623  0.86014  1.0000
  S   S63       1.0  0.03492  0.62844  0.77321  1.0000
  Fe  Fe31      1.0  0.04836  0.68786  0.79506  1.0000
  S   S64       1.0  0.03751  0.69570  0.84986  1.0000
  S   S65       1.0  0.05448  0.70517  0.74874  1.0000
  Fe  Fe32      1.0  0.05160  0.67004  0.86883  1.0000
  S   S66       1.0  0.06569  0.66521  0.92181  1.0000
  Fe  Fe33      1.0  0.01719  0.68115  0.83684  1.0000
  C   C146      1.0  0.09884  0.74468  0.64384  1.0000
  S   S67       1.0  0.06403  0.66285  0.81423  1.0000
  S   S68       1.0  0.02682  0.67524  0.78115  1.0000
  C   C147      1.0  0.04124  0.68131  0.03217  1.0000
  C   C148      1.0  0.05539  0.66817  0.02978  1.0000
  C   C149      1.0  0.06268  0.66326  0.99580  1.0000
  C   C150      1.0  0.05562  0.67106  0.96390  1.0000
  C   C151      1.0  0.04123  0.68391  0.96635  1.0000
  C   C152      1.0  0.03424  0.68914  0.00030  1.0000
  H   H255      1.0  0.06094  0.66201  0.05403  1.0000
  H   H256      1.0  0.07383  0.65332  0.99414  1.0000
  H   H257      1.0  0.03575  0.69010  0.94206  1.0000
  H   H258      1.0  0.02341  0.69943  0.00179  1.0000
  H   H259      1.0  0.07469  0.66470  0.24560  1.0000
  H   H260      1.0  0.06425  0.66050  0.34219  1.0000
  C   C153      1.0  0.01094  0.74088  0.27713  1.0000
  H   H261      1.0  0.11308  0.70968  0.71309  1.0000
  H   H262      1.0  0.01242  0.50356  0.45733  1.0000
  N   N9        1.0  0.06690  0.56940  0.63192  1.0000
  H   H263      1.0  0.07320  0.73599  0.04788  1.0000
  S   S69       1.0  0.07302  0.51921  0.43951  1.0000
  C   C154      1.0  0.07972  0.74596  0.63762  1.0000
  H   H264      1.0  0.03096  0.51950  0.22092  1.0000
  C   C155      1.0  0.06083  0.72616  0.24343  1.0000
  C   C156      1.0  0.06603  0.73392  0.27368  1.0000
  C   C157      1.0  0.06403  0.75175  0.27534  1.0000
  H   H265      1.0  0.03671  0.55659  0.16433  1.0000
  H   H266      1.0  0.00442  0.72106  0.84659  1.0000
  C   C158      1.0  0.05362  0.73642  0.21474  1.0000
  H   H267      1.0  0.07168  0.72612  0.29598  1.0000
  C   C159      1.0  0.07468  0.53390  0.24117  1.0000
  H   H268      1.0  0.07783  0.54252  0.26191  1.0000
  H   H269      1.0  0.04940  0.73062  0.19154  1.0000
  Fe  Fe34      1.0  0.05545  0.52297  0.39167  1.0000
  H   H270      1.0  0.05645  0.57585  0.16921  1.0000
  C   C160      1.0  0.05582  0.73575  0.78135  1.0000
  C   C161      1.0  0.05316  0.72748  0.74984  1.0000
  C   C162      1.0  0.05024  0.73703  0.71762  1.0000
  C   C163      1.0  0.03001  0.53207  0.20678  1.0000
  H   H271      1.0  0.12214  0.64743  0.30457  1.0000
  H   H272      1.0  0.05814  0.72854  0.80630  1.0000
  H   H273      1.0  0.04808  0.73074  0.69317  1.0000
  Fe  Fe35      1.0  0.04513  0.51636  0.65308  1.0000
  C   C164      1.0  0.05929  0.57226  0.75449  1.0000
  C   C165      1.0  0.04221  0.57844  0.74711  1.0000
  C   C166      1.0  0.03500  0.59560  0.75340  1.0000
  C   C167      1.0  0.04460  0.60673  0.76797  1.0000
  C   C168      1.0  0.06157  0.60046  0.77615  1.0000
  C   C169      1.0  0.06889  0.58335  0.76920  1.0000
  H   H274      1.0  0.03460  0.57006  0.73614  1.0000
  H   H275      1.0  0.02186  0.60031  0.74702  1.0000
  H   H276      1.0  0.06914  0.60886  0.78724  1.0000
  H   H277      1.0  0.08210  0.57872  0.77506  1.0000
  C   C170      1.0  0.03864  0.58694  0.27648  1.0000
  C   C171      1.0  0.05588  0.58386  0.26683  1.0000
  C   C172      1.0  0.06255  0.59566  0.24462  1.0000
  C   C173      1.0  0.05215  0.61075  0.23227  1.0000
  C   C174      1.0  0.03501  0.61395  0.24252  1.0000
  C   C175      1.0  0.02830  0.60207  0.26425  1.0000
  H   H278      1.0  0.06403  0.57239  0.27635  1.0000
  H   H279      1.0  0.07586  0.59308  0.23698  1.0000
  H   H280      1.0  0.02683  0.62546  0.23325  1.0000
  H   H281      1.0  0.01494  0.60462  0.27151  1.0000
  H   H282      1.0  0.08618  0.72549  0.15573  1.0000
  H   H283      1.0  0.10511  0.73224  0.63317  1.0000
  H   H284      1.0  0.10255  0.73632  0.73584  1.0000
  C   C176      1.0  0.04845  0.52272  0.55307  1.0000
  C   C177      1.0  0.09803  0.64701  0.23684  1.0000
  S   S70       1.0  0.06908  0.51048  0.68519  1.0000
  H   H285      1.0  0.06447  0.70969  0.03669  1.0000
  H   H286      1.0  0.05216  0.52431  0.25469  1.0000
  H   H287      1.0  0.07604  0.60069  0.58917  1.0000
  H   H288      1.0  0.04941  0.54663  0.25655  1.0000
  H   H289      1.0  0.11555  0.65445  0.34836  1.0000
  H   H290      1.0  0.09115  0.63793  0.22436  1.0000
  C   C178      1.0  0.04682  0.52920  0.48852  1.0000
  C   C179      1.0  0.03945  0.53040  0.52324  1.0000
  C   C180      1.0  0.10104  0.71606  0.70065  1.0000
  C   C181      1.0  0.06894  0.57554  0.59372  1.0000
  H   H291      1.0  0.08742  0.52685  0.62170  1.0000
  H   H292      1.0  0.00657  0.73454  0.25377  1.0000
  H   H293      1.0  0.02168  0.75170  0.76205  1.0000
  N   N10       1.0  0.07501  0.71533  0.08760  1.0000
  C   C182      1.0  0.07347  0.70345  0.05736  1.0000
  C   C183      1.0  0.05777  0.71970  0.10573  1.0000
  C   C184      1.0  0.08789  0.70589  0.11355  1.0000
  C   C185      1.0  0.08083  0.73077  0.07164  1.0000
  C   C186      1.0  0.09002  0.69616  0.03654  1.0000
  C   C187      1.0  0.08660  0.71172  0.15298  1.0000
  H   H294      1.0  0.08348  0.73905  0.71352  1.0000
  H   H295      1.0  0.03169  0.73264  0.09948  1.0000
  H   H296      1.0  0.06824  0.69236  0.06798  1.0000
  H   H297      1.0  0.09390  0.72722  0.06015  1.0000
  H   H298      1.0  0.05804  0.72707  0.13044  1.0000
  H   H299      1.0  0.05349  0.70787  0.11519  1.0000
  H   H300      1.0  0.08707  0.69213  0.11525  1.0000
  H   H301      1.0  0.10104  0.70625  0.10376  1.0000
  H   H302      1.0  0.06998  0.52853  0.17007  1.0000
  H   H303      1.0  0.02629  0.50407  0.49329  1.0000
  Fe  Fe36      1.0  0.01896  0.52392  0.37719  1.0000
  H   H304      1.0  0.06620  0.59343  0.69245  1.0000
  Fe  Fe37      1.0  0.03816  0.54657  0.33122  1.0000
  N   N11       1.0  0.04723  0.53710  0.20311  1.0000
  H   H305      1.0  0.01118  0.55589  0.21068  1.0000
  H   H306      1.0  0.00505  0.51932  0.66129  1.0000
  Fe  Fe38      1.0  0.05594  0.53063  0.72339  1.0000
  H   H307      1.0  0.10827  0.66766  0.31080  1.0000
  H   H308      1.0  0.05995  0.59731  0.55859  1.0000
  Fe  Fe39      1.0  0.02315  0.51752  0.72093  1.0000
  H   H309      1.0  0.02659  0.53722  0.52690  1.0000
  H   H310      1.0  0.03435  0.57905  0.59771  1.0000
  S   S71       1.0  0.03761  0.52362  0.59524  1.0000
  C   C188      1.0  0.00770  0.72438  0.77222  1.0000
  H   H311      1.0  0.04807  0.56978  0.67448  1.0000
  C   C189      1.0  0.06915  0.66575  0.31702  1.0000
  H   H312      1.0  0.10918  0.63989  0.25109  1.0000
  H   H313      1.0  0.05097  0.52692  0.14946  1.0000
  C   C190      1.0  0.06044  0.50629  0.18628  1.0000
  S   S72       1.0  0.06214  0.52662  0.33259  1.0000
  H   H314      1.0  0.09231  0.67060  0.26468  1.0000
  H   H315      1.0  0.06058  0.54585  0.61328  1.0000
  C   C191      1.0  0.06380  0.62973  0.32078  1.0000
  N   N12       1.0  0.08117  0.65217  0.29699  1.0000
  C   C192      1.0  0.01619  0.54445  0.22737  1.0000
  C   C193      1.0  0.09615  0.64458  0.31970  1.0000
  H   H316      1.0  0.09060  0.71018  0.71243  1.0000
  H   H317      1.0  0.09984  0.68885  0.05421  1.0000
  H   H318      1.0  0.10278  0.65429  0.21429  1.0000
  S   S73       1.0  0.03299  0.54437  0.39076  1.0000
  H   H319      1.0  0.06162  0.56925  0.57471  1.0000
  H   H320      1.0  0.05914  0.61843  0.31111  1.0000
  H   H321      1.0  0.05428  0.60163  0.60385  1.0000
  H   H322      1.0  0.07236  0.50843  0.57088  1.0000
  C   C194      1.0  0.08618  0.65949  0.26142  1.0000
  H   H323      1.0  0.09727  0.54309  0.63877  1.0000
  H   H324      1.0  0.08159  0.68800  0.30663  1.0000
  H   H325      1.0  0.08576  0.67766  0.35054  1.0000
  H   H326      1.0  0.06575  0.69060  0.34105  1.0000
  H   H327      1.0  0.05784  0.67071  0.30041  1.0000
  C   C195      1.0  0.11112  0.65429  0.32028  1.0000
  C   C196      1.0  0.04936  0.57572  0.64742  1.0000
  H   H328      1.0  0.04693  0.58954  0.65243  1.0000
  H   H329      1.0  0.09265  0.57274  0.64134  1.0000
  H   H330      1.0  0.08057  0.52086  0.25035  1.0000
  C   C197      1.0  0.09732  0.73522  0.70871  1.0000
  C   C198      1.0  0.05736  0.52538  0.17597  1.0000
  C   C199      1.0  0.03448  0.57264  0.62449  1.0000
  H   H331      1.0  0.06848  0.55560  0.15807  1.0000
  H   H332      1.0  0.07981  0.62776  0.27389  1.0000
  H   H333      1.0  0.07372  0.60236  0.65136  1.0000
  C   C200      1.0  0.06948  0.55023  0.63176  1.0000
  H   H334      1.0  0.09195  0.64292  0.34813  1.0000
  H   H335      1.0  0.05255  0.63821  0.33248  1.0000
  H   H336      1.0  0.09518  0.70618  0.02132  1.0000
  H   H337      1.0  0.09063  0.54373  0.59213  1.0000
  S   S74       1.0  0.02210  0.52751  0.31795  1.0000
  H   H338      1.0  0.08240  0.56530  0.67959  1.0000
  C   C201      1.0  0.07153  0.63829  0.28846  1.0000
  H   H339      1.0  0.07537  0.70813  0.16686  1.0000
  H   H340      1.0  0.03440  0.55897  0.62113  1.0000
  H   H341      1.0  0.06672  0.54523  0.65903  1.0000
  C   C202      1.0  0.07659  0.59211  0.67188  1.0000
  H   H342      1.0  0.06803  0.56362  0.20373  1.0000
  H   H343      1.0  0.09786  0.70501  0.16774  1.0000
  C   C203      1.0  0.08732  0.54074  0.62036  1.0000
  H   H344      1.0  0.08714  0.68715  0.01626  1.0000
  H   H345      1.0  0.06093  0.64319  0.27003  1.0000
  H   H346      1.0  0.08227  0.57152  0.58407  1.0000
  C   C204      1.0  0.08019  0.57416  0.65585  1.0000
  C   C205      1.0  0.06353  0.52070  0.48323  1.0000
  H   H347      1.0  0.04643  0.74272  0.07452  1.0000
  C   C206      1.0  0.08153  0.74547  0.09732  1.0000
  H   H348      1.0  0.03736  0.56408  0.20901  1.0000
  C   C207      1.0  0.04455  0.55521  0.18896  1.0000
  H   H349      1.0  0.07316  0.62514  0.34189  1.0000
  H   H350      1.0  0.02298  0.73301  0.28679  1.0000
  H   H351      1.0  0.12687  0.74382  0.71275  1.0000
  H   H352      1.0  0.02238  0.57805  0.63856  1.0000
  H   H353      1.0  0.08801  0.59413  0.68624  1.0000
  C   C208      1.0  0.06527  0.51439  0.54812  1.0000
  H   H354      1.0  0.01548  0.70530  0.73179  1.0000
  C   C209      1.0  0.07629  0.68123  0.32913  1.0000
  H   H355      1.0  0.10166  0.63152  0.31042  1.0000
  H   H356      1.0  0.03958  0.53498  0.46587  1.0000
  C   C210      1.0  0.05515  0.53562  0.23978  1.0000
  H   H357      1.0  0.08109  0.53695  0.21600  1.0000
  H   H358      1.0  0.08578  0.50697  0.50947  1.0000
  C   C211      1.0  0.12278  0.74543  0.68424  1.0000
  C   C212      1.0  0.04355  0.73018  0.08286  1.0000
  H   H359      1.0  0.13036  0.71840  0.66883  1.0000
  H   H360      1.0  0.10131  0.71309  0.67178  1.0000
  C   C213      1.0  0.06050  0.56261  0.17958  1.0000
  H   H361      1.0  0.02087  0.54845  0.25291  1.0000
  H   H362      1.0  0.02479  0.53043  0.17981  1.0000
  S   S75       1.0  0.04493  0.51199  0.75878  1.0000
  Fe  Fe40      1.0  0.04550  0.50730  0.32234  1.0000
  C   C214      1.0  0.00197  0.74587  0.81841  1.0000
  C   C215      1.0  0.00798  0.71843  0.73309  1.0000
  H   H363      1.0  0.00324  0.53001  0.48095  1.0000
  H   H364      1.0  0.01572  0.74548  0.82327  1.0000
  H   H365      1.0  0.07117  0.74753  0.11776  1.0000
  H   H366      1.0  0.14727  0.72991  0.67068  1.0000
  H   H367      1.0  0.07420  0.73690  0.65501  1.0000
  H   H368      1.0  0.04066  0.72329  0.05897  1.0000
  N   N13       1.0  0.10376  0.74712  0.68205  1.0000
  H   H369      1.0  0.02111  0.72213  0.78116  1.0000
  H   H370      1.0  0.01440  0.72614  0.71416  1.0000
  H   H371      1.0  0.13329  0.73365  0.63362  1.0000
  C   C216      1.0  0.07281  0.51351  0.51329  1.0000
  H   H372      1.0  0.00538  0.53802  0.23412  1.0000
  H   H373      1.0  0.00942  0.51591  0.54284  1.0000
  H   H374      1.0  0.06652  0.50364  0.21278  1.0000
  H   H375      1.0  0.00280  0.65714  0.81506  1.0000
  H   H376      1.0  0.09393  0.74358  0.11096  1.0000
  H   H377      1.0  0.00150  0.71525  0.78821  1.0000
  H   H378      1.0  0.00169  0.74091  0.29960  1.0000
  Fe  Fe41      1.0  0.17752  0.92566  0.64062  1.0000
  S   S76       1.0  0.14912  0.93165  0.64095  1.0000
  S   S77       1.0  0.19323  0.92112  0.58931  1.0000
  Fe  Fe42      1.0  0.17930  0.92763  0.72258  1.0000
  S   S78       1.0  0.15083  0.93392  0.72844  1.0000
  H   H379      1.0  0.10869  0.83052  0.36277  1.0000
  Fe  Fe43      1.0  0.15022  0.91328  0.68801  1.0000
  S   S79       1.0  0.13907  0.88876  0.69344  1.0000
  Fe  Fe44      1.0  0.15256  0.95153  0.68082  1.0000
  S   S80       1.0  0.14080  0.97926  0.67182  1.0000
  S   S81       1.0  0.17881  0.90610  0.68521  1.0000
  S   S82       1.0  0.18089  0.94639  0.67769  1.0000
  Fe  Fe45      1.0  0.03209  0.81915  0.63731  1.0000
  H   H380      1.0  0.13156  0.87086  0.54800  1.0000
  H   H381      1.0  0.00693  0.78110  0.74246  1.0000
  Fe  Fe46      1.0  0.06236  0.83472  0.66231  1.0000
  S   S83       1.0  0.07815  0.80884  0.67263  1.0000
  S   S84       1.0  0.07032  0.86083  0.66710  1.0000
  Fe  Fe47      1.0  0.06832  0.80184  0.62001  1.0000
  C   C217      1.0  0.13996  0.86307  0.60142  1.0000
  C   C218      1.0  0.21661  0.97415  0.77138  1.0000
  S   S85       1.0  0.05386  0.82797  0.60779  1.0000
  S   S86       1.0  0.03927  0.82776  0.69106  1.0000
  Fe  Fe48      1.0  0.16273  0.92510  0.39244  1.0000
  S   S87       1.0  0.14394  0.93173  0.34822  1.0000
  S   S88       1.0  0.15091  0.93128  0.44724  1.0000
  Fe  Fe49      1.0  0.19253  0.91470  0.33908  1.0000
  S   S89       1.0  0.17543  0.92029  0.29165  1.0000
  H   H382      1.0  0.10902  0.85525  0.44608  1.0000
  Fe  Fe50      1.0  0.16407  0.94421  0.32138  1.0000
  S   S90       1.0  0.15954  0.97130  0.29771  1.0000
  Fe  Fe51      1.0  0.15699  0.90705  0.32413  1.0000
  S   S91       1.0  0.14433  0.88553  0.30309  1.0000
  S   S92       1.0  0.18180  0.93896  0.36731  1.0000
  S   S93       1.0  0.17516  0.89997  0.36991  1.0000
  Fe  Fe52      1.0  0.05724  0.79886  0.29814  1.0000
  S   S94       1.0  0.04287  0.82588  0.30398  1.0000
  Fe  Fe53      1.0  0.06825  0.79692  0.37614  1.0000
  S   S95       1.0  0.05419  0.82299  0.38797  1.0000
  S   S96       1.0  0.08357  0.77900  0.41579  1.0000
  Fe  Fe54      1.0  0.03306  0.81608  0.35593  1.0000
  H   H383      1.0  0.15021  0.99605  0.38705  1.0000
  Fe  Fe55      1.0  0.06562  0.83059  0.33514  1.0000
  S   S97       1.0  0.07663  0.85523  0.33952  1.0000
  S   S98       1.0  0.04648  0.78918  0.34870  1.0000
  S   S99       1.0  0.08062  0.80434  0.32476  1.0000
  C   C219      1.0  0.12542  0.87735  0.31389  1.0000
  C   C220      1.0  0.12347  0.86169  0.29951  1.0000
  C   C221      1.0  0.10874  0.85473  0.30683  1.0000
  C   C222      1.0  0.09551  0.86346  0.32836  1.0000
  C   C223      1.0  0.09742  0.87916  0.34258  1.0000
  C   C224      1.0  0.11227  0.88597  0.33576  1.0000
  H   H384      1.0  0.13344  0.85490  0.28238  1.0000
  H   H385      1.0  0.10755  0.84274  0.29537  1.0000
  H   H386      1.0  0.08732  0.88613  0.35913  1.0000
  H   H387      1.0  0.11341  0.89806  0.34687  1.0000
  C   C225      1.0  0.08530  0.78407  0.53804  1.0000
  C   C226      1.0  0.07501  0.79696  0.51809  1.0000
  C   C227      1.0  0.07422  0.79574  0.48028  1.0000
  C   C228      1.0  0.08373  0.78166  0.46270  1.0000
  C   C229      1.0  0.09411  0.76904  0.48281  1.0000
  H   H388      1.0  0.15351  0.88853  0.61915  1.0000
  H   H389      1.0  0.06787  0.80786  0.53179  1.0000
  H   H390      1.0  0.06627  0.80556  0.46480  1.0000
  C   C230      1.0  0.15997  0.88982  0.59283  1.0000
  H   H391      1.0  0.10232  0.85650  0.40092  1.0000
  C   C231      1.0  0.18231  0.92597  0.54877  1.0000
  C   C232      1.0  0.19012  0.92024  0.51597  1.0000
  C   C233      1.0  0.18085  0.92242  0.48397  1.0000
  C   C234      1.0  0.16375  0.93025  0.48496  1.0000
  C   C235      1.0  0.15624  0.93669  0.51736  1.0000
  C   C236      1.0  0.16554  0.93470  0.54905  1.0000
  H   H392      1.0  0.20317  0.91358  0.51551  1.0000
  H   H393      1.0  0.18673  0.91747  0.45892  1.0000
  H   H394      1.0  0.14306  0.94292  0.51813  1.0000
  H   H395      1.0  0.15961  0.93976  0.57373  1.0000
  C   C237      1.0  0.11970  0.88143  0.68626  1.0000
  C   C238      1.0  0.11961  0.86387  0.68963  1.0000
  C   C239      1.0  0.10478  0.85729  0.68345  1.0000
  C   C240      1.0  0.08968  0.86822  0.67422  1.0000
  C   C241      1.0  0.08978  0.88579  0.67096  1.0000
  C   C242      1.0  0.10465  0.89235  0.67676  1.0000
  H   H396      1.0  0.13113  0.85524  0.69687  1.0000
  H   H397      1.0  0.10497  0.84379  0.68621  1.0000
  H   H398      1.0  0.07820  0.89441  0.66398  1.0000
  H   H399      1.0  0.10439  0.90587  0.67411  1.0000
  C   C243      1.0  0.16767  0.98803  0.31757  1.0000
  C   C244      1.0  0.17975  0.98475  0.34455  1.0000
  H   H400      1.0  0.21897  0.97753  0.21681  1.0000
  H   H401      1.0  0.04465  0.78955  0.55924  1.0000
  H   H402      1.0  0.05866  0.75952  0.80460  1.0000
  C   C245      1.0  0.20526  0.00165  0.65956  1.0000
  H   H403      1.0  0.18438  0.97191  0.35354  1.0000
  H   H404      1.0  0.01972  0.81625  0.54220  1.0000
  H   H405      1.0  0.12939  0.00078  0.40480  1.0000
  H   H406      1.0  0.17304  0.97965  0.41842  1.0000
  H   H407      1.0  0.04465  0.77458  0.44131  1.0000
  C   C246      1.0  0.00690  0.82141  0.48068  1.0000
  C   C247      1.0  0.17875  0.97336  0.58398  1.0000
  C   C248      1.0  0.15144  0.99421  0.69111  1.0000
  C   C249      1.0  0.16335  0.98927  0.71802  1.0000
  H   H408      1.0  0.16828  0.96903  0.57010  1.0000
  H   H409      1.0  0.12597  0.90061  0.53685  1.0000
  C   C250      1.0  0.21885  0.98109  0.24563  1.0000
  H   H410      1.0  0.16572  0.97629  0.72815  1.0000
  H   H411      1.0  0.23716  0.95092  0.22814  1.0000
  H   H412      1.0  0.17080  0.99769  0.55916  1.0000
  H   H413      1.0  0.21191  0.94449  0.21701  1.0000
  H   H414      1.0  0.21597  0.90911  0.25981  1.0000
  H   H415      1.0  0.16244  0.90304  0.59216  1.0000
  H   H416      1.0  0.01475  0.80401  0.21653  1.0000
  H   H417      1.0  0.21561  0.93124  0.83238  1.0000
  C   C251      1.0  0.05040  0.75460  0.71664  1.0000
  H   H418      1.0  0.01003  0.84694  0.46469  1.0000
  C   C252      1.0  0.02715  0.79649  0.46131  1.0000
  H   H419      1.0  0.11128  0.98868  0.44055  1.0000
  H   H420      1.0  0.15289  0.86017  0.55060  1.0000
  N   N14       1.0  0.16202  0.89072  0.80732  1.0000
  C   C253      1.0  0.14669  0.89199  0.78390  1.0000
  C   C254      1.0  0.17739  0.88796  0.78246  1.0000
  C   C255      1.0  0.16078  0.90755  0.82563  1.0000
  C   C256      1.0  0.16200  0.87641  0.83446  1.0000
  C   C257      1.0  0.12917  0.89659  0.80286  1.0000
  C   C258      1.0  0.17982  0.87187  0.75943  1.0000
  C   C259      1.0  0.17505  0.90914  0.85158  1.0000
  C   C260      1.0  0.17924  0.86832  0.85104  1.0000
  H   H421      1.0  0.14698  0.90157  0.76183  1.0000
  H   H422      1.0  0.14667  0.87974  0.77034  1.0000
  H   H423      1.0  0.18935  0.88764  0.79685  1.0000
  H   H424      1.0  0.17680  0.89896  0.76340  1.0000
  H   H425      1.0  0.16012  0.91804  0.80514  1.0000
  H   H426      1.0  0.14895  0.91059  0.84222  1.0000
  H   H427      1.0  0.15296  0.88068  0.85707  1.0000
  H   H428      1.0  0.15721  0.86577  0.82186  1.0000
  H   H429      1.0  0.12799  0.88848  0.82698  1.0000
  H   H430      1.0  0.12615  0.91023  0.80992  1.0000
  H   H431      1.0  0.11929  0.89460  0.78377  1.0000
  H   H432      1.0  0.17858  0.86033  0.77545  1.0000
  H   H433      1.0  0.17076  0.87350  0.73693  1.0000
  H   H434      1.0  0.00829  0.78010  0.50796  1.0000
  H   H435      1.0  0.18782  0.90643  0.83876  1.0000
  H   H436      1.0  0.17455  0.90109  0.87611  1.0000
  H   H437      1.0  0.17316  0.92251  0.86063  1.0000
  H   H438      1.0  0.17718  0.86532  0.87997  1.0000
  H   H439      1.0  0.18904  0.87631  0.84998  1.0000
  H   H440      1.0  0.18441  0.85592  0.83848  1.0000
  C   C261      1.0  0.09322  0.82932  0.42721  1.0000
  C   C262      1.0  0.08495  0.83756  0.46202  1.0000
  H   H441      1.0  0.09135  0.81599  0.42771  1.0000
  H   H442      1.0  0.08533  0.83537  0.40449  1.0000
  H   H443      1.0  0.08244  0.85164  0.45958  1.0000
  H   H444      1.0  0.07240  0.83388  0.46650  1.0000
  H   H445      1.0  0.09263  0.83342  0.48609  1.0000
  H   H446      1.0  0.12083  0.80149  0.35031  1.0000
  H   H447      1.0  0.11227  0.80735  0.49179  1.0000
  C   C263      1.0  0.10041  0.77094  0.72921  1.0000
  H   H448      1.0  0.02018  0.78174  0.21007  1.0000
  H   H449      1.0  0.01935  0.79627  0.43700  1.0000
  H   H450      1.0  0.11420  0.77051  0.73191  1.0000
  C   C264      1.0  0.16477  0.97526  0.43957  1.0000
  C   C265      1.0  0.13716  0.97529  0.38473  1.0000
  C   C266      1.0  0.17198  0.00123  0.73243  1.0000
  H   H451      1.0  0.01201  0.78512  0.33364  1.0000
  C   C267      1.0  0.17500  0.97230  0.47456  1.0000
  H   H452      1.0  0.03108  0.77778  0.53829  1.0000
  H   H453      1.0  0.23565  0.91015  0.20740  1.0000
  H   H454      1.0  0.02794  0.83540  0.48795  1.0000
  H   H455      1.0  0.23997  0.93104  0.09635  1.0000
  H   H456      1.0  0.13620  0.96560  0.45707  1.0000
  H   H457      1.0  0.20836  0.96661  0.82560  1.0000
  H   H458      1.0  0.16315  0.96249  0.43083  1.0000
  H   H459      1.0  0.23426  0.98000  0.30804  1.0000
  C   C268      1.0  0.24027  0.91046  0.23443  1.0000
  S   S100      1.0  0.00626  0.81826  0.37950  1.0000
  H   H460      1.0  0.01641  0.79079  0.27525  1.0000
  H   H461      1.0  0.17939  0.98391  0.48292  1.0000
  H   H462      1.0  0.13179  0.97961  0.35806  1.0000
  C   C269      1.0  0.22475  0.97157  0.30778  1.0000
  C   C270      1.0  0.24087  0.92883  0.80933  1.0000
  H   H463      1.0  0.23910  0.96692  0.81889  1.0000
  H   H464      1.0  0.21968  0.94957  0.34044  1.0000
  H   H465      1.0  0.22381  0.96103  0.76770  1.0000
  H   H466      1.0  0.18650  0.96242  0.46969  1.0000
  H   H467      1.0  0.16782  0.96746  0.49699  1.0000
  S   S101      1.0  0.05515  0.78461  0.74748  1.0000
  C   C271      1.0  0.20278  0.97231  0.80010  1.0000
  H   H468      1.0  0.19725  0.96221  0.28726  1.0000
  C   C272      1.0  0.22563  0.92395  0.74407  1.0000
  H   H469      1.0  0.19184  0.94406  0.23827  1.0000
  H   H470      1.0  0.09555  0.76361  0.75147  1.0000
  C   C273      1.0  0.23842  0.95427  0.25671  1.0000
  C   C274      1.0  0.05225  0.75420  0.21577  1.0000
  C   C275      1.0  0.22328  0.92913  0.80802  1.0000
  H   H471      1.0  0.21988  0.92201  0.71882  1.0000
  C   C276      1.0  0.13606  0.97883  0.46557  1.0000
  C   C277      1.0  0.00987  0.79194  0.21960  1.0000
  H   H472      1.0  0.02529  0.76129  0.28098  1.0000
  H   H473      1.0  0.16280  0.99603  0.60395  1.0000
  C   C278      1.0  0.01412  0.75877  0.26626  1.0000
  C   C279      1.0  0.05371  0.76277  0.74785  1.0000
  H   H474      1.0  0.24630  0.95861  0.73123  1.0000
  C   C280      1.0  0.24323  0.92326  0.74556  1.0000
  H   H475      1.0  0.01874  0.75764  0.23787  1.0000
  H   H476      1.0  0.07256  0.75907  0.64126  1.0000
  H   H477      1.0  0.14038  0.97756  0.49387  1.0000
  C   C281      1.0  0.00272  0.79335  0.50033  1.0000
  C   C282      1.0  0.22967  0.95734  0.33643  1.0000
  H   H478      1.0  0.19569  0.96364  0.21948  1.0000
  H   H479      1.0  0.19815  0.00135  0.22919  1.0000
  S   S102      1.0  0.00562  0.82479  0.61369  1.0000
  C   C283      1.0  0.18610  0.99811  0.35983  1.0000
  H   H480      1.0  0.04709  0.76200  0.19305  1.0000
  N   N15       1.0  0.14785  0.98717  0.44210  1.0000
  S   S103      1.0  0.19355  0.92698  0.77488  1.0000
  H   H481      1.0  0.04710  0.77789  0.48771  1.0000
  H   H482      1.0  0.10547  0.80073  0.38506  1.0000
  H   H483      1.0  0.18654  0.88233  0.57492  1.0000
  C   C284      1.0  0.09492  0.77026  0.52015  1.0000
  Fe  Fe56      1.0  0.05458  0.80111  0.69643  1.0000
  H   H484      1.0  0.03848  0.81013  0.51613  1.0000
  C   C285      1.0  0.02658  0.80591  0.52484  1.0000
  H   H485      1.0  0.00689  0.75279  0.72781  1.0000
  S   S104      1.0  0.05473  0.78446  0.24681  1.0000
  H   H486      1.0  0.17674  0.86455  0.58879  1.0000
  H   H487      1.0  0.19537  0.99532  0.38085  1.0000
  S   S105      1.0  0.08698  0.78448  0.58517  1.0000
  C   C286      1.0  0.15946  0.88804  0.52753  1.0000
  N   N16       1.0  0.14905  0.88720  0.56170  1.0000
  C   C287      1.0  0.00508  0.77448  0.33738  1.0000
  C   C288      1.0  0.17745  0.87792  0.59429  1.0000
  H   H488      1.0  0.23482  0.98872  0.72348  1.0000
  H   H489      1.0  0.02937  0.76884  0.47230  1.0000
  H   H490      1.0  0.14152  0.90026  0.48642  1.0000
  H   H491      1.0  0.03668  0.80443  0.45380  1.0000
  H   H492      1.0  0.11389  0.89390  0.59381  1.0000
  H   H493      1.0  0.11015  0.98056  0.48532  1.0000
  H   H494      1.0  0.18277  0.87837  0.62152  1.0000
  H   H495      1.0  0.11271  0.79792  0.44804  1.0000
  C   C289      1.0  0.11938  0.80524  0.46577  1.0000
  C   C290      1.0  0.14334  0.87026  0.56360  1.0000
  N   N17       1.0  0.11150  0.83075  0.42047  1.0000
  C   C291      1.0  0.11776  0.80456  0.37900  1.0000
  H   H496      1.0  0.13157  0.79678  0.47244  1.0000
  C   C292      1.0  0.11214  0.84950  0.41921  1.0000
  C   C293      1.0  0.11711  0.82368  0.38392  1.0000
  C   C294      1.0  0.12311  0.82220  0.44957  1.0000
  H   H497      1.0  0.12260  0.83083  0.47284  1.0000
  H   H498      1.0  0.12797  0.79678  0.39502  1.0000
  S   S106      1.0  0.04601  0.79230  0.64450  1.0000
  H   H499      1.0  0.13098  0.87207  0.61773  1.0000
  H   H500      1.0  0.13427  0.85156  0.59869  1.0000
  H   H501      1.0  0.15180  0.85912  0.61667  1.0000
  H   H502      1.0  0.13854  0.91402  0.55603  1.0000
  C   C295      1.0  0.20236  0.99389  0.25398  1.0000
  S   S107      1.0  0.22148  0.90929  0.33764  1.0000
  C   C296      1.0  0.20177  0.95191  0.23402  1.0000
  H   H503      1.0  0.11289  0.91618  0.59016  1.0000
  C   C297      1.0  0.12922  0.85431  0.40745  1.0000
  H   H504      1.0  0.13013  0.82560  0.37675  1.0000
  H   H505      1.0  0.13652  0.81984  0.43959  1.0000
  H   H506      1.0  0.19397  0.98437  0.80571  1.0000
  C   C298      1.0  0.13408  0.90175  0.56016  1.0000
  H   H507      1.0  0.12825  0.90421  0.61883  1.0000
  H   H508      1.0  0.14006  0.84692  0.42230  1.0000
  H   H509      1.0  0.13152  0.85291  0.37799  1.0000
  C   C299      1.0  0.12183  0.90384  0.59293  1.0000
  H   H510      1.0  0.12876  0.86799  0.41278  1.0000
  H   H511      1.0  0.21221  0.94327  0.28501  1.0000
  C   C300      1.0  0.15005  0.88790  0.49182  1.0000
  H   H512      1.0  0.08179  0.76705  0.69202  1.0000
  H   H513      1.0  0.23833  0.91119  0.11878  1.0000
  H   H514      1.0  0.02346  0.79169  0.57510  1.0000
  H   H515      1.0  0.24043  0.94201  0.27170  1.0000
  H   H516      1.0  0.15948  0.88617  0.46917  1.0000
  H   H517      1.0  0.04823  0.76173  0.69163  1.0000
  N   N18       1.0  0.01608  0.80398  0.49252  1.0000
  H   H518      1.0  0.16519  0.89962  0.52697  1.0000
  H   H519      1.0  0.09409  0.78440  0.73279  1.0000
  H   H520      1.0  0.19273  0.86973  0.74690  1.0000
  N   N19       1.0  0.22835  0.98616  0.77995  1.0000
  N   N20       1.0  0.18836  0.00134  0.60062  1.0000
  C   C301      1.0  0.23497  0.90996  0.29926  1.0000
  H   H521      1.0  0.19915  0.97990  0.63495  1.0000
  H   H522      1.0  0.12772  0.96901  0.39916  1.0000
  H   H523      1.0  0.21281  0.97961  0.31771  1.0000
  H   H524      1.0  0.17036  0.87719  0.52629  1.0000
  H   H525      1.0  0.00659  0.77730  0.78977  1.0000
  H   H526      1.0  0.25096  0.92076  0.72132  1.0000
  C   C302      1.0  0.14104  0.99075  0.40468  1.0000
  H   H527      1.0  0.10157  0.75820  0.46941  1.0000
  H   H528      1.0  0.14284  0.87741  0.49103  1.0000
  C   C303      1.0  0.21561  0.92668  0.77539  1.0000
  C   C304      1.0  0.20831  0.95578  0.27101  1.0000
  H   H529      1.0  0.20649  0.99518  0.68637  1.0000
  H   H530      1.0  0.23110  0.96320  0.36271  1.0000
  C   C305      1.0  0.25095  0.92566  0.77811  1.0000
  H   H531      1.0  0.00425  0.80117  0.67398  1.0000
  C   C306      1.0  0.01816  0.83417  0.46813  1.0000
  C   C307      1.0  0.05730  0.76199  0.24619  1.0000
  H   H532      1.0  0.02416  0.83090  0.44141  1.0000
  H   H533      1.0  0.19056  0.96881  0.56821  1.0000
  C   C308      1.0  0.22908  0.90988  0.26410  1.0000
  H   H534      1.0  0.19165  0.98765  0.26184  1.0000
  H   H535      1.0  0.07989  0.75760  0.08153  1.0000
  H   H536      1.0  0.09935  0.77432  0.67145  1.0000
  H   H537      1.0  0.19881  0.99880  0.54648  1.0000
  H   H538      1.0  0.17950  0.96708  0.61093  1.0000
  C   C309      1.0  0.03746  0.77839  0.46669  1.0000
  N   N21       1.0  0.22255  0.96571  0.27027  1.0000
  H   H539      1.0  0.22682  0.98543  0.83816  1.0000
  H   H540      1.0  0.19490  0.96349  0.78994  1.0000
  C   C310      1.0  0.19309  0.99353  0.63720  1.0000
  H   H541      1.0  0.06803  0.75756  0.29885  1.0000
  H   H542      1.0  0.14884  0.96583  0.37928  1.0000
  C   C311      1.0  0.17451  0.99291  0.58669  1.0000
  C   C312      1.0  0.03146  0.79019  0.55015  1.0000
  C   C313      1.0  0.11735  0.98798  0.46717  1.0000
  H   H543      1.0  0.21061  0.98492  0.57849  1.0000
  C   C314      1.0  0.24735  0.91889  0.10705  1.0000
  H   H544      1.0  0.21015  0.97782  0.74536  1.0000
  H   H545      1.0  0.18148  0.99368  0.65412  1.0000
  H   H546      1.0  0.22916  0.98858  0.24678  1.0000
  H   H547      1.0  0.11584  0.00086  0.47848  1.0000
  C   C315      1.0  0.20333  0.99810  0.57470  1.0000
  C   C316      1.0  0.24128  0.98514  0.74953  1.0000
  C   C317      1.0  0.09587  0.76511  0.69194  1.0000
  H   H548      1.0  0.21817  0.99966  0.64735  1.0000
  H   H549      1.0  0.24192  0.94890  0.33001  1.0000
  C   C318      1.0  0.23615  0.98107  0.81608  1.0000
  C   C319      1.0  0.00507  0.78952  0.25957  1.0000
  H   H550      1.0  0.10300  0.76035  0.53529  1.0000
  H   H551      1.0  0.18087  0.99740  0.75369  1.0000
  H   H552      1.0  0.01418  0.76224  0.33915  1.0000
  C   C320      1.0  0.00785  0.75449  0.75709  1.0000
  H   H553      1.0  0.24670  0.93061  0.83456  1.0000
  H   H554      1.0  0.25038  0.91167  0.05214  1.0000
  H   H555      1.0  0.10335  0.75419  0.62550  1.0000
  H   H556      1.0  0.12681  0.75730  0.67406  1.0000
  H   H557      1.0  0.24973  0.99443  0.75217  1.0000
  C   C321      1.0  0.05618  0.75330  0.78027  1.0000
  C   C322      1.0  0.00170  0.77359  0.76403  1.0000
  H   H558      1.0  0.20423  0.00272  0.27553  1.0000
  H   H559      1.0  0.15296  0.00189  0.48750  1.0000
  Fe  Fe57      1.0  0.48138  0.06496  0.30893  1.0000
  S   S108      1.0  0.48496  0.05628  0.36646  1.0000
  S   S109      1.0  0.46102  0.05638  0.27521  1.0000
  C   C323      1.0  0.49388  0.08188  0.53555  1.0000
  H   H560      1.0  0.28409  0.03486  0.82145  1.0000
  H   H561      1.0  0.38886  0.01092  0.79083  1.0000
  C   C324      1.0  0.28518  0.02789  0.32011  1.0000
  H   H562      1.0  0.47146  0.03785  0.43083  1.0000
  Fe  Fe58      1.0  0.49475  0.08007  0.37640  1.0000
  S   S110      1.0  0.48372  0.09128  0.42957  1.0000
  C   C325      1.0  0.40498  0.00520  0.73184  1.0000
  S   S111      1.0  0.48913  0.09005  0.31935  1.0000
  H   H563      1.0  0.39386  0.01380  0.31826  1.0000
  H   H564      1.0  0.49679  0.03327  0.58077  1.0000
  C   C326      1.0  0.27606  0.02875  0.80402  1.0000
  C   C327      1.0  0.29019  0.03584  0.73042  1.0000
  C   C328      1.0  0.28660  0.01515  0.77968  1.0000
  H   H565      1.0  0.46444  0.01358  0.57026  1.0000
  C   C329      1.0  0.30646  0.00671  0.72960  1.0000
  H   H566      1.0  0.31775  0.01801  0.79539  1.0000
  Fe  Fe59      1.0  0.48031  0.07674  0.68777  1.0000
  S   S112      1.0  0.45203  0.08796  0.69202  1.0000
  N   N22       1.0  0.41735  0.00702  0.28746  1.0000
  S   S113      1.0  0.48862  0.06257  0.63675  1.0000
  Fe  Fe60      1.0  0.36498  0.07482  0.21503  1.0000
  S   S114      1.0  0.37144  0.05165  0.18119  1.0000
  S   S115      1.0  0.38378  0.08892  0.24094  1.0000
  Fe  Fe61      1.0  0.32643  0.07373  0.21691  1.0000
  S   S116      1.0  0.33037  0.05034  0.18299  1.0000
  S   S117      1.0  0.30322  0.08643  0.25057  1.0000
  Fe  Fe62      1.0  0.35310  0.04109  0.21700  1.0000
  S   S118      1.0  0.36059  0.01486  0.24075  1.0000
  Fe  Fe63      1.0  0.34841  0.06273  0.14875  1.0000
  S   S119      1.0  0.35123  0.05491  0.08981  1.0000
  S   S120      1.0  0.34812  0.06328  0.25317  1.0000
  S   S121      1.0  0.34303  0.08712  0.18025  1.0000
  Fe  Fe64      1.0  0.37281  0.07266  0.82317  1.0000
  S   S122      1.0  0.36834  0.05904  0.87517  1.0000
  S   S123      1.0  0.40131  0.07261  0.81821  1.0000
  Fe  Fe65      1.0  0.33481  0.07640  0.80328  1.0000
  S   S124      1.0  0.32812  0.06296  0.85367  1.0000
  S   S125      1.0  0.31622  0.08423  0.75736  1.0000
  Fe  Fe66      1.0  0.34450  0.07823  0.88226  1.0000
  S   S126      1.0  0.33780  0.09156  0.93576  1.0000
  Fe  Fe67      1.0  0.35271  0.04507  0.84270  1.0000
  S   S127      1.0  0.35771  0.01670  0.84457  1.0000
  S   S128      1.0  0.34976  0.09326  0.83230  1.0000
  S   S129      1.0  0.35848  0.05718  0.79029  1.0000
  C   C330      1.0  0.34753  0.06564  0.04750  1.0000
  C   C331      1.0  0.34090  0.08305  0.04437  1.0000
  C   C332      1.0  0.33800  0.09081  0.00999  1.0000
  C   C333      1.0  0.34169  0.08128  0.97846  1.0000
  C   C334      1.0  0.34847  0.06392  0.98163  1.0000
  C   C335      1.0  0.35134  0.05617  0.01594  1.0000
  H   H567      1.0  0.33787  0.09049  0.06837  1.0000
  H   H568      1.0  0.33272  0.10424  0.00782  1.0000
  H   H569      1.0  0.35132  0.05641  0.95767  1.0000
  H   H570      1.0  0.35644  0.04270  0.01803  1.0000
  H   H571      1.0  0.37910  0.07598  0.95142  1.0000
  H   H572      1.0  0.38915  0.10388  0.85470  1.0000
  H   H573      1.0  0.35113  0.10843  0.24901  1.0000
  C   C336      1.0  0.41497  0.10644  0.86300  1.0000
  H   H574      1.0  0.32515  0.02992  0.24131  1.0000
  H   H575      1.0  0.35048  0.01153  0.15892  1.0000
  C   C337      1.0  0.43802  0.08276  0.72648  1.0000
  C   C338      1.0  0.44404  0.07430  0.75828  1.0000
  C   C339      1.0  0.43257  0.07129  0.78590  1.0000
  C   C340      1.0  0.41496  0.07633  0.78180  1.0000
  C   C341      1.0  0.40889  0.08446  0.74972  1.0000
  C   C342      1.0  0.42039  0.08778  0.72234  1.0000
  H   H576      1.0  0.45755  0.07043  0.76195  1.0000
  H   H577      1.0  0.43741  0.06506  0.81067  1.0000
  H   H578      1.0  0.39538  0.08847  0.74624  1.0000
  H   H579      1.0  0.41560  0.09436  0.69790  1.0000
  H   H580      1.0  0.44316  0.16755  0.58280  1.0000
  H   H581      1.0  0.26303  0.07017  0.80895  1.0000
  H   H582      1.0  0.25244  0.06562  0.36717  1.0000
  H   H583      1.0  0.28995  0.05430  0.31891  1.0000
  H   H584      1.0  0.47956  0.12285  0.65059  1.0000
  C   C343      1.0  0.48623  0.08281  0.50159  1.0000
  C   C344      1.0  0.26069  0.07620  0.75219  1.0000
  H   H585      1.0  0.39130  0.00999  0.72629  1.0000
  H   H586      1.0  0.48711  0.07857  0.55934  1.0000
  H   H587      1.0  0.47352  0.08031  0.49945  1.0000
  C   C345      1.0  0.43956  0.06580  0.26639  1.0000
  C   C346      1.0  0.43019  0.05731  0.24380  1.0000
  C   C347      1.0  0.41308  0.06407  0.23623  1.0000
  C   C348      1.0  0.40516  0.07958  0.25078  1.0000
  C   C349      1.0  0.41455  0.08812  0.27325  1.0000
  C   C350      1.0  0.43161  0.08124  0.28121  1.0000
  H   H588      1.0  0.43626  0.04548  0.23184  1.0000
  H   H589      1.0  0.40611  0.05743  0.21861  1.0000
  H   H590      1.0  0.40861  0.10016  0.28452  1.0000
  H   H591      1.0  0.43865  0.08794  0.29855  1.0000
  C   C351      1.0  0.30251  0.12828  0.28643  1.0000
  H   H592      1.0  0.32194  0.12583  0.20786  1.0000
  H   H593      1.0  0.30658  0.03874  0.79076  1.0000
  C   C352      1.0  0.47662  0.01889  0.66384  1.0000
  C   C353      1.0  0.44009  0.10518  0.60056  1.0000
  H   H594      1.0  0.30033  0.02123  0.89678  1.0000
  C   C354      1.0  0.33377  0.10684  0.31637  1.0000
  H   H595      1.0  0.40827  0.04280  0.77027  1.0000
  C   C355      1.0  0.34794  0.01008  0.12989  1.0000
  H   H596      1.0  0.34994  0.12663  0.91680  1.0000
  C   C356      1.0  0.41332  0.03668  0.31647  1.0000
  H   H597      1.0  0.42100  0.09285  0.86528  1.0000
  H   H598      1.0  0.29964  0.11849  0.30599  1.0000
  H   H599      1.0  0.39658  0.02228  0.25814  1.0000
  H   H600      1.0  0.27820  0.02203  0.69059  1.0000
  H   H601      1.0  0.44988  0.01975  0.65668  1.0000
  C   C357      1.0  0.40583  0.03409  0.74918  1.0000
  H   H602      1.0  0.27699  0.09853  0.30262  1.0000
  S   S130      1.0  0.49599  0.05736  0.72378  1.0000
  H   H603      1.0  0.26961  0.04423  0.69352  1.0000
  H   H604      1.0  0.39572  0.00683  0.20754  1.0000
  C   C358      1.0  0.49474  0.08745  0.47050  1.0000
  H   H605      1.0  0.41153  0.03292  0.69047  1.0000
  C   C359      1.0  0.49625  0.03337  0.52216  1.0000
  C   C360      1.0  0.26906  0.08130  0.72157  1.0000
  H   H606      1.0  0.27755  0.00881  0.76542  1.0000
  C   C361      1.0  0.33881  0.00959  0.85445  1.0000
  H   H607      1.0  0.41810  0.10026  0.97670  1.0000
  H   H608      1.0  0.49128  0.05260  0.45907  1.0000
  H   H609      1.0  0.31478  0.02181  0.15551  1.0000
  C   C362      1.0  0.44952  0.14027  0.59210  1.0000
  C   C363      1.0  0.42549  0.02036  0.30462  1.0000
  H   H610      1.0  0.29203  0.01576  0.30858  1.0000
  H   H611      1.0  0.42849  0.03788  0.71738  1.0000
  C   C364      1.0  0.26937  0.07401  0.78500  1.0000
  H   H612      1.0  0.26796  0.02252  0.82258  1.0000
  H   H613      1.0  0.30122  0.00755  0.16940  1.0000
  H   H614      1.0  0.44709  0.12387  0.53480  1.0000
  H   H615      1.0  0.49701  0.13098  0.63185  1.0000
  H   H616      1.0  0.40984  0.05335  0.70947  1.0000
  C   C365      1.0  0.47653  0.00909  0.34719  1.0000
  H   H617      1.0  0.47053  0.03332  0.47785  1.0000
  H   H618      1.0  0.34857  0.13257  0.33137  1.0000
  H   H619      1.0  0.33010  0.10504  0.24913  1.0000
  C   C366      1.0  0.49202  0.00885  0.67432  1.0000
  H   H620      1.0  0.34261  0.15565  0.28146  1.0000
  C   C367      1.0  0.36411  0.01154  0.10783  1.0000
  C   C368      1.0  0.41455  0.03957  0.71458  1.0000
  H   H621      1.0  0.28772  0.02657  0.34946  1.0000
  C   C369      1.0  0.46032  0.11959  0.54414  1.0000
  H   H622      1.0  0.43635  0.13900  0.58580  1.0000
  C   C370      1.0  0.31191  0.00904  0.24611  1.0000
  H   H623      1.0  0.32778  0.03087  0.88718  1.0000
  C   C371      1.0  0.47887  0.03120  0.45357  1.0000
  C   C372      1.0  0.43936  0.02066  0.78712  1.0000
  C   C373      1.0  0.47992  0.12575  0.59094  1.0000
  C   C374      1.0  0.49150  0.01552  0.34631  1.0000
  H   H624      1.0  0.46734  0.09823  0.60350  1.0000
  H   H625      1.0  0.32986  0.02636  0.72688  1.0000
  H   H626      1.0  0.36204  0.11969  0.29982  1.0000
  H   H627      1.0  0.46862  0.12268  0.48849  1.0000
  H   H628      1.0  0.45035  0.15605  0.54317  1.0000
  H   H629      1.0  0.43277  0.01499  0.32878  1.0000
  N   N23       1.0  0.33511  0.12161  0.29100  1.0000
  N   N24       1.0  0.46189  0.12426  0.58308  1.0000
  C   C375      1.0  0.33779  0.11500  0.25319  1.0000
  C   C376      1.0  0.45248  0.15659  0.57242  1.0000
  C   C377      1.0  0.34999  0.12914  0.30239  1.0000
  H   H630      1.0  0.48860  0.11339  0.58609  1.0000
  H   H631      1.0  0.42319  0.11917  0.95781  1.0000
  C   C378      1.0  0.40928  0.01427  0.25271  1.0000
  C   C379      1.0  0.40224  0.01219  0.79558  1.0000
  H   H632      1.0  0.30297  0.12324  0.25884  1.0000
  H   H633      1.0  0.31751  0.13894  0.32396  1.0000
  H   H634      1.0  0.39484  0.08429  0.97604  1.0000
  H   H635      1.0  0.31898  0.14622  0.27941  1.0000
  H   H636      1.0  0.39185  0.12382  0.87111  1.0000
  H   H637      1.0  0.29164  0.13912  0.28780  1.0000
  H   H638      1.0  0.48162  0.01754  0.44688  1.0000
  H   H639      1.0  0.26745  0.03856  0.78837  1.0000
  H   H640      1.0  0.48559  0.11931  0.51936  1.0000
  C   C380      1.0  0.25880  0.05218  0.36339  1.0000
  C   C381      1.0  0.25734  0.04763  0.32363  1.0000
  N   N25       1.0  0.29890  0.02129  0.75354  1.0000
  H   H641      1.0  0.33874  0.02192  0.12333  1.0000
  H   H642      1.0  0.48678  0.04551  0.52148  1.0000
  C   C382      1.0  0.31226  0.02747  0.77464  1.0000
  C   C383      1.0  0.27143  0.09166  0.28284  1.0000
  S   S131      1.0  0.50052  0.09291  0.68259  1.0000
  H   H643      1.0  0.49266  0.02584  0.32784  1.0000
  H   H644      1.0  0.39173  0.03724  0.81789  1.0000
  H   H645      1.0  0.39593  0.02047  0.85038  1.0000
  N   N26       1.0  0.26644  0.03021  0.31312  1.0000
  C   C384      1.0  0.32682  0.03309  0.75247  1.0000
  H   H646      1.0  0.41704  0.02294  0.23960  1.0000
  C   C385      1.0  0.32581  0.01931  0.87500  1.0000
  C   C386      1.0  0.40095  0.02559  0.82517  1.0000
  C   C387      1.0  0.34243  0.00615  0.24865  1.0000
  H   H647      1.0  0.26187  0.05749  0.30673  1.0000
  H   H648      1.0  0.31277  0.01118  0.70524  1.0000
  H   H649      1.0  0.36417  0.14941  0.29375  1.0000
  H   H650      1.0  0.30808  0.03827  0.31013  1.0000
  H   H651      1.0  0.34697  0.08189  0.33466  1.0000
  H   H652      1.0  0.46527  0.15932  0.57710  1.0000
  H   H653      1.0  0.43915  0.09366  0.61717  1.0000
  H   H654      1.0  0.29296  0.04411  0.27574  1.0000
  H   H655      1.0  0.32382  0.04696  0.74639  1.0000
  H   H656      1.0  0.39751  0.12784  0.93168  1.0000
  H   H657      1.0  0.35696  0.08991  0.29624  1.0000
  C   C388      1.0  0.28629  0.07643  0.78708  1.0000
  C   C389      1.0  0.25409  0.09059  0.28632  1.0000
  H   H658      1.0  0.46284  0.10555  0.54120  1.0000
  H   H659      1.0  0.26261  0.08305  0.69615  1.0000
  H   H660      1.0  0.43822  0.10198  0.57228  1.0000
  H   H661      1.0  0.34386  0.12572  0.20109  1.0000
  H   H662      1.0  0.33175  0.14151  0.22868  1.0000
  H   H663      1.0  0.39124  0.11432  0.96593  1.0000
  H   H664      1.0  0.45751  0.11314  0.63571  1.0000
  C   C390      1.0  0.48318  0.13137  0.62920  1.0000
  H   H665      1.0  0.47673  0.14462  0.63424  1.0000
  C   C391      1.0  0.35018  0.09359  0.32192  1.0000
  C   C392      1.0  0.45755  0.11001  0.60673  1.0000
  H   H666      1.0  0.35887  0.09834  0.34029  1.0000
  H   H667      1.0  0.47173  0.13977  0.51610  1.0000
  H   H668      1.0  0.46616  0.01482  0.33017  1.0000
  H   H669      1.0  0.39184  0.03735  0.74549  1.0000
  C   C393      1.0  0.32640  0.01638  0.24527  1.0000
  H   H670      1.0  0.35776  0.14159  0.25308  1.0000
  H   H671      1.0  0.28166  0.06934  0.20624  1.0000
  C   C394      1.0  0.33345  0.12799  0.22168  1.0000
  H   H672      1.0  0.29923  0.03977  0.71020  1.0000
  H   H673      1.0  0.29969  0.01686  0.24099  1.0000
  C   C395      1.0  0.41753  0.10799  0.95139  1.0000
  C   C396      1.0  0.35348  0.14487  0.28108  1.0000
  H   H674      1.0  0.48458  0.13504  0.57256  1.0000
  H   H675      1.0  0.42954  0.11528  0.60970  1.0000
  H   H676      1.0  0.39358  0.07852  0.89411  1.0000
  H   H677      1.0  0.42224  0.11456  0.87749  1.0000
  C   C397      1.0  0.31893  0.13451  0.29564  1.0000
  H   H678      1.0  0.33862  0.03022  0.76831  1.0000
  H   H679      1.0  0.36750  0.09876  0.89867  1.0000
  H   H680      1.0  0.41210  0.08164  0.91454  1.0000
  C   C398      1.0  0.29473  0.08134  0.75640  1.0000
  H   H681      1.0  0.29276  0.07455  0.81248  1.0000
  C   C399      1.0  0.28157  0.08402  0.25401  1.0000
  C   C400      1.0  0.39266  0.07713  0.95199  1.0000
  C   C401      1.0  0.39814  0.08526  0.91665  1.0000
  C   C402      1.0  0.39616  0.10988  0.87483  1.0000
  C   C403      1.0  0.37289  0.10734  0.91640  1.0000
  H   H682      1.0  0.40605  0.03440  0.34125  1.0000
  C   C404      1.0  0.28595  0.08390  0.72374  1.0000
  H   H683      1.0  0.29229  0.08781  0.69988  1.0000
  N   N27       1.0  0.39198  0.10418  0.91242  1.0000
  H   H684      1.0  0.36892  0.10432  0.94435  1.0000
  H   H685      1.0  0.36864  0.13524  0.92318  1.0000
  H   H686      1.0  0.41582  0.10990  0.83395  1.0000
  C   C405      1.0  0.36346  0.12561  0.90824  1.0000
  H   H687      1.0  0.36343  0.12858  0.87892  1.0000
  H   H688      1.0  0.40004  0.06400  0.95498  1.0000
  H   H689      1.0  0.42587  0.10088  0.93067  1.0000
  H   H690      1.0  0.32924  0.11143  0.34364  1.0000
  H   H691      1.0  0.32417  0.09962  0.30693  1.0000
  C   C406      1.0  0.39888  0.11427  0.94046  1.0000
  H   H692      1.0  0.26427  0.03030  0.72794  1.0000
  H   H693      1.0  0.28596  0.04726  0.74682  1.0000
  C   C407      1.0  0.47225  0.12590  0.51583  1.0000
  C   C408      1.0  0.46166  0.01223  0.66598  1.0000
  C   C409      1.0  0.27411  0.07519  0.22870  1.0000
  H   H694      1.0  0.47629  0.03158  0.65319  1.0000
  H   H695      1.0  0.41321  0.02904  0.83148  1.0000
  H   H696      1.0  0.42091  0.04644  0.32305  1.0000
  C   C410      1.0  0.27473  0.03261  0.70964  1.0000
  C   C411      1.0  0.29428  0.04206  0.30518  1.0000
  H   H697      1.0  0.44936  0.14257  0.62157  1.0000
  N   N28       1.0  0.41101  0.01566  0.76048  1.0000
  C   C412      1.0  0.31031  0.01382  0.88061  1.0000
  C   C413      1.0  0.31100  0.00964  0.14899  1.0000
  H   H698      1.0  0.40451  0.04219  0.29495  1.0000
  H   H699      1.0  0.27212  0.05118  0.37159  1.0000
  H   H700      1.0  0.26913  0.03818  0.25757  1.0000
  H   H701      1.0  0.27175  0.01615  0.26327  1.0000
  H   H702      1.0  0.48875  0.02305  0.52524  1.0000
  H   H703      1.0  0.43494  0.02466  0.28594  1.0000
  C   C414      1.0  0.25671  0.07436  0.23184  1.0000
  H   H704      1.0  0.36088  0.01747  0.08097  1.0000
  C   C415      1.0  0.26408  0.02823  0.27342  1.0000
  H   H705      1.0  0.37133  0.01972  0.12247  1.0000
  C   C416      1.0  0.49523  0.03855  0.45704  1.0000
  H   H706      1.0  0.30482  0.01075  0.12245  1.0000
  H   H707      1.0  0.32684  0.00887  0.07918  1.0000
  H   H708      1.0  0.26341  0.01696  0.36367  1.0000
  H   H709      1.0  0.43371  0.03431  0.78785  1.0000
  C   C417      1.0  0.25929  0.01708  0.33524  1.0000
  H   H710      1.0  0.41187  0.00628  0.70584  1.0000
  C   C418      1.0  0.42998  0.01022  0.76292  1.0000
  H   H711      1.0  0.25221  0.04428  0.38167  1.0000
  H   H712      1.0  0.29342  0.00517  0.79804  1.0000
  H   H713      1.0  0.44028  0.01530  0.81499  1.0000
  H   H714      1.0  0.45241  0.02024  0.77605  1.0000
  H   H715      1.0  0.43622  0.00969  0.73580  1.0000
  Fe  Fe68      1.0  0.44342  0.93815  0.30974  1.0000
  S   S132      1.0  0.43634  0.94971  0.36346  1.0000
  S   S133      1.0  0.42222  0.94458  0.26869  1.0000
  Fe  Fe69      1.0  0.45936  0.96114  0.35718  1.0000
  S   S134      1.0  0.45571  0.98838  0.37214  1.0000
  S   S135      1.0  0.46574  0.95148  0.30156  1.0000
  Fe  Fe70      1.0  0.44118  0.92627  0.71226  1.0000
  S   S136      1.0  0.43847  0.94002  0.65837  1.0000
  S   S137      1.0  0.42137  0.91351  0.74101  1.0000
  Fe  Fe71      1.0  0.45225  0.95814  0.68509  1.0000
  S   S138      1.0  0.44413  0.98634  0.67699  1.0000
  S   S139      1.0  0.45319  0.94559  0.73970  1.0000
  Fe  Fe72      1.0  0.29474  0.92408  0.20237  1.0000
  S   S140      1.0  0.29048  0.94988  0.17564  1.0000
  S   S141      1.0  0.27090  0.91250  0.20139  1.0000
  Fe  Fe73      1.0  0.33206  0.92539  0.21687  1.0000
  S   S142      1.0  0.32996  0.95123  0.19137  1.0000
  S   S143      1.0  0.35704  0.91174  0.24085  1.0000
  Fe  Fe74      1.0  0.30504  0.95709  0.22123  1.0000
  S   S144      1.0  0.29561  0.98212  0.24750  1.0000
  Fe  Fe75      1.0  0.31562  0.94161  0.14755  1.0000
  S   S145      1.0  0.31876  0.95218  0.09076  1.0000
  S   S146      1.0  0.30785  0.93196  0.25023  1.0000
  S   S147      1.0  0.31917  0.91504  0.17082  1.0000
  Fe  Fe76      1.0  0.29594  0.96332  0.86103  1.0000
  S   S148      1.0  0.29998  0.95545  0.80393  1.0000
  S   S149      1.0  0.28892  0.99105  0.87284  1.0000
  Fe  Fe77      1.0  0.30958  0.92825  0.89057  1.0000
  S   S150      1.0  0.31547  0.91747  0.83469  1.0000
  S   S151      1.0  0.31656  0.91359  0.94306  1.0000
  Fe  Fe78      1.0  0.32548  0.94142  0.82127  1.0000
  S   S152      1.0  0.34631  0.94979  0.78610  1.0000
  Fe  Fe79      1.0  0.28951  0.93250  0.82122  1.0000
  S   S153      1.0  0.27319  0.92428  0.77819  1.0000
  S   S154      1.0  0.32177  0.95057  0.87823  1.0000
  S   S155      1.0  0.28302  0.94174  0.87768  1.0000
  H   H716      1.0  0.28457  0.89192  0.98655  1.0000
  C   C419      1.0  0.32091  0.98912  0.84493  1.0000
  H   H717      1.0  0.45620  0.96343  0.45819  1.0000
  S   S156      1.0  0.45934  0.91446  0.33429  1.0000
  C   C420      1.0  0.45505  0.96644  0.58211  1.0000
  H   H718      1.0  0.31901  0.97785  0.83183  1.0000
  H   H719      1.0  0.37976  0.96124  0.97502  1.0000
  H   H720      1.0  0.25798  0.89505  0.08207  1.0000
  H   H721      1.0  0.45121  0.00119  0.59332  1.0000
  N   N29       1.0  0.46433  0.97090  0.54851  1.0000
  H   H722      1.0  0.34758  0.91411  0.88753  1.0000
  H   H723      1.0  0.47708  0.91710  0.45983  1.0000
  H   H724      1.0  0.49702  0.97859  0.57465  1.0000
  C   C421      1.0  0.25211  0.91075  0.30432  1.0000
  C   C422      1.0  0.25800  0.90879  0.07687  1.0000
  C   C423      1.0  0.48244  0.96144  0.54969  1.0000
  C   C424      1.0  0.31342  0.99151  0.25137  1.0000
  H   H725      1.0  0.42631  0.98113  0.26897  1.0000
  C   C425      1.0  0.46357  0.98981  0.54350  1.0000
  C   C426      1.0  0.34392  0.98873  0.25572  1.0000
  C   C427      1.0  0.32938  0.98139  0.25702  1.0000
  H   H726      1.0  0.32366  0.98220  0.72764  1.0000
  H   H727      1.0  0.33057  0.96784  0.26167  1.0000
  C   C428      1.0  0.31862  0.94116  0.04994  1.0000
  C   C429      1.0  0.31385  0.95051  0.01814  1.0000
  C   C430      1.0  0.31327  0.94226  0.98521  1.0000
  C   C431      1.0  0.31777  0.92455  0.98361  1.0000
  C   C432      1.0  0.32304  0.91524  0.01520  1.0000
  C   C433      1.0  0.32333  0.92347  0.04829  1.0000
  H   H728      1.0  0.31031  0.96422  0.01903  1.0000
  H   H729      1.0  0.30923  0.94962  0.96113  1.0000
  H   H730      1.0  0.32684  0.90157  0.01407  1.0000
  H   H731      1.0  0.32745  0.91615  0.07237  1.0000
  C   C434      1.0  0.49231  0.99255  0.68868  1.0000
  H   H732      1.0  0.32184  0.98841  0.08660  1.0000
  S   S157      1.0  0.44202  0.91842  0.43943  1.0000
  H   H733      1.0  0.39012  0.96950  0.87476  1.0000
  H   H734      1.0  0.48276  0.94749  0.55181  1.0000
  C   C435      1.0  0.43563  0.97258  0.58229  1.0000
  C   C436      1.0  0.26320  0.91174  0.27467  1.0000
  H   H735      1.0  0.34614  0.98708  0.82291  1.0000
  H   H736      1.0  0.36655  0.95083  0.84454  1.0000
  H   H737      1.0  0.34631  0.96716  0.12648  1.0000
  H   H738      1.0  0.29461  0.88120  0.10430  1.0000
  C   C437      1.0  0.47730  0.98613  0.69185  1.0000
  C   C438      1.0  0.27784  0.90244  0.00351  1.0000
  H   H739      1.0  0.47749  0.97387  0.70453  1.0000
  H   H740      1.0  0.45984  0.97142  0.60665  1.0000
  C   C439      1.0  0.40058  0.92381  0.75366  1.0000
  C   C440      1.0  0.39500  0.94125  0.74790  1.0000
  C   C441      1.0  0.37835  0.94895  0.75807  1.0000
  C   C442      1.0  0.36712  0.93932  0.77410  1.0000
  C   C443      1.0  0.37272  0.92190  0.78012  1.0000
  C   C444      1.0  0.38940  0.91421  0.77003  1.0000
  H   H741      1.0  0.40348  0.94872  0.73528  1.0000
  H   H742      1.0  0.37411  0.96243  0.75327  1.0000
  H   H743      1.0  0.36416  0.91430  0.79199  1.0000
  H   H744      1.0  0.39359  0.90069  0.77443  1.0000
  H   H745      1.0  0.28086  0.91431  0.99121  1.0000
  C   C445      1.0  0.40587  0.93841  0.85562  1.0000
  S   S158      1.0  0.46643  0.91012  0.69684  1.0000
  H   H746      1.0  0.39807  0.91817  0.88717  1.0000
  S   S159      1.0  0.47819  0.94477  0.66783  1.0000
  C   C446      1.0  0.44935  0.91905  0.54746  1.0000
  C   C447      1.0  0.44186  0.91942  0.51343  1.0000
  H   H747      1.0  0.44160  0.91943  0.57176  1.0000
  H   H748      1.0  0.42832  0.92008  0.51177  1.0000
  C   C448      1.0  0.40412  0.93526  0.26189  1.0000
  C   C449      1.0  0.38881  0.94573  0.25154  1.0000
  C   C450      1.0  0.37431  0.93878  0.24475  1.0000
  C   C451      1.0  0.37505  0.92120  0.24757  1.0000
  C   C452      1.0  0.39046  0.91073  0.25716  1.0000
  C   C453      1.0  0.40488  0.91769  0.26449  1.0000
  H   H749      1.0  0.38813  0.95932  0.24879  1.0000
  H   H750      1.0  0.36258  0.94703  0.23737  1.0000
  H   H751      1.0  0.39126  0.89710  0.25866  1.0000
  H   H752      1.0  0.41672  0.90941  0.27107  1.0000
  N   N30       1.0  0.39184  0.91316  0.37113  1.0000
  C   C454      1.0  0.41081  0.91133  0.36633  1.0000
  C   C455      1.0  0.38289  0.92947  0.35339  1.0000
  C   C456      1.0  0.38651  0.91224  0.41021  1.0000
  C   C457      1.0  0.39101  0.94533  0.35648  1.0000
  C   C458      1.0  0.39174  0.92520  0.43570  1.0000
  H   H753      1.0  0.41567  0.92196  0.37823  1.0000
  H   H754      1.0  0.38195  0.92779  0.32391  1.0000
  H   H755      1.0  0.36955  0.93291  0.36358  1.0000
  H   H756      1.0  0.37247  0.91410  0.41283  1.0000
  H   H757      1.0  0.36223  0.91011  0.32767  1.0000
  H   H758      1.0  0.38215  0.95652  0.34549  1.0000
  H   H759      1.0  0.40278  0.94407  0.33975  1.0000
  H   H760      1.0  0.39373  0.94819  0.38442  1.0000
  H   H761      1.0  0.38219  0.93719  0.43591  1.0000
  H   H762      1.0  0.40443  0.92810  0.42970  1.0000
  H   H763      1.0  0.39274  0.91969  0.46347  1.0000
  H   H764      1.0  0.37161  0.96404  0.16485  1.0000
  H   H765      1.0  0.37169  0.91908  0.92587  1.0000
  H   H766      1.0  0.27633  0.91239  0.27902  1.0000
  H   H767      1.0  0.45734  0.95239  0.58663  1.0000
  C   C459      1.0  0.44667  0.99466  0.25954  1.0000
  H   H768      1.0  0.40848  0.99983  0.80778  1.0000
  H   H769      1.0  0.40400  0.97596  0.29978  1.0000
  H   H770      1.0  0.36491  0.94771  0.96818  1.0000
  H   H771      1.0  0.44284  0.97143  0.51368  1.0000
  C   C460      1.0  0.25507  0.96117  0.25867  1.0000
  H   H772      1.0  0.36276  0.97637  0.10763  1.0000
  C   C461      1.0  0.47684  0.91691  0.51809  1.0000
  C   C462      1.0  0.25735  0.91153  0.23954  1.0000
  H   H773      1.0  0.45514  0.95092  0.52103  1.0000
  H   H774      1.0  0.35632  0.98080  0.25873  1.0000
  H   H775      1.0  0.49045  0.91561  0.51970  1.0000
  H   H776      1.0  0.38714  0.99163  0.27977  1.0000
  C   C463      1.0  0.45178  0.91878  0.48161  1.0000
  C   C464      1.0  0.40694  0.98593  0.74004  1.0000
  C   C465      1.0  0.32608  0.99455  0.15121  1.0000
  C   C466      1.0  0.34425  0.98827  0.05510  1.0000
  H   H777      1.0  0.33083  0.99450  0.17903  1.0000
  H   H778      1.0  0.37562  0.97572  0.83962  1.0000
  H   H779      1.0  0.36541  0.88774  0.33413  1.0000
  C   C467      1.0  0.38559  0.94569  0.92736  1.0000
  H   H780      1.0  0.47441  0.99229  0.52627  1.0000
  H   H781      1.0  0.25843  0.96337  0.28669  1.0000
  C   C468      1.0  0.33637  0.99443  0.83970  1.0000
  H   H782      1.0  0.45405  0.98228  0.25047  1.0000
  H   H783      1.0  0.40515  0.98885  0.23351  1.0000
  H   H784      1.0  0.38646  0.92461  0.84747  1.0000
  H   H785      1.0  0.47385  0.99546  0.59625  1.0000
  C   C469      1.0  0.37275  0.95593  0.95400  1.0000
  H   H786      1.0  0.33066  0.99668  0.75687  1.0000
  C   C470      1.0  0.36228  0.97618  0.16494  1.0000
  N   N31       1.0  0.37805  0.94019  0.89382  1.0000
  H   H787      1.0  0.26366  0.97638  0.82424  1.0000
  H   H788      1.0  0.47651  0.95609  0.47659  1.0000
  H   H789      1.0  0.43334  0.99688  0.77313  1.0000
  H   H790      1.0  0.36433  0.96675  0.94072  1.0000
  H   H791      1.0  0.35383  0.92781  0.85317  1.0000
  H   H792      1.0  0.48725  0.97727  0.40929  1.0000
  H   H793      1.0  0.39541  0.95338  0.92123  1.0000
  C   C471      1.0  0.36859  0.95497  0.87204  1.0000
  C   C472      1.0  0.36574  0.92893  0.90599  1.0000
  C   C473      1.0  0.39514  0.98817  0.30364  1.0000
  C   C474      1.0  0.27364  0.94439  0.08165  1.0000
  H   H794      1.0  0.34724  0.97415  0.05676  1.0000
  H   H795      1.0  0.26560  0.95143  0.24779  1.0000
  H   H796      1.0  0.40082  0.94807  0.83479  1.0000
  H   H797      1.0  0.35369  0.97535  0.18831  1.0000
  C   C475      1.0  0.46693  0.91752  0.54990  1.0000
  H   H798      1.0  0.36925  0.98159  0.88418  1.0000
  H   H799      1.0  0.35453  0.93642  0.92029  1.0000
  Fe  Fe80      1.0  0.48126  0.92880  0.32956  1.0000
  H   H800      1.0  0.29812  0.89922  0.04114  1.0000
  H   H801      1.0  0.28158  0.91850  0.12463  1.0000
  H   H802      1.0  0.46770  0.97876  0.47409  1.0000
  H   H803      1.0  0.43058  0.97231  0.61035  1.0000
  C   C476      1.0  0.25276  0.98721  0.82457  1.0000
  S   S160      1.0  0.47716  0.91616  0.59186  1.0000
  H   H804      1.0  0.29939  0.91132  0.09716  1.0000
  H   H805      1.0  0.42941  0.96392  0.56658  1.0000
  H   H806      1.0  0.32071  0.98276  0.14905  1.0000
  C   C477      1.0  0.49342  0.96605  0.58001  1.0000
  H   H807      1.0  0.39249  0.93437  0.94242  1.0000
  H   H808      1.0  0.37304  0.99936  0.10463  1.0000
  H   H809      1.0  0.42038  0.97969  0.74319  1.0000
  C   C478      1.0  0.39184  0.92955  0.87140  1.0000
  C   C479      1.0  0.45611  0.96448  0.51672  1.0000
  H   H810      1.0  0.36796  0.90839  0.86657  1.0000
  H   H811      1.0  0.38635  0.98605  0.32603  1.0000
  H   H812      1.0  0.27535  0.88880  0.13058  1.0000
  N   N32       1.0  0.27571  0.91204  0.07010  1.0000
  C   C480      1.0  0.46484  0.96592  0.47957  1.0000
  H   H813      1.0  0.41272  0.94393  0.87645  1.0000
  C   C481      1.0  0.35850  0.91938  0.87623  1.0000
  H   H814      1.0  0.28723  0.93029  0.03919  1.0000
  H   H815      1.0  0.35565  0.95933  0.88372  1.0000
  C   C482      1.0  0.42146  0.89487  0.38213  1.0000
  C   C483      1.0  0.46213  0.99563  0.67904  1.0000
  H   H816      1.0  0.28288  0.88627  0.05022  1.0000
  Fe  Fe81      1.0  0.45372  0.92743  0.38795  1.0000
  H   H817      1.0  0.39291  0.89664  0.32530  1.0000
  H   H818      1.0  0.43191  0.98574  0.57158  1.0000
  H   H819      1.0  0.26492  0.93326  0.03518  1.0000
  H   H820      1.0  0.39101  0.88626  0.36736  1.0000
  H   H821      1.0  0.29549  0.89113  0.14635  1.0000
  H   H822      1.0  0.41931  0.88338  0.36826  1.0000
  H   H823      1.0  0.43512  0.89534  0.37814  1.0000
  C   C484      1.0  0.38667  0.89843  0.35236  1.0000
  H   H824      1.0  0.41929  0.89361  0.41156  1.0000
  S   S161      1.0  0.50061  0.92377  0.75858  1.0000
  H   H825      1.0  0.41427  0.91202  0.33722  1.0000
  H   H826      1.0  0.36005  0.90097  0.37229  1.0000
  C   C485      1.0  0.36746  0.89964  0.34667  1.0000
  C   C486      1.0  0.28632  0.90919  0.10347  1.0000
  C   C487      1.0  0.28423  0.89946  0.04250  1.0000
  C   C488      1.0  0.40709  0.00143  0.22344  1.0000
  H   H827      1.0  0.25488  0.97282  0.24193  1.0000
  H   H828      1.0  0.31331  0.98621  0.77023  1.0000
  H   H829      1.0  0.39079  0.89930  0.42211  1.0000
  Fe  Fe82      1.0  0.46462  0.92549  0.64511  1.0000
  H   H830      1.0  0.43575  0.98598  0.30839  1.0000
  C   C489      1.0  0.46929  0.91780  0.48410  1.0000
  C   C490      1.0  0.43107  0.99156  0.28193  1.0000
  C   C491      1.0  0.37662  0.97109  0.86807  1.0000
  C   C492      1.0  0.48847  0.98798  0.39182  1.0000
  C   C493      1.0  0.28788  0.89147  0.12167  1.0000
  S   S162      1.0  0.47643  0.93991  0.38520  1.0000
  Fe  Fe83      1.0  0.47831  0.93064  0.72043  1.0000
  H   H831      1.0  0.41542  0.92879  0.84142  1.0000
  H   H832      1.0  0.25681  0.91071  0.33137  1.0000
  C   C494      1.0  0.27534  0.92975  0.05479  1.0000
  H   H833      1.0  0.33746  0.99168  0.02947  1.0000
  H   H834      1.0  0.27234  0.95663  0.06633  1.0000
  H   H835      1.0  0.25878  0.99695  0.29585  1.0000
  H   H836      1.0  0.28527  0.94337  0.09763  1.0000
  H   H837      1.0  0.39931  0.98314  0.76393  1.0000
  C   C495      1.0  0.47495  0.99543  0.37007  1.0000
  H   H838      1.0  0.44310  0.00272  0.23529  1.0000
  C   C496      1.0  0.35277  0.97823  0.12897  1.0000
  H   H839      1.0  0.26250  0.94527  0.09992  1.0000
  C   C497      1.0  0.25296  0.96766  0.74455  1.0000
  H   H840      1.0  0.29632  0.00061  0.71873  1.0000
  N   N33       1.0  0.34022  0.99465  0.12373  1.0000
  C   C498      1.0  0.31922  0.99229  0.74754  1.0000
  H   H841      1.0  0.49892  0.89248  0.71727  1.0000
  H   H842      1.0  0.45203  0.99583  0.52859  1.0000
  H   H843      1.0  0.25478  0.92149  0.13018  1.0000
  H   H844      1.0  0.36945  0.98651  0.16902  1.0000
  H   H845      1.0  0.26409  0.90249  0.00165  1.0000
  C   C499      1.0  0.33253  0.99551  0.08675  1.0000
  C   C500      1.0  0.40421  0.00263  0.31386  1.0000
  H   H846      1.0  0.41786  0.99989  0.20376  1.0000
  H   H847      1.0  0.48949  0.96350  0.52441  1.0000
  H   H848      1.0  0.25828  0.96193  0.77018  1.0000
  H   H849      1.0  0.25587  0.99749  0.80702  1.0000
  H   H850      1.0  0.40220  0.97984  0.71678  1.0000
  H   H851      1.0  0.27826  0.99435  0.32058  1.0000
  H   H852      1.0  0.35608  0.99340  0.05333  1.0000
  C   C501      1.0  0.30792  0.99858  0.86577  1.0000
  H   H853      1.0  0.48744  0.96571  0.60705  1.0000
  C   C502      1.0  0.46333  0.00035  0.57794  1.0000
  H   H854      1.0  0.45522  0.00057  0.27616  1.0000
  H   H855      1.0  0.26386  0.96914  0.72659  1.0000
  H   H856      1.0  0.41002  0.99914  0.34064  1.0000
  C   C503      1.0  0.26432  0.99861  0.32229  1.0000
  H   H857      1.0  0.25933  0.99000  0.34189  1.0000
  H   H858      1.0  0.25194  0.99202  0.85250  1.0000
  Fe  Fe84      1.0  0.67089  0.06736  0.19006  1.0000
  S   S163      1.0  0.66882  0.06325  0.13043  1.0000
  S   S164      1.0  0.69436  0.06039  0.22485  1.0000
  Fe  Fe85      1.0  0.63193  0.07228  0.20320  1.0000
  S   S165      1.0  0.62680  0.06877  0.14507  1.0000
  S   S166      1.0  0.61355  0.07469  0.25148  1.0000
  Fe  Fe86      1.0  0.64939  0.04762  0.14654  1.0000
  S   S167      1.0  0.64780  0.02330  0.11938  1.0000
  Fe  Fe87      1.0  0.64643  0.08480  0.13251  1.0000
  S   S168      1.0  0.63977  0.10579  0.09021  1.0000
  S   S169      1.0  0.65315  0.04968  0.20549  1.0000
  S   S170      1.0  0.64985  0.09036  0.19130  1.0000
  Fe  Fe88      1.0  0.67071  0.07253  0.81084  1.0000
  S   S171      1.0  0.67276  0.06688  0.87071  1.0000
  S   S172      1.0  0.68991  0.07237  0.76447  1.0000
  Fe  Fe89      1.0  0.63216  0.07138  0.81043  1.0000
  S   S173      1.0  0.63114  0.06569  0.86983  1.0000
  S   S174      1.0  0.61236  0.07257  0.76674  1.0000
  Fe  Fe90      1.0  0.64771  0.08501  0.87609  1.0000
  S   S175      1.0  0.63893  0.10503  0.91824  1.0000
  Fe  Fe91      1.0  0.65602  0.04808  0.86074  1.0000
  S   S176      1.0  0.65992  0.02191  0.88537  1.0000
  S   S177      1.0  0.64694  0.09236  0.81680  1.0000
  S   S178      1.0  0.65581  0.05207  0.80119  1.0000
  H   H859      1.0  0.51636  0.02298  0.56135  1.0000
  H   H860      1.0  0.71346  0.09227  0.29899  1.0000
  C   C504      1.0  0.54294  0.02466  0.74665  1.0000
  H   H861      1.0  0.62138  0.06950  0.97227  1.0000
  C   C505      1.0  0.53364  0.04951  0.17410  1.0000
  Fe  Fe92      1.0  0.50975  0.07716  0.63394  1.0000
  C   C506      1.0  0.53214  0.04123  0.45499  1.0000
  H   H862      1.0  0.53480  0.03825  0.15704  1.0000
  H   H863      1.0  0.74995  0.06211  0.27424  1.0000
  H   H864      1.0  0.67592  0.07100  0.30624  1.0000
  H   H865      1.0  0.69999  0.10699  0.32670  1.0000
  H   H866      1.0  0.70673  0.06408  0.31283  1.0000
  C   C507      1.0  0.70954  0.07942  0.76171  1.0000
  C   C508      1.0  0.71816  0.08269  0.79226  1.0000
  C   C509      1.0  0.73440  0.08691  0.78856  1.0000
  C   C510      1.0  0.50465  0.00889  0.36945  1.0000
  C   C511      1.0  0.73342  0.08476  0.72388  1.0000
  C   C512      1.0  0.71715  0.08075  0.72756  1.0000
  H   H867      1.0  0.71245  0.08171  0.81869  1.0000
  H   H868      1.0  0.74107  0.08926  0.81231  1.0000
  H   H869      1.0  0.69801  0.00843  0.76834  1.0000
  H   H870      1.0  0.71046  0.07848  0.70375  1.0000
  C   C513      1.0  0.63979  0.10394  0.04254  1.0000
  C   C514      1.0  0.64916  0.09010  0.02375  1.0000
  C   C515      1.0  0.64891  0.08984  0.98552  1.0000
  C   C516      1.0  0.63946  0.10356  0.96609  1.0000
  C   C517      1.0  0.63023  0.11726  0.98515  1.0000
  C   C518      1.0  0.63040  0.11745  0.02286  1.0000
  H   H871      1.0  0.65704  0.07999  0.03864  1.0000
  H   H872      1.0  0.65644  0.07939  0.97110  1.0000
  H   H873      1.0  0.62305  0.12799  0.97059  1.0000
  H   H874      1.0  0.62333  0.12830  0.03685  1.0000
  C   C519      1.0  0.71204  0.07030  0.23093  1.0000
  C   C520      1.0  0.71256  0.08679  0.21826  1.0000
  C   C521      1.0  0.72654  0.09439  0.22601  1.0000
  C   C522      1.0  0.73999  0.08566  0.24678  1.0000
  C   C523      1.0  0.73954  0.06911  0.25894  1.0000
  C   C524      1.0  0.72570  0.06148  0.25090  1.0000
  H   H875      1.0  0.70216  0.09371  0.20278  1.0000
  H   H876      1.0  0.72682  0.10718  0.21633  1.0000
  C   C525      1.0  0.50993  0.08605  0.53875  1.0000
  H   H877      1.0  0.72554  0.04864  0.26040  1.0000
  H   H878      1.0  0.65521  0.01306  0.96247  1.0000
  H   H879      1.0  0.70633  0.11335  0.40511  1.0000
  S   S179      1.0  0.52212  0.06871  0.36428  1.0000
  C   C526      1.0  0.64183  0.01390  0.87509  1.0000
  C   C527      1.0  0.63036  0.02266  0.85034  1.0000
  C   C528      1.0  0.61582  0.01648  0.84184  1.0000
  H   H880      1.0  0.53857  0.02813  0.44852  1.0000
  C   C529      1.0  0.74829  0.03966  0.65659  1.0000
  H   H881      1.0  0.63271  0.03408  0.83707  1.0000
  H   H882      1.0  0.60709  0.02328  0.82242  1.0000
  C   C530      1.0  0.72646  0.05666  0.38705  1.0000
  H   H883      1.0  0.73471  0.04504  0.78167  1.0000
  H   H884      1.0  0.66147  0.01069  0.00818  1.0000
  C   C531      1.0  0.63274  0.01386  0.14282  1.0000
  C   C532      1.0  0.62513  0.02109  0.17447  1.0000
  C   C533      1.0  0.61425  0.01277  0.19504  1.0000
  C   C534      1.0  0.54146  0.00880  0.19430  1.0000
  H   H885      1.0  0.54423  0.01687  0.24739  1.0000
  H   H886      1.0  0.62781  0.03295  0.18359  1.0000
  H   H887      1.0  0.60902  0.01806  0.22027  1.0000
  C   C535      1.0  0.55491  0.07315  0.76473  1.0000
  C   C536      1.0  0.56437  0.07372  0.73284  1.0000
  C   C537      1.0  0.58198  0.07325  0.73408  1.0000
  C   C538      1.0  0.59037  0.07199  0.76710  1.0000
  C   C539      1.0  0.58102  0.07085  0.79898  1.0000
  C   C540      1.0  0.56334  0.07161  0.79778  1.0000
  H   H888      1.0  0.58214  0.10502  0.89273  1.0000
  H   H889      1.0  0.58911  0.07408  0.70924  1.0000
  H   H890      1.0  0.58736  0.06953  0.82449  1.0000
  H   H891      1.0  0.55613  0.07099  0.82259  1.0000
  H   H892      1.0  0.52075  0.03640  0.77808  1.0000
  C   C541      1.0  0.56526  0.07820  0.29065  1.0000
  C   C542      1.0  0.58308  0.07560  0.28727  1.0000
  C   C543      1.0  0.59109  0.07757  0.25378  1.0000
  C   C544      1.0  0.58106  0.08230  0.22363  1.0000
  C   C545      1.0  0.56323  0.08543  0.22722  1.0000
  H   H893      1.0  0.59072  0.07201  0.31080  1.0000
  H   H894      1.0  0.58702  0.08365  0.19769  1.0000
  H   H895      1.0  0.55929  0.07655  0.31656  1.0000
  C   C546      1.0  0.52057  0.04178  0.48880  1.0000
  Fe  Fe93      1.0  0.51180  0.04552  0.35091  1.0000
  S   S180      1.0  0.52790  0.05793  0.66601  1.0000
  H   H896      1.0  0.61784  0.03161  0.02242  1.0000
  H   H897      1.0  0.53326  0.04545  0.23187  1.0000
  C   C547      1.0  0.68255  0.08069  0.31736  1.0000
  H   H898      1.0  0.63935  0.06151  0.06918  1.0000
  H   H899      1.0  0.61251  0.05674  0.94154  1.0000
  C   C548      1.0  0.62319  0.01145  0.98487  1.0000
  H   H900      1.0  0.73555  0.07915  0.37189  1.0000
  C   C549      1.0  0.69919  0.07150  0.33463  1.0000
  H   H901      1.0  0.73902  0.09752  0.32727  1.0000
  H   H902      1.0  0.66885  0.00440  0.72937  1.0000
  H   H903      1.0  0.68805  0.09801  0.37966  1.0000
  H   H904      1.0  0.56780  0.14413  0.21452  1.0000
  H   H905      1.0  0.51987  0.05393  0.17964  1.0000
  H   H906      1.0  0.53098  0.09354  0.50977  1.0000
  H   H907      1.0  0.57032  0.03448  0.83308  1.0000
  C   C550      1.0  0.56868  0.03011  0.17910  1.0000
  H   H908      1.0  0.70475  0.09780  0.44021  1.0000
  H   H909      1.0  0.71593  0.01477  0.68182  1.0000
  H   H910      1.0  0.63576  0.03585  0.94065  1.0000
  H   H911      1.0  0.56336  0.00545  0.22782  1.0000
  H   H912      1.0  0.72179  0.04747  0.71611  1.0000
  H   H913      1.0  0.62618  0.04627  0.06594  1.0000
  C   C551      1.0  0.55523  0.08319  0.26064  1.0000
  H   H914      1.0  0.52908  0.03809  0.51182  1.0000
  H   H915      1.0  0.69901  0.02838  0.70424  1.0000
  H   H916      1.0  0.67916  0.03293  0.99946  1.0000
  N   N34       1.0  0.64235  0.03316  0.99718  1.0000
  C   C552      1.0  0.56161  0.02827  0.81748  1.0000
  H   H917      1.0  0.53776  0.06006  0.15845  1.0000
  C   C553      1.0  0.64756  0.04379  0.02644  1.0000
  C   C554      1.0  0.63637  0.04390  0.96440  1.0000
  H   H918      1.0  0.61788  0.01841  0.96032  1.0000
  H   H919      1.0  0.57072  0.03683  0.76793  1.0000
  C   C555      1.0  0.56959  0.02425  0.77988  1.0000
  H   H920      1.0  0.72114  0.06093  0.41382  1.0000
  H   H921      1.0  0.61040  0.05303  0.98812  1.0000
  C   C556      1.0  0.74218  0.08774  0.75440  1.0000
  N   N35       1.0  0.56033  0.01461  0.75515  1.0000
  C   C557      1.0  0.71182  0.02778  0.69183  1.0000
  H   H922      1.0  0.65590  0.03553  0.04594  1.0000
  H   H923      1.0  0.65528  0.05282  0.01484  1.0000
  H   H924      1.0  0.64585  0.05175  0.95581  1.0000
  H   H925      1.0  0.63448  0.01533  0.03558  1.0000
  H   H926      1.0  0.52515  0.04730  0.43131  1.0000
  H   H927      1.0  0.52872  0.01694  0.19207  1.0000
  H   H928      1.0  0.72308  0.09526  0.41292  1.0000
  H   H929      1.0  0.58815  0.04583  0.18599  1.0000
  H   H930      1.0  0.67913  0.02404  0.75892  1.0000
  C   C558      1.0  0.56085  0.03704  0.28125  1.0000
  C   C559      1.0  0.61927  0.05643  0.96737  1.0000
  H   H931      1.0  0.54948  0.03751  0.81579  1.0000
  H   H932      1.0  0.55879  0.02460  0.29202  1.0000
  H   H933      1.0  0.68757  0.01063  0.19402  1.0000
  H   H934      1.0  0.58406  0.03350  0.71492  1.0000
  C   C560      1.0  0.65785  0.02032  0.98618  1.0000
  C   C561      1.0  0.60438  0.12950  0.80842  1.0000
  H   H935      1.0  0.59972  0.09851  0.15372  1.0000
  H   H936      1.0  0.56154  0.02757  0.15542  1.0000
  H   H937      1.0  0.60404  0.15234  0.21719  1.0000
  H   H938      1.0  0.55592  0.12273  0.84750  1.0000
  C   C562      1.0  0.70920  0.09956  0.41208  1.0000
  C   C563      1.0  0.62936  0.02326  0.01178  1.0000
  H   H939      1.0  0.68366  0.02102  0.23609  1.0000
  N   N36       1.0  0.60147  0.13037  0.18607  1.0000
  H   H940      1.0  0.66315  0.01350  0.80846  1.0000
  H   H941      1.0  0.51495  0.05532  0.49348  1.0000
  C   C564      1.0  0.51110  0.09080  0.47352  1.0000
  H   H942      1.0  0.69558  0.06187  0.35382  1.0000
  H   H943      1.0  0.61289  0.00581  0.99789  1.0000
  H   H944      1.0  0.56277  0.03787  0.69723  1.0000
  Fe  Fe94      1.0  0.50591  0.04466  0.67257  1.0000
  H   H945      1.0  0.57905  0.14679  0.84725  1.0000
  H   H946      1.0  0.58370  0.10723  0.12269  1.0000
  H   H947      1.0  0.60599  0.12828  0.90052  1.0000
  H   H948      1.0  0.60016  0.12082  0.75386  1.0000
  H   H949      1.0  0.63006  0.12167  0.23452  1.0000
  H   H950      1.0  0.62067  0.12561  0.76046  1.0000
  H   H951      1.0  0.60798  0.14627  0.87144  1.0000
  H   H952      1.0  0.61507  0.10726  0.85691  1.0000
  H   H953      1.0  0.61609  0.13072  0.82281  1.0000
  H   H954      1.0  0.59846  0.14267  0.79983  1.0000
  H   H955      1.0  0.61164  0.13180  0.26047  1.0000
  C   C565      1.0  0.61047  0.11987  0.77361  1.0000
  C   C566      1.0  0.59891  0.13954  0.88596  1.0000
  H   H956      1.0  0.60337  0.09678  0.90559  1.0000
  H   H957      1.0  0.59236  0.14835  0.90668  1.0000
  C   C567      1.0  0.61730  0.12043  0.24492  1.0000
  C   C568      1.0  0.60222  0.10548  0.84915  1.0000
  C   C569      1.0  0.60571  0.11668  0.21470  1.0000
  H   H958      1.0  0.61587  0.10636  0.77908  1.0000
  H   H959      1.0  0.60471  0.09535  0.82869  1.0000
  S   S181      1.0  0.50792  0.05236  0.29274  1.0000
  C   C570      1.0  0.58560  0.13483  0.86066  1.0000
  N   N37       1.0  0.59242  0.12172  0.83285  1.0000
  H   H960      1.0  0.61921  0.10952  0.26436  1.0000
  H   H961      1.0  0.58981  0.15698  0.18123  1.0000
  C   C571      1.0  0.59442  0.09790  0.88289  1.0000
  H   H962      1.0  0.61225  0.10459  0.20260  1.0000
  H   H963      1.0  0.59402  0.11356  0.22771  1.0000
  C   C572      1.0  0.51857  0.09027  0.50754  1.0000
  C   C573      1.0  0.56903  0.03559  0.24315  1.0000
  C   C574      1.0  0.57818  0.11820  0.81008  1.0000
  H   H964      1.0  0.59259  0.08481  0.87736  1.0000
  H   H965      1.0  0.58295  0.10787  0.79078  1.0000
  H   H966      1.0  0.57299  0.12965  0.79335  1.0000
  H   H967      1.0  0.57565  0.13096  0.87823  1.0000
  H   H968      1.0  0.55379  0.11043  0.80933  1.0000
  H   H969      1.0  0.62668  0.13643  0.18314  1.0000
  C   C575      1.0  0.57060  0.01187  0.72047  1.0000
  C   C576      1.0  0.59461  0.11003  0.13773  1.0000
  C   C577      1.0  0.59417  0.14727  0.20254  1.0000
  C   C578      1.0  0.61752  0.13193  0.16547  1.0000
  C   C579      1.0  0.56294  0.11274  0.82982  1.0000
  C   C580      1.0  0.58845  0.12556  0.16167  1.0000
  H   H970      1.0  0.56659  0.10056  0.84475  1.0000
  H   H971      1.0  0.62414  0.11927  0.15612  1.0000
  C   C581      1.0  0.61541  0.14418  0.13249  1.0000
  H   H972      1.0  0.57747  0.12254  0.17773  1.0000
  H   H973      1.0  0.60425  0.11233  0.11735  1.0000
  H   H974      1.0  0.62810  0.14403  0.11971  1.0000
  H   H975      1.0  0.55557  0.08931  0.20385  1.0000
  H   H976      1.0  0.60743  0.14022  0.11157  1.0000
  C   C582      1.0  0.57879  0.14743  0.22837  1.0000
  H   H977      1.0  0.56823  0.05757  0.16928  1.0000
  S   S182      1.0  0.53258  0.07473  0.76466  1.0000
  H   H978      1.0  0.61022  0.15746  0.14003  1.0000
  Fe  Fe95      1.0  0.51609  0.07670  0.30659  1.0000
  H   H979      1.0  0.71812  0.03142  0.74717  1.0000
  C   C583      1.0  0.70013  0.08939  0.38660  1.0000
  H   H980      1.0  0.58304  0.13641  0.14359  1.0000
  C   C584      1.0  0.72662  0.07175  0.36067  1.0000
  C   C585      1.0  0.72346  0.03347  0.71984  1.0000
  C   C586      1.0  0.63336  0.05435  0.04955  1.0000
  H   H981      1.0  0.55808  0.07491  0.70722  1.0000
  H   H982      1.0  0.69584  0.07906  0.40280  1.0000
  H   H983      1.0  0.57354  0.04775  0.23827  1.0000
  C   C587      1.0  0.72672  0.10607  0.33282  1.0000
  N   N38       1.0  0.70959  0.08266  0.35285  1.0000
  H   H984      1.0  0.53234  0.01852  0.80117  1.0000
  C   C588      1.0  0.55215  0.01566  0.22232  1.0000
  H   H985      1.0  0.54705  0.05882  0.21560  1.0000
  H   H986      1.0  0.62471  0.06397  0.03377  1.0000
  C   C589      1.0  0.57724  0.04528  0.16850  1.0000
  H   H987      1.0  0.58067  0.02553  0.24457  1.0000
  S   S183      1.0  0.52206  0.01904  0.37145  1.0000
  H   H988      1.0  0.73917  0.08559  0.69743  1.0000
  H   H989      1.0  0.51769  0.09461  0.44987  1.0000
  N   N39       1.0  0.55785  0.03216  0.21304  1.0000
  Fe  Fe96      1.0  0.51705  0.07220  0.71495  1.0000
  H   H990      1.0  0.68392  0.01691  0.96631  1.0000
  H   H991      1.0  0.58186  0.13890  0.25218  1.0000
  C   C590      1.0  0.54289  0.04667  0.21044  1.0000
  C   C591      1.0  0.67394  0.02749  0.97598  1.0000
  H   H992      1.0  0.54886  0.04651  0.28233  1.0000
  H   H993      1.0  0.73977  0.05015  0.39134  1.0000
  C   C592      1.0  0.52840  0.02347  0.77414  1.0000
  H   H994      1.0  0.51957  0.01581  0.76313  1.0000
  C   C593      1.0  0.71169  0.09700  0.32701  1.0000
  H   H995      1.0  0.73287  0.06657  0.33514  1.0000
  H   H996      1.0  0.72599  0.11681  0.31310  1.0000
  H   H997      1.0  0.67181  0.03702  0.95368  1.0000
  H   H998      1.0  0.72681  0.11140  0.35992  1.0000
  C   C594      1.0  0.68632  0.01601  0.78019  1.0000
  H   H999      1.0  0.51881  0.01126  0.45211  1.0000
  H   H1000     1.0  0.57464  0.16048  0.23875  1.0000
  H   H1001     1.0  0.67374  0.08810  0.33708  1.0000
  S   S184      1.0  0.51917  0.08729  0.58118  1.0000
  H   H1002     1.0  0.58251  0.04358  0.14062  1.0000
  H   H1003     1.0  0.71969  0.04709  0.37617  1.0000
  S   S185      1.0  0.53274  0.08657  0.26321  1.0000
  H   H1004     1.0  0.56972  0.04137  0.29989  1.0000
  H   H1005     1.0  0.70991  0.03697  0.66876  1.0000
  H   H1006     1.0  0.68495  0.08897  0.29420  1.0000
  H   H1007     1.0  0.54346  0.03838  0.74277  1.0000
  S   S186      1.0  0.51101  0.01639  0.66909  1.0000
  H   H1008     1.0  0.69024  0.02490  0.79947  1.0000
  H   H1009     1.0  0.53865  0.02065  0.72043  1.0000
  C   C595      1.0  0.51357  0.01298  0.48007  1.0000
  H   H1010     1.0  0.73605  0.04865  0.65935  1.0000
  H   H1011     1.0  0.54220  0.04867  0.45996  1.0000
  H   H1012     1.0  0.57889  0.01870  0.18156  1.0000
  C   C596      1.0  0.74577  0.00894  0.73801  1.0000
  H   H1013     1.0  0.74060  0.01032  0.76603  1.0000
  H   H1014     1.0  0.54792  0.00691  0.16764  1.0000
  H   H1015     1.0  0.51050  0.04591  0.56004  1.0000
  H   H1016     1.0  0.57965  0.02460  0.67356  1.0000
  H   H1017     1.0  0.58306  0.00333  0.72520  1.0000
  N   N40       1.0  0.74210  0.02570  0.71760  1.0000
  C   C597      1.0  0.74868  0.02324  0.67932  1.0000
  H   H1018     1.0  0.56001  0.01675  0.83318  1.0000
  H   H1019     1.0  0.74184  0.01505  0.66403  1.0000
  H   H1020     1.0  0.56404  0.00532  0.70056  1.0000
  H   H1021     1.0  0.58282  0.01724  0.78375  1.0000
  C   C598      1.0  0.57434  0.02803  0.70086  1.0000
  C   C599      1.0  0.50576  0.03381  0.55771  1.0000
  H   H1022     1.0  0.64994  0.00704  0.75622  1.0000
  C   C600      1.0  0.67520  0.00494  0.80045  1.0000
  H   H1023     1.0  0.75034  0.03638  0.62773  1.0000
  N   N41       1.0  0.50672  0.03143  0.48759  1.0000
  C   C601      1.0  0.52687  0.00330  0.50602  1.0000
  H   H1024     1.0  0.53591  0.01099  0.51549  1.0000
  H   H1025     1.0  0.50312  0.00564  0.48058  1.0000
  H   H1026     1.0  0.50197  0.03642  0.43062  1.0000
  C   C602      1.0  0.68724  0.00835  0.22354  1.0000
  C   C603      1.0  0.74840  0.04065  0.77560  1.0000
  H   H1027     1.0  0.74379  0.00747  0.44832  1.0000
  H   H1028     1.0  0.74950  0.05034  0.72197  1.0000
  H   H1029     1.0  0.66145  0.00499  0.22830  1.0000
  H   H1030     1.0  0.70014  0.00278  0.23296  1.0000
  H   H1031     1.0  0.75067  0.07361  0.51070  1.0000
  H   H1032     1.0  0.54531  0.00294  0.31592  1.0000
  H   H1033     1.0  0.50411  0.98494  0.69780  1.0000
  H   H1034     1.0  0.54163  0.93889  0.02252  1.0000
  H   H1035     1.0  0.74093  0.88487  0.27282  1.0000
  H   H1036     1.0  0.65464  0.94108  0.93453  1.0000
  N   N42       1.0  0.56280  0.92801  0.05675  1.0000
  H   H1037     1.0  0.57307  0.99045  0.77744  1.0000
  H   H1038     1.0  0.56654  0.90204  0.66589  1.0000
  H   H1039     1.0  0.55334  0.99784  0.79790  1.0000
  H   H1040     1.0  0.68441  0.95837  0.15482  1.0000
  H   H1041     1.0  0.67538  0.92969  0.92180  1.0000
  C   C604      1.0  0.55180  0.98532  0.74811  1.0000
  C   C605      1.0  0.74344  0.97779  0.42136  1.0000
  Fe  Fe97      1.0  0.58965  0.92730  0.18858  1.0000
  S   S187      1.0  0.59048  0.94954  0.15089  1.0000
  S   S188      1.0  0.56254  0.92190  0.18852  1.0000
  Fe  Fe98      1.0  0.62738  0.92517  0.20850  1.0000
  S   S189      1.0  0.63005  0.94724  0.17258  1.0000
  S   S190      1.0  0.64887  0.91452  0.24716  1.0000
  Fe  Fe99      1.0  0.60449  0.95919  0.19436  1.0000
  C   C606      1.0  0.55147  0.92715  0.02535  1.0000
  Fe  Fe100     1.0  0.61579  0.93557  0.13141  1.0000
  S   S191      1.0  0.62412  0.94045  0.07347  1.0000
  S   S192      1.0  0.60236  0.93809  0.23347  1.0000
  S   S193      1.0  0.61448  0.91225  0.16601  1.0000
  Fe  Fe101     1.0  0.59483  0.93735  0.79223  1.0000
  S   S194      1.0  0.58480  0.94788  0.84554  1.0000
  S   S195      1.0  0.57662  0.93641  0.74626  1.0000
  Fe  Fe102     1.0  0.63254  0.93698  0.81126  1.0000
  S   S196      1.0  0.62452  0.94832  0.86530  1.0000
  S   S197      1.0  0.66169  0.93033  0.80684  1.0000
  Fe  Fe103     1.0  0.60680  0.92994  0.86994  1.0000
  S   S198      1.0  0.60542  0.91427  0.92161  1.0000
  Fe  Fe104     1.0  0.60343  0.96512  0.83664  1.0000
  C   C607      1.0  0.74077  0.95919  0.42366  1.0000
  S   S199      1.0  0.61552  0.91751  0.81702  1.0000
  S   S200      1.0  0.61270  0.95576  0.78218  1.0000
  C   C608      1.0  0.67665  0.93225  0.77139  1.0000
  C   C609      1.0  0.69409  0.92851  0.77887  1.0000
  C   C610      1.0  0.70646  0.93028  0.75204  1.0000
  C   C611      1.0  0.70154  0.93582  0.71722  1.0000
  C   C612      1.0  0.68409  0.93940  0.70968  1.0000
  C   C613      1.0  0.67172  0.93765  0.73651  1.0000
  H   H1042     1.0  0.69811  0.92427  0.80567  1.0000
  H   H1043     1.0  0.71979  0.92743  0.75831  1.0000
  H   H1044     1.0  0.68011  0.94360  0.68281  1.0000
  H   H1045     1.0  0.65839  0.94048  0.73016  1.0000
  C   C614      1.0  0.61869  0.93283  0.03180  1.0000
  C   C615      1.0  0.61776  0.94365  0.00131  1.0000
  C   C616      1.0  0.61359  0.93818  0.96751  1.0000
  C   C617      1.0  0.61052  0.92171  0.96374  1.0000
  C   C618      1.0  0.61176  0.91075  0.99406  1.0000
  C   C619      1.0  0.61591  0.91624  0.02793  1.0000
  H   H1046     1.0  0.62013  0.95642  0.00392  1.0000
  H   H1047     1.0  0.61269  0.94675  0.94442  1.0000
  H   H1048     1.0  0.60962  0.89791  0.99126  1.0000
  H   H1049     1.0  0.61721  0.90759  0.05088  1.0000
  C   C620      1.0  0.67055  0.91701  0.24698  1.0000
  C   C621      1.0  0.67904  0.92117  0.21565  1.0000
  C   C622      1.0  0.69650  0.92184  0.21638  1.0000
  C   C623      1.0  0.70569  0.91870  0.24848  1.0000
  C   C624      1.0  0.69711  0.91494  0.27996  1.0000
  C   C625      1.0  0.67973  0.91394  0.27908  1.0000
  H   H1050     1.0  0.67226  0.92339  0.19066  1.0000
  H   H1051     1.0  0.70393  0.91241  0.30485  1.0000
  H   H1052     1.0  0.67337  0.91060  0.30345  1.0000
  C   C626      1.0  0.52106  0.92931  0.75657  1.0000
  C   C627      1.0  0.53276  0.92273  0.78326  1.0000
  C   C628      1.0  0.54957  0.92556  0.78144  1.0000
  C   C629      1.0  0.55497  0.93478  0.75249  1.0000
  C   C630      1.0  0.54317  0.94174  0.72620  1.0000
  C   C631      1.0  0.52625  0.93920  0.72841  1.0000
  H   H1053     1.0  0.52887  0.91514  0.80524  1.0000
  H   H1054     1.0  0.55850  0.92008  0.80179  1.0000
  H   H1055     1.0  0.54721  0.94894  0.70374  1.0000
  H   H1056     1.0  0.51734  0.94457  0.70793  1.0000
  H   H1057     1.0  0.68567  0.91524  0.86985  1.0000
  N   N43       1.0  0.53495  0.96983  0.30803  1.0000
  H   H1058     1.0  0.52734  0.92745  0.63840  1.0000
  Fe  Fe105     1.0  0.74550  0.93524  0.67560  1.0000
  C   C632      1.0  0.56437  0.95883  0.03668  1.0000
  S   S201      1.0  0.71640  0.93914  0.68250  1.0000
  C   C633      1.0  0.52381  0.91934  0.28181  1.0000
  C   C634      1.0  0.51845  0.92581  0.24782  1.0000
  C   C635      1.0  0.53046  0.92653  0.21963  1.0000
  C   C636      1.0  0.54798  0.92130  0.22529  1.0000
  C   C637      1.0  0.55333  0.91513  0.25945  1.0000
  C   C638      1.0  0.54131  0.91396  0.28731  1.0000
  H   H1059     1.0  0.65671  0.97010  0.78794  1.0000
  H   H1060     1.0  0.52611  0.93119  0.19331  1.0000
  H   H1061     1.0  0.56671  0.91081  0.26417  1.0000
  H   H1062     1.0  0.54561  0.90877  0.31334  1.0000
  H   H1063     1.0  0.55212  0.92908  0.96655  1.0000
  H   H1064     1.0  0.70329  0.97708  0.20288  1.0000
  H   H1065     1.0  0.64914  0.99141  0.69912  1.0000
  C   C639      1.0  0.66024  0.98074  0.80291  1.0000
  H   H1066     1.0  0.65055  0.89722  0.99383  1.0000
  H   H1067     1.0  0.66177  0.94076  0.88893  1.0000
  H   H1068     1.0  0.70298  0.92466  0.19177  1.0000
  H   H1069     1.0  0.69784  0.90367  0.90651  1.0000
  H   H1070     1.0  0.65069  0.91894  0.97968  1.0000
  H   H1071     1.0  0.74082  0.91125  0.49897  1.0000
  H   H1072     1.0  0.63945  0.89344  0.94048  1.0000
  H   H1073     1.0  0.66631  0.90803  0.00964  1.0000
  C   C640      1.0  0.65338  0.91748  0.90653  1.0000
  H   H1074     1.0  0.55391  0.96449  0.05516  1.0000
  H   H1075     1.0  0.57230  0.92828  0.98475  1.0000
  C   C641      1.0  0.58562  0.90887  0.09460  1.0000
  H   H1076     1.0  0.55502  0.96648  0.34712  1.0000
  H   H1077     1.0  0.50707  0.99027  0.24231  1.0000
  C   C642      1.0  0.54525  0.97682  0.33554  1.0000
  H   H1078     1.0  0.58015  0.94360  0.07533  1.0000
  H   H1079     1.0  0.74514  0.98072  0.39220  1.0000
  H   H1080     1.0  0.70734  0.96036  0.79325  1.0000
  C   C643      1.0  0.69033  0.90257  0.88238  1.0000
  H   H1081     1.0  0.65597  0.87568  0.93279  1.0000
  H   H1082     1.0  0.66979  0.89253  0.86314  1.0000
  H   H1083     1.0  0.68115  0.90722  0.95386  1.0000
  H   H1084     1.0  0.56373  0.90917  0.98433  1.0000
  H   H1085     1.0  0.75039  0.92585  0.55082  1.0000
  H   H1086     1.0  0.51597  0.95365  0.30922  1.0000
  C   C644      1.0  0.65474  0.98464  0.72368  1.0000
  C   C645      1.0  0.56054  0.92311  0.98846  1.0000
  H   H1087     1.0  0.67728  0.88667  0.96141  1.0000
  H   H1088     1.0  0.64069  0.92033  0.92002  1.0000
  H   H1089     1.0  0.58413  0.93691  0.03083  1.0000
  H   H1090     1.0  0.54648  0.89297  0.62901  1.0000
  C   C646      1.0  0.64122  0.88489  0.88642  1.0000
  C   C647      1.0  0.65874  0.90643  0.98573  1.0000
  H   H1091     1.0  0.73200  0.86836  0.25286  1.0000
  H   H1092     1.0  0.53423  0.92452  0.12846  1.0000
  S   S202      1.0  0.72790  0.91904  0.24727  1.0000
  H   H1093     1.0  0.67830  0.96159  0.83266  1.0000
  C   C648      1.0  0.52230  0.96101  0.32796  1.0000
  H   H1094     1.0  0.56366  0.98771  0.30082  1.0000
  H   H1095     1.0  0.53694  0.98212  0.35859  1.0000
  H   H1096     1.0  0.53318  0.99155  0.27099  1.0000
  C   C649      1.0  0.62878  0.99871  0.13076  1.0000
  H   H1097     1.0  0.54955  0.90732  0.11220  1.0000
  H   H1098     1.0  0.53017  0.89508  0.72497  1.0000
  N   N44       1.0  0.67652  0.97999  0.21844  1.0000
  C   C650      1.0  0.61756  0.99058  0.15091  1.0000
  H   H1099     1.0  0.66508  0.97435  0.71454  1.0000
  H   H1100     1.0  0.65890  0.99063  0.17677  1.0000
  C   C651      1.0  0.70221  0.97424  0.79315  1.0000
  H   H1101     1.0  0.74011  0.86566  0.29733  1.0000
  C   C652      1.0  0.73881  0.99402  0.72253  1.0000
  H   H1102     1.0  0.64994  0.87634  0.86832  1.0000
  C   C653      1.0  0.52000  0.87667  0.64817  1.0000
  H   H1103     1.0  0.71607  0.96700  0.25660  1.0000
  H   H1104     1.0  0.63336  0.00065  0.97727  1.0000
  H   H1105     1.0  0.68149  0.87948  0.89697  1.0000
  H   H1106     1.0  0.51186  0.97046  0.34008  1.0000
  H   H1107     1.0  0.59386  0.89607  0.09442  1.0000
  S   S203      1.0  0.50938  0.91772  0.31839  1.0000
  C   C654      1.0  0.67149  0.96603  0.15846  1.0000
  C   C655      1.0  0.57365  0.94130  0.05030  1.0000
  H   H1108     1.0  0.65071  0.91774  0.87725  1.0000
  H   H1109     1.0  0.63578  0.89679  0.87185  1.0000
  C   C656      1.0  0.54146  0.91952  0.10391  1.0000
  H   H1110     1.0  0.54268  0.94472  0.08524  1.0000
  H   H1111     1.0  0.62179  0.98100  0.89538  1.0000
  H   H1112     1.0  0.50269  0.97335  0.27063  1.0000
  H   H1113     1.0  0.68398  0.96590  0.75949  1.0000
  H   H1114     1.0  0.73763  0.95516  0.45134  1.0000
  C   C657      1.0  0.55193  0.93273  0.08997  1.0000
  H   H1115     1.0  0.66827  0.95607  0.23007  1.0000
  H   H1116     1.0  0.57355  0.96763  0.03512  1.0000
  H   H1117     1.0  0.64447  0.97916  0.73718  1.0000
  H   H1118     1.0  0.53836  0.94993  0.26866  1.0000
  H   H1119     1.0  0.50196  0.90604  0.66197  1.0000
  H   H1120     1.0  0.69606  0.95796  0.20850  1.0000
  H   H1121     1.0  0.55705  0.89627  0.70700  1.0000
  H   H1122     1.0  0.56666  0.90054  0.06277  1.0000
  C   C658      1.0  0.50334  0.99485  0.39178  1.0000
  H   H1123     1.0  0.55346  0.94662  0.30221  1.0000
  H   H1124     1.0  0.53932  0.99608  0.20352  1.0000
  H   H1125     1.0  0.53413  0.95485  0.38116  1.0000
  H   H1126     1.0  0.58269  0.90797  0.03752  1.0000
  S   S204      1.0  0.59790  0.98646  0.21039  1.0000
  H   H1127     1.0  0.51011  0.88147  0.75412  1.0000
  H   H1128     1.0  0.61437  0.97898  0.14123  1.0000
  H   H1129     1.0  0.54681  0.91439  0.68079  1.0000
  H   H1130     1.0  0.69962  0.95543  0.27001  1.0000
  H   H1131     1.0  0.55526  0.97598  0.24877  1.0000
  H   H1132     1.0  0.55246  0.87645  0.66064  1.0000
  H   H1133     1.0  0.53492  0.99266  0.49144  1.0000
  H   H1134     1.0  0.55954  0.95821  0.00910  1.0000
  H   H1135     1.0  0.52746  0.86378  0.65445  1.0000
  C   C659      1.0  0.55923  0.96296  0.25958  1.0000
  C   C660      1.0  0.54609  0.95683  0.28507  1.0000
  H   H1136     1.0  0.56121  0.95481  0.23544  1.0000
  C   C661      1.0  0.66775  0.97238  0.83809  1.0000
  C   C662      1.0  0.66201  0.93280  0.91384  1.0000
  H   H1137     1.0  0.63048  0.87838  0.89341  1.0000
  C   C663      1.0  0.67412  0.99734  0.23504  1.0000
  H   H1138     1.0  0.71284  0.98033  0.78333  1.0000
  C   C664      1.0  0.55418  0.90130  0.67929  1.0000
  H   H1139     1.0  0.52545  0.91086  0.60701  1.0000
  H   H1140     1.0  0.63961  0.96728  0.25271  1.0000
  H   H1141     1.0  0.69922  0.89545  0.86227  1.0000
  N   N45       1.0  0.52669  0.88997  0.66868  1.0000
  C   C665      1.0  0.52650  0.88504  0.70823  1.0000
  C   C666      1.0  0.54498  0.88962  0.65779  1.0000
  C   C667      1.0  0.70213  0.96763  0.25827  1.0000
  C   C668      1.0  0.51552  0.90724  0.66340  1.0000
  H   H1142     1.0  0.51691  0.99343  0.30383  1.0000
  H   H1143     1.0  0.67396  0.99643  0.26497  1.0000
  C   C669      1.0  0.55446  0.99125  0.32313  1.0000
  C   C670      1.0  0.51957  0.91809  0.63045  1.0000
  H   H1144     1.0  0.53603  0.87327  0.71377  1.0000
  H   H1145     1.0  0.52068  0.99798  0.52951  1.0000
  S   S205      1.0  0.59543  0.99307  0.84421  1.0000
  C   C671      1.0  0.51314  0.97878  0.25778  1.0000
  H   H1146     1.0  0.52020  0.96974  0.23813  1.0000
  H   H1147     1.0  0.53215  0.87916  0.59451  1.0000
  H   H1148     1.0  0.74150  0.97752  0.52985  1.0000
  H   H1149     1.0  0.53934  0.93796  0.34869  1.0000
  C   C672      1.0  0.68716  0.97823  0.76701  1.0000
  H   H1150     1.0  0.50544  0.95656  0.58076  1.0000
  H   H1151     1.0  0.66655  0.96962  0.13112  1.0000
  C   C673      1.0  0.52492  0.98409  0.28586  1.0000
  C   C674      1.0  0.52936  0.94844  0.35850  1.0000
  C   C675      1.0  0.66558  0.96950  0.23889  1.0000
  C   C676      1.0  0.69468  0.97080  0.22019  1.0000
  H   H1152     1.0  0.51361  0.98947  0.40929  1.0000
  C   C677      1.0  0.50943  0.88200  0.72425  1.0000
  H   H1153     1.0  0.74373  0.98237  0.73873  1.0000
  Fe  Fe106     1.0  0.74725  0.91917  0.29222  1.0000
  H   H1154     1.0  0.67164  0.98150  0.85661  1.0000
  N   N46       1.0  0.66262  0.90006  0.91791  1.0000
  C   C678      1.0  0.64994  0.88831  0.92136  1.0000
  C   C679      1.0  0.67084  0.89984  0.95408  1.0000
  C   C680      1.0  0.67573  0.89288  0.88983  1.0000
  H   H1155     1.0  0.55974  0.93547  0.11272  1.0000
  H   H1156     1.0  0.54391  0.91700  0.03010  1.0000
  C   C681      1.0  0.57416  0.91090  0.06146  1.0000
  H   H1157     1.0  0.65774  0.96689  0.85262  1.0000
  H   H1158     1.0  0.53203  0.91722  0.08424  1.0000
  H   H1159     1.0  0.51622  0.91518  0.68717  1.0000
  H   H1160     1.0  0.64810  0.98940  0.81009  1.0000
  H   H1161     1.0  0.74252  0.88481  0.20241  1.0000
  H   H1162     1.0  0.59411  0.91828  0.09435  1.0000
  H   H1163     1.0  0.64757  0.99205  0.91065  1.0000
  H   H1164     1.0  0.56174  0.99463  0.34605  1.0000
  C   C682      1.0  0.67162  0.98240  0.17945  1.0000
  H   H1165     1.0  0.50505  0.92989  0.24304  1.0000
  C   C683      1.0  0.64629  0.97602  0.23678  1.0000
  H   H1166     1.0  0.57162  0.96188  0.27296  1.0000
  H   H1167     1.0  0.66305  0.95805  0.17110  1.0000
  H   H1168     1.0  0.51889  0.94247  0.36975  1.0000
  H   H1169     1.0  0.57822  0.90972  0.12022  1.0000
  H   H1170     1.0  0.74496  0.87889  0.13961  1.0000
  H   H1171     1.0  0.66867  0.96867  0.26802  1.0000
  H   H1172     1.0  0.68140  0.00104  0.82633  1.0000
  C   C684      1.0  0.62429  0.99250  0.88248  1.0000
  H   H1173     1.0  0.50755  0.92592  0.62083  1.0000
  H   H1174     1.0  0.73910  0.99719  0.50512  1.0000
  H   H1175     1.0  0.53939  0.99161  0.73732  1.0000
  H   H1176     1.0  0.72930  0.97998  0.48995  1.0000
  H   H1177     1.0  0.68036  0.98935  0.16424  1.0000
  H   H1178     1.0  0.54963  0.97422  0.76485  1.0000
  C   C685      1.0  0.61290  0.00129  0.85750  1.0000
  C   C686      1.0  0.61062  0.99740  0.18348  1.0000
  C   C687      1.0  0.74227  0.87098  0.27011  1.0000
  H   H1179     1.0  0.69221  0.98334  0.74171  1.0000
  H   H1180     1.0  0.64174  0.97611  0.20889  1.0000
  H   H1181     1.0  0.72482  0.99603  0.72492  1.0000
  C   C688      1.0  0.55994  0.99722  0.77140  1.0000
  H   H1182     1.0  0.56041  0.98010  0.72561  1.0000
  H   H1183     1.0  0.69722  0.97792  0.27721  1.0000
  C   C689      1.0  0.63877  0.99884  0.89138  1.0000
  S   S206      1.0  0.74331  0.93643  0.33946  1.0000
  C   C690      1.0  0.74069  0.98323  0.50223  1.0000
  C   C691      1.0  0.51954  0.87887  0.60692  1.0000
  H   H1184     1.0  0.69922  0.97766  0.82146  1.0000
  H   H1185     1.0  0.72984  0.95797  0.40680  1.0000
  N   N47       1.0  0.67139  0.99010  0.77996  1.0000
  H   H1186     1.0  0.74327  0.99110  0.69455  1.0000
  H   H1187     1.0  0.73122  0.98600  0.42944  1.0000
  H   H1188     1.0  0.63452  0.99313  0.10614  1.0000
  H   H1189     1.0  0.64241  0.98885  0.24822  1.0000
  C   C692      1.0  0.66123  0.99746  0.74767  1.0000
  H   H1190     1.0  0.74520  0.86246  0.19624  1.0000
  H   H1191     1.0  0.51512  0.86782  0.59544  1.0000
  H   H1192     1.0  0.51017  0.89025  0.59869  1.0000
  H   H1193     1.0  0.50664  0.87634  0.65642  1.0000
  H   H1194     1.0  0.50650  0.86969  0.71577  1.0000
  H   H1195     1.0  0.88626  0.17570  0.44783  1.0000
  S   S207      1.0  0.91463  0.18026  0.29147  1.0000
  Fe  Fe107     1.0  0.88738  0.20204  0.37013  1.0000
  S   S208      1.0  0.90387  0.17643  0.37621  1.0000
  S   S209      1.0  0.87045  0.21314  0.41601  1.0000
  Fe  Fe108     1.0  0.92348  0.18786  0.34479  1.0000
  S   S210      1.0  0.94961  0.18621  0.36863  1.0000
  Fe  Fe109     1.0  0.89336  0.17097  0.32305  1.0000
  S   S211      1.0  0.88506  0.14528  0.31508  1.0000
  S   S212      1.0  0.80508  0.07342  0.70452  1.0000
  S   S213      1.0  0.87577  0.19623  0.31876  1.0000
  S   S214      1.0  0.80244  0.07770  0.29924  1.0000
  H   H1196     1.0  0.77696  0.10464  0.44261  1.0000
  S   S215      1.0  0.80277  0.07243  0.38723  1.0000
  S   S216      1.0  0.78870  0.11133  0.67312  1.0000
  Fe  Fe110     1.0  0.80362  0.09412  0.34759  1.0000
  S   S217      1.0  0.81710  0.11682  0.35544  1.0000
  Fe  Fe111     1.0  0.79904  0.05676  0.33938  1.0000
  S   S218      1.0  0.81094  0.02860  0.34059  1.0000
  C   C693      1.0  0.85350  0.24195  0.30390  1.0000
  S   S219      1.0  0.91338  0.18254  0.60469  1.0000
  H   H1197     1.0  0.80804  0.08546  0.53956  1.0000
  C   C694      1.0  0.89769  0.14135  0.43679  1.0000
  S   S220      1.0  0.90655  0.18396  0.69135  1.0000
  Fe  Fe112     1.0  0.92844  0.18559  0.65329  1.0000
  S   S221      1.0  0.95531  0.17038  0.65573  1.0000
  Fe  Fe113     1.0  0.89077  0.18312  0.64215  1.0000
  S   S222      1.0  0.87369  0.16444  0.62576  1.0000
  S   S223      1.0  0.90756  0.21406  0.34334  1.0000
  H   H1198     1.0  0.98019  0.18175  0.58137  1.0000
  Fe  Fe114     1.0  0.90674  0.21083  0.60340  1.0000
  H   H1199     1.0  0.99306  0.20414  0.52108  1.0000
  S   S224      1.0  0.81208  0.08304  0.62072  1.0000
  C   C695      1.0  0.95854  0.20725  0.51480  1.0000
  Fe  Fe115     1.0  0.79995  0.06338  0.65061  1.0000
  S   S225      1.0  0.80363  0.03635  0.62975  1.0000
  Fe  Fe116     1.0  0.81455  0.09486  0.67423  1.0000
  S   S226      1.0  0.83654  0.10657  0.69500  1.0000
  H   H1200     1.0  0.85031  0.03258  0.51242  1.0000
  H   H1201     1.0  0.94584  0.20375  0.51893  1.0000
  C   C696      1.0  0.76331  0.08818  0.47308  1.0000
  H   H1202     1.0  0.84237  0.24040  0.32094  1.0000
  C   C697      1.0  0.79702  0.01891  0.69249  1.0000
  C   C698      1.0  0.79819  0.01896  0.65485  1.0000
  H   H1203     1.0  0.76416  0.13420  0.83813  1.0000
  C   C699      1.0  0.78218  0.03197  0.54169  1.0000
  H   H1204     1.0  0.78956  0.02449  0.46262  1.0000
  H   H1205     1.0  0.75391  0.00556  0.38317  1.0000
  H   H1206     1.0  0.88874  0.23986  0.38922  1.0000
  C   C700      1.0  0.89551  0.25099  0.73524  1.0000
  C   C701      1.0  0.97135  0.18204  0.66495  1.0000
  C   C702      1.0  0.96715  0.19832  0.67911  1.0000
  C   C703      1.0  0.97983  0.20780  0.68484  1.0000
  H   H1207     1.0  0.93719  0.21906  0.24934  1.0000
  H   H1208     1.0  0.83890  0.16208  0.24075  1.0000
  C   C704      1.0  0.98848  0.17516  0.65740  1.0000
  H   H1209     1.0  0.95414  0.20359  0.68608  1.0000
  H   H1210     1.0  0.97641  0.22039  0.69563  1.0000
  H   H1211     1.0  0.96606  0.23618  0.58363  1.0000
  H   H1212     1.0  0.76202  0.01630  0.67903  1.0000
  C   C705      1.0  0.86221  0.14958  0.64670  1.0000
  C   C706      1.0  0.86359  0.14501  0.68329  1.0000
  C   C707      1.0  0.85549  0.13202  0.69764  1.0000
  C   C708      1.0  0.84557  0.12366  0.67596  1.0000
  C   C709      1.0  0.84380  0.12857  0.63964  1.0000
  C   C710      1.0  0.85219  0.14130  0.62512  1.0000
  H   H1213     1.0  0.87109  0.15131  0.70041  1.0000
  H   H1214     1.0  0.85696  0.12839  0.72577  1.0000
  H   H1215     1.0  0.83626  0.12231  0.62251  1.0000
  H   H1216     1.0  0.85096  0.14468  0.59683  1.0000
  C   C711      1.0  0.79824  0.01311  0.33311  1.0000
  C   C712      1.0  0.78184  0.01775  0.31983  1.0000
  H   H1217     1.0  0.94974  0.17892  0.57692  1.0000
  S   S227      1.0  0.89339  0.22437  0.24366  1.0000
  C   C713      1.0  0.87422  0.21834  0.48774  1.0000
  C   C714      1.0  0.95856  0.21105  0.58000  1.0000
  H   H1218     1.0  0.77694  0.03082  0.31254  1.0000
  H   H1219     1.0  0.91161  0.24174  0.29359  1.0000
  C   C715      1.0  0.84398  0.14509  0.48537  1.0000
  H   H1220     1.0  0.79052  0.15719  0.74794  1.0000
  H   H1221     1.0  0.80558  0.08014  0.49408  1.0000
  C   C716      1.0  0.95539  0.23308  0.27052  1.0000
  S   S228      1.0  0.91292  0.22378  0.55176  1.0000
  H   H1222     1.0  0.83595  0.14422  0.50988  1.0000
  H   H1223     1.0  0.90528  0.15110  0.44301  1.0000
  Fe  Fe117     1.0  0.89761  0.20615  0.29198  1.0000
  C   C717      1.0  0.96771  0.19056  0.34458  1.0000
  C   C718      1.0  0.96954  0.18878  0.30723  1.0000
  C   C719      1.0  0.98443  0.19177  0.28937  1.0000
  H   H1224     1.0  0.98192  0.22423  0.53461  1.0000
  H   H1225     1.0  0.80938  0.14395  0.79051  1.0000
  C   C720      1.0  0.98086  0.19540  0.36375  1.0000
  H   H1226     1.0  0.95962  0.18481  0.29223  1.0000
  H   H1227     1.0  0.98583  0.19011  0.26058  1.0000
  H   H1228     1.0  0.82754  0.10934  0.80650  1.0000
  H   H1229     1.0  0.97965  0.19665  0.39265  1.0000
  C   C721      1.0  0.88227  0.21581  0.45390  1.0000
  C   C722      1.0  0.89972  0.21531  0.45055  1.0000
  C   C723      1.0  0.90901  0.21789  0.48072  1.0000
  C   C724      1.0  0.78004  0.13413  0.76152  1.0000
  Fe  Fe118     1.0  0.77400  0.08550  0.30458  1.0000
  H   H1230     1.0  0.89390  0.14262  0.40817  1.0000
  H   H1231     1.0  0.90607  0.21321  0.42462  1.0000
  H   H1232     1.0  0.92242  0.21795  0.47774  1.0000
  H   H1233     1.0  0.83547  0.10376  0.20102  1.0000
  S   S229      1.0  0.88299  0.21182  0.63733  1.0000
  C   C725      1.0  0.86607  0.13762  0.32682  1.0000
  C   C726      1.0  0.86534  0.12047  0.32069  1.0000
  C   C727      1.0  0.85061  0.11380  0.32947  1.0000
  C   C728      1.0  0.83633  0.12422  0.34465  1.0000
  C   C729      1.0  0.83705  0.14138  0.35073  1.0000
  C   C730      1.0  0.85173  0.14807  0.34167  1.0000
  H   H1234     1.0  0.87631  0.11224  0.30915  1.0000
  H   H1235     1.0  0.85036  0.10058  0.32463  1.0000
  H   H1236     1.0  0.82609  0.14962  0.36223  1.0000
  H   H1237     1.0  0.85194  0.16132  0.34605  1.0000
  C   C731      1.0  0.95452  0.23065  0.58078  1.0000
  H   H1238     1.0  0.75502  0.05088  0.78403  1.0000
  C   C732      1.0  0.97868  0.24448  0.29564  1.0000
  H   H1239     1.0  0.98708  0.22052  0.24608  1.0000
  S   S230      1.0  0.75802  0.07760  0.43532  1.0000
  C   C733      1.0  0.99691  0.20108  0.67709  1.0000
  H   H1240     1.0  0.79941  0.02975  0.70699  1.0000
  H   H1241     1.0  0.85775  0.22977  0.28978  1.0000
  H   H1242     1.0  0.87175  0.23454  0.34515  1.0000
  H   H1243     1.0  0.78023  0.02036  0.55683  1.0000
  H   H1244     1.0  0.80748  0.10922  0.17215  1.0000
  H   H1245     1.0  0.77511  0.12447  0.74587  1.0000
  H   H1246     1.0  0.75972  0.02257  0.40735  1.0000
  H   H1247     1.0  0.93279  0.24181  0.79029  1.0000
  H   H1248     1.0  0.99188  0.16251  0.64667  1.0000
  H   H1249     1.0  0.77354  0.03353  0.51855  1.0000
  C   C734      1.0  0.76179  0.00852  0.40540  1.0000
  H   H1250     1.0  0.79647  0.00440  0.60745  1.0000
  H   H1251     1.0  0.80089  0.10560  0.74994  1.0000
  H   H1252     1.0  0.76859  0.14167  0.77447  1.0000
  C   C735      1.0  0.88830  0.17163  0.50548  1.0000
  Fe  Fe119     1.0  0.90035  0.21263  0.68410  1.0000
  H   H1253     1.0  0.82521  0.07224  0.51691  1.0000
  C   C736      1.0  0.77177  0.00541  0.31526  1.0000
  C   C737      1.0  0.97395  0.18444  0.55489  1.0000
  C   C738      1.0  0.79536  0.00463  0.63647  1.0000
  H   H1254     1.0  0.97381  0.24978  0.71767  1.0000
  H   H1255     1.0  0.95295  0.17494  0.52927  1.0000
  C   C739      1.0  0.78883  0.15210  0.82883  1.0000
  N   N48       1.0  0.81505  0.12946  0.24098  1.0000
  C   C740      1.0  0.83008  0.13807  0.24550  1.0000
  C   C741      1.0  0.82071  0.11096  0.25118  1.0000
  C   C742      1.0  0.80126  0.13754  0.26687  1.0000
  C   C743      1.0  0.80929  0.13206  0.20250  1.0000
  C   C744      1.0  0.82659  0.15763  0.24154  1.0000
  C   C745      1.0  0.83644  0.10153  0.23050  1.0000
  H   H1256     1.0  0.79712  0.13992  0.71694  1.0000
  N   N49       1.0  0.96901  0.20335  0.54819  1.0000
  H   H1257     1.0  0.83579  0.13492  0.27236  1.0000
  H   H1258     1.0  0.84038  0.13340  0.22558  1.0000
  C   C746      1.0  0.76604  0.12129  0.82707  1.0000
  H   H1259     1.0  0.82360  0.10956  0.28035  1.0000
  H   H1260     1.0  0.80637  0.13751  0.29448  1.0000
  H   H1261     1.0  0.79665  0.15113  0.25955  1.0000
  H   H1262     1.0  0.80158  0.14503  0.19850  1.0000
  H   H1263     1.0  0.82052  0.13140  0.18400  1.0000
  H   H1264     1.0  0.77615  0.15190  0.71607  1.0000
  H   H1265     1.0  0.98602  0.23185  0.30420  1.0000
  H   H1266     1.0  0.96939  0.18479  0.48198  1.0000
  H   H1267     1.0  0.84823  0.10516  0.24017  1.0000
  H   H1268     1.0  0.79512  0.16325  0.83097  1.0000
  C   C747      1.0  0.78660  0.14640  0.73437  1.0000
  H   H1269     1.0  0.76591  0.03281  0.73166  1.0000
  C   C748      1.0  0.79319  0.00460  0.71147  1.0000
  N   N50       1.0  0.96925  0.24300  0.26146  1.0000
  H   H1270     1.0  0.78791  0.11592  0.27685  1.0000
  N   N51       1.0  0.91933  0.12655  0.66697  1.0000
  C   C749      1.0  0.90469  0.11916  0.65347  1.0000
  C   C750      1.0  0.92198  0.14041  0.64050  1.0000
  C   C751      1.0  0.91408  0.13440  0.70299  1.0000
  C   C752      1.0  0.93466  0.11248  0.67026  1.0000
  C   C753      1.0  0.89811  0.10610  0.67856  1.0000
  C   C754      1.0  0.92594  0.13480  0.60128  1.0000
  C   C755      1.0  0.92731  0.14248  0.72222  1.0000
  C   C756      1.0  0.95230  0.11773  0.66878  1.0000
  H   H1271     1.0  0.89369  0.12943  0.64739  1.0000
  H   H1272     1.0  0.90812  0.11259  0.62752  1.0000
  H   H1273     1.0  0.93218  0.14699  0.64852  1.0000
  H   H1274     1.0  0.91045  0.15060  0.63998  1.0000
  H   H1275     1.0  0.90239  0.14434  0.70025  1.0000
  H   H1276     1.0  0.91083  0.12480  0.72263  1.0000
  H   H1277     1.0  0.93380  0.10501  0.69568  1.0000
  H   H1278     1.0  0.93491  0.10329  0.64809  1.0000
  H   H1279     1.0  0.89080  0.11231  0.70191  1.0000
  H   H1280     1.0  0.88907  0.10006  0.66356  1.0000
  H   H1281     1.0  0.90843  0.09585  0.68793  1.0000
  H   H1282     1.0  0.93571  0.12308  0.59938  1.0000
  H   H1283     1.0  0.91425  0.13296  0.58773  1.0000
  H   H1284     1.0  0.93080  0.14503  0.58599  1.0000
  H   H1285     1.0  0.93809  0.13269  0.73148  1.0000
  H   H1286     1.0  0.92129  0.14890  0.74674  1.0000
  H   H1287     1.0  0.93200  0.15238  0.70572  1.0000
  H   H1288     1.0  0.96085  0.10938  0.68757  1.0000
  H   H1289     1.0  0.95252  0.13092  0.67648  1.0000
  H   H1290     1.0  0.95832  0.11543  0.64168  1.0000
  N   N52       1.0  0.80599  0.04461  0.50936  1.0000
  C   C757      1.0  0.80101  0.02977  0.52979  1.0000
  C   C758      1.0  0.82406  0.03954  0.49604  1.0000
  C   C759      1.0  0.79478  0.04968  0.47742  1.0000
  C   C760      1.0  0.80404  0.05951  0.53424  1.0000
  Fe  Fe120     1.0  0.77896  0.08939  0.69953  1.0000
  C   C761      1.0  0.83754  0.03537  0.52552  1.0000
  C   C762      1.0  0.79401  0.03559  0.45016  1.0000
  C   C763      1.0  0.81121  0.07504  0.51990  1.0000
  H   H1291     1.0  0.80428  0.01790  0.51410  1.0000
  H   H1292     1.0  0.80839  0.02703  0.55490  1.0000
  H   H1293     1.0  0.82766  0.04956  0.47776  1.0000
  H   H1294     1.0  0.82556  0.02799  0.47933  1.0000
  H   H1295     1.0  0.78159  0.05495  0.48631  1.0000
  H   H1296     1.0  0.79890  0.06017  0.46168  1.0000
  H   H1297     1.0  0.79045  0.06431  0.54089  1.0000
  H   H1298     1.0  0.80996  0.05563  0.56067  1.0000
  H   H1299     1.0  0.81425  0.09327  0.80841  1.0000
  H   H1300     1.0  0.96445  0.16088  0.56188  1.0000
  C   C764      1.0  0.86831  0.24559  0.32633  1.0000
  H   H1301     1.0  0.99342  0.24443  0.76710  1.0000
  H   H1302     1.0  0.94434  0.24135  0.28359  1.0000
  H   H1303     1.0  0.97809  0.20365  0.47124  1.0000
  H   H1304     1.0  0.80634  0.03145  0.43593  1.0000
  H   H1305     1.0  0.78478  0.04086  0.42905  1.0000
  H   H1306     1.0  0.94448  0.23258  0.21622  1.0000
  H   H1307     1.0  0.95982  0.22286  0.29081  1.0000
  H   H1308     1.0  0.84910  0.16950  0.49993  1.0000
  C   C765      1.0  0.78520  0.12967  0.26997  1.0000
  C   C766      1.0  0.94851  0.22406  0.23944  1.0000
  H   H1309     1.0  0.86072  0.21869  0.49047  1.0000
  H   H1310     1.0  0.83554  0.17250  0.41200  1.0000
  C   C767      1.0  0.85663  0.15683  0.49288  1.0000
  H   H1311     1.0  0.84276  0.18312  0.44868  1.0000
  H   H1312     1.0  0.85043  0.13198  0.47903  1.0000
  H   H1313     1.0  0.89386  0.18324  0.50778  1.0000
  N   N53       1.0  0.86956  0.15822  0.46330  1.0000
  H   H1314     1.0  0.89907  0.16073  0.50513  1.0000
  H   H1315     1.0  0.90626  0.12880  0.43962  1.0000
  C   C768      1.0  0.81988  0.10211  0.79063  1.0000
  C   C769      1.0  0.88230  0.14178  0.46269  1.0000
  H   H1316     1.0  0.88026  0.17089  0.52995  1.0000
  S   S231      1.0  0.77517  0.10294  0.35056  1.0000
  H   H1317     1.0  0.77707  0.13585  0.29234  1.0000
  H   H1318     1.0  0.87105  0.16285  0.40575  1.0000
  H   H1319     1.0  0.85683  0.14950  0.41846  1.0000
  H   H1320     1.0  0.87618  0.13110  0.45476  1.0000
  H   H1321     1.0  0.79215  0.11159  0.83951  1.0000
  S   S232      1.0  0.92326  0.21393  0.64949  1.0000
  C   C770      1.0  0.90104  0.22021  0.51465  1.0000
  C   C771      1.0  0.87790  0.17310  0.47074  1.0000
  C   C772      1.0  0.77294  0.10094  0.46914  1.0000
  H   H1322     1.0  0.86303  0.15204  0.51839  1.0000
  C   C773      1.0  0.86147  0.16104  0.42692  1.0000
  H   H1323     1.0  0.88728  0.13818  0.49006  1.0000
  H   H1324     1.0  0.85060  0.18611  0.40414  1.0000
  C   C774      1.0  0.79907  0.11917  0.18789  1.0000
  C   C775      1.0  0.84681  0.17655  0.42324  1.0000
  H   H1325     1.0  0.86824  0.18497  0.47294  1.0000
  Fe  Fe121     1.0  0.78576  0.09854  0.62115  1.0000
  H   H1326     1.0  0.83526  0.15022  0.46337  1.0000
  C   C776      1.0  0.77717  0.10919  0.49961  1.0000
  H   H1327     1.0  0.94611  0.20687  0.58133  1.0000
  C   C777      1.0  0.88367  0.22021  0.51826  1.0000
  H   H1328     1.0  0.79258  0.00457  0.74059  1.0000
  H   H1329     1.0  0.78426  0.10189  0.80291  1.0000
  H   H1330     1.0  0.81993  0.16214  0.21635  1.0000
  H   H1331     1.0  0.82888  0.09409  0.77199  1.0000
  H   H1332     1.0  0.77849  0.04273  0.56030  1.0000
  C   C778      1.0  0.99560  0.19866  0.34583  1.0000
  C   C779      1.0  0.78451  0.11449  0.81475  1.0000
  C   C780      1.0  0.98495  0.21061  0.54325  1.0000
  C   C781      1.0  0.98183  0.23339  0.23501  1.0000
  Fe  Fe122     1.0  0.77452  0.08024  0.38640  1.0000
  S   S233      1.0  0.77804  0.11466  0.57177  1.0000
  C   C782      1.0  0.77236  0.10424  0.53416  1.0000
  H   H1333     1.0  0.78441  0.11925  0.49646  1.0000
  C   C783      1.0  0.80648  0.11393  0.76795  1.0000
  H   H1334     1.0  0.93715  0.24381  0.73217  1.0000
  C   C784      1.0  0.90034  0.24414  0.24138  1.0000
  H   H1335     1.0  0.83750  0.04609  0.54387  1.0000
  C   C785      1.0  0.80081  0.13794  0.80853  1.0000
  H   H1336     1.0  0.76243  0.11273  0.84862  1.0000
  H   H1337     1.0  0.80952  0.13121  0.82924  1.0000
  C   C786      1.0  0.75816  0.08347  0.50757  1.0000
  N   N54       1.0  0.79268  0.12547  0.78867  1.0000
  H   H1338     1.0  0.95404  0.23951  0.80772  1.0000
  H   H1339     1.0  0.93637  0.25166  0.83104  1.0000
  S   S234      1.0  0.77336  0.07831  0.64716  1.0000
  H   H1340     1.0  0.87745  0.22209  0.54441  1.0000
  H   H1341     1.0  0.81939  0.16369  0.26519  1.0000
  C   C787      1.0  0.95927  0.17446  0.55557  1.0000
  S   S235      1.0  0.77076  0.06364  0.34094  1.0000
  H   H1342     1.0  0.83770  0.08764  0.23577  1.0000
  H   H1343     1.0  0.81373  0.12142  0.75008  1.0000
  H   H1344     1.0  0.81060  0.10352  0.24774  1.0000
  S   S236      1.0  0.76287  0.09237  0.75105  1.0000
  S   S237      1.0  0.89664  0.22868  0.73447  1.0000
  H   H1345     1.0  0.95582  0.22115  0.50884  1.0000
  C   C788      1.0  0.99749  0.19683  0.30853  1.0000
  H   H1346     1.0  0.75711  0.12105  0.80476  1.0000
  H   H1347     1.0  0.95074  0.24094  0.67720  1.0000
  H   H1348     1.0  0.95730  0.20215  0.45774  1.0000
  H   H1349     1.0  0.78967  0.12585  0.16844  1.0000
  H   H1350     1.0  0.95796  0.21290  0.23044  1.0000
  H   H1351     1.0  0.96477  0.20646  0.60571  1.0000
  H   H1352     1.0  0.94748  0.23629  0.55678  1.0000
  H   H1353     1.0  0.97581  0.23086  0.20970  1.0000
  H   H1354     1.0  0.78584  0.14771  0.85640  1.0000
  C   C789      1.0  0.76292  0.09130  0.53815  1.0000
  H   H1355     1.0  0.98994  0.21551  0.60036  1.0000
  H   H1356     1.0  0.77693  0.15706  0.81467  1.0000
  C   C790      1.0  0.96651  0.19885  0.47985  1.0000
  H   H1357     1.0  0.83605  0.02388  0.54158  1.0000
  H   H1358     1.0  0.94619  0.23462  0.60455  1.0000
  C   C791      1.0  0.99647  0.20916  0.57636  1.0000
  H   H1359     1.0  0.89043  0.25048  0.18836  1.0000
  H   H1360     1.0  0.79179  0.11305  0.20817  1.0000
  H   H1361     1.0  0.98359  0.17852  0.53469  1.0000
  H   H1362     1.0  0.77751  0.13217  0.24538  1.0000
  H   H1363     1.0  0.96606  0.23735  0.75164  1.0000
  S   S238      1.0  0.75687  0.09589  0.25810  1.0000
  C   C792      1.0  0.99701  0.24183  0.22424  1.0000
  H   H1364     1.0  0.87942  0.24490  0.30769  1.0000
  H   H1365     1.0  0.75905  0.00925  0.30526  1.0000
  H   H1366     1.0  0.75903  0.08758  0.56475  1.0000
  H   H1367     1.0  0.75972  0.00457  0.74052  1.0000
  H   H1368     1.0  0.75882  0.04607  0.66391  1.0000
  C   C793      1.0  0.94184  0.24838  0.80378  1.0000
  C   C794      1.0  0.90877  0.24974  0.26993  1.0000
  H   H1369     1.0  0.77540  0.00423  0.39839  1.0000
  H   H1370     1.0  0.75349  0.02925  0.79226  1.0000
  H   H1371     1.0  0.95901  0.24310  0.33779  1.0000
  H   H1372     1.0  0.85622  0.24896  0.39343  1.0000
  C   C795      1.0  0.96769  0.25165  0.32845  1.0000
  C   C796      1.0  0.96808  0.25048  0.74532  1.0000
  H   H1373     1.0  0.89902  0.25093  0.79259  1.0000
  H   H1374     1.0  0.76483  0.00486  0.46275  1.0000
  H   H1375     1.0  0.84973  0.25167  0.28247  1.0000
  H   H1376     1.0  0.98825  0.25277  0.29137  1.0000
  C   C797      1.0  0.00126  0.18466  0.66343  1.0000
  C   C798      1.0  0.75201  0.03752  0.73509  1.0000
  H   H1377     1.0  0.97618  0.25255  0.35123  1.0000
  H   H1378     1.0  0.88351  0.41800  0.36615  1.0000
  H   H1379     1.0  0.85116  0.37223  0.75562  1.0000
  Fe  Fe123     1.0  0.91610  0.35557  0.19297  1.0000
  S   S239      1.0  0.92446  0.35608  0.13494  1.0000
  S   S240      1.0  0.91648  0.37540  0.23614  1.0000
  Fe  Fe124     1.0  0.91568  0.31671  0.19213  1.0000
  S   S241      1.0  0.92408  0.31435  0.13367  1.0000
  S   S242      1.0  0.91664  0.29626  0.23660  1.0000
  Fe  Fe125     1.0  0.94194  0.33152  0.14706  1.0000
  S   S243      1.0  0.96904  0.32713  0.12789  1.0000
  Fe  Fe126     1.0  0.90581  0.33911  0.12494  1.0000
  S   S244      1.0  0.89074  0.34681  0.07406  1.0000
  S   S245      1.0  0.93529  0.33210  0.20542  1.0000
  S   S246      1.0  0.89575  0.34037  0.18286  1.0000
  Fe  Fe127     1.0  0.90846  0.35736  0.80522  1.0000
  S   S247      1.0  0.92938  0.34720  0.84346  1.0000
  S   S248      1.0  0.89933  0.38591  0.79748  1.0000
  Fe  Fe128     1.0  0.90378  0.32173  0.78429  1.0000
  S   S249      1.0  0.92417  0.30879  0.82089  1.0000
  S   S250      1.0  0.89117  0.30907  0.74094  1.0000
  Fe  Fe129     1.0  0.91327  0.32843  0.86209  1.0000
  S   S251      1.0  0.91534  0.31746  0.91939  1.0000
  Fe  Fe130     1.0  0.93870  0.32827  0.80046  1.0000
  S   S252      1.0  0.96559  0.32028  0.78124  1.0000
  S   S253      1.0  0.89128  0.33990  0.82686  1.0000
  S   S254      1.0  0.91937  0.34005  0.76080  1.0000
  H   H1380     1.0  0.96361  0.27905  0.70958  1.0000
  C   C799      1.0  0.93926  0.25651  0.72250  1.0000
  H   H1381     1.0  0.93294  0.25736  0.66561  1.0000
  C   C800      1.0  0.97894  0.32368  0.81573  1.0000
  C   C801      1.0  0.99590  0.32444  0.80800  1.0000
  C   C802      1.0  0.97904  0.45895  0.69783  1.0000
  C   C803      1.0  0.99661  0.49451  0.36518  1.0000
  C   C804      1.0  0.98205  0.33293  0.87640  1.0000
  C   C805      1.0  0.97229  0.32713  0.85044  1.0000
  H   H1382     1.0  0.88754  0.45178  0.30102  1.0000
  H   H1383     1.0  0.99407  0.29395  0.15846  1.0000
  H   H1384     1.0  0.97662  0.33645  0.90254  1.0000
  H   H1385     1.0  0.95955  0.32552  0.85719  1.0000
  C   C806      1.0  0.89330  0.28665  0.73922  1.0000
  C   C807      1.0  0.89159  0.27898  0.70615  1.0000
  H   H1386     1.0  0.83646  0.28505  0.39128  1.0000
  H   H1387     1.0  0.93130  0.27320  0.78349  1.0000
  C   C808      1.0  0.93055  0.49209  0.16822  1.0000
  C   C809      1.0  0.89624  0.27639  0.77023  1.0000
  H   H1388     1.0  0.88922  0.28681  0.68204  1.0000
  H   H1389     1.0  0.98740  0.33502  0.25857  1.0000
  C   C810      1.0  0.98823  0.47718  0.46974  1.0000
  H   H1390     1.0  0.89736  0.28213  0.79593  1.0000
  C   C811      1.0  0.97657  0.34581  0.13578  1.0000
  C   C812      1.0  0.96721  0.35833  0.15768  1.0000
  C   C813      1.0  0.97339  0.37312  0.16469  1.0000
  C   C814      1.0  0.98904  0.37532  0.15014  1.0000
  H   H1391     1.0  0.97289  0.31429  0.20090  1.0000
  C   C815      1.0  0.99204  0.34818  0.12051  1.0000
  H   H1392     1.0  0.95541  0.35650  0.17016  1.0000
  H   H1393     1.0  0.96623  0.38262  0.18217  1.0000
  H   H1394     1.0  0.86450  0.43885  0.41509  1.0000
  H   H1395     1.0  0.96039  0.26460  0.32307  1.0000
  C   C816      1.0  0.89823  0.33897  0.03117  1.0000
  C   C817      1.0  0.90860  0.32298  0.02759  1.0000
  C   C818      1.0  0.91334  0.31653  0.99314  1.0000
  C   C819      1.0  0.90834  0.32621  0.96184  1.0000
  C   C820      1.0  0.89826  0.34238  0.96535  1.0000
  C   C821      1.0  0.89305  0.34861  0.99987  1.0000
  H   H1396     1.0  0.91245  0.31530  0.05135  1.0000
  H   H1397     1.0  0.92089  0.30391  0.99074  1.0000
  H   H1398     1.0  0.89420  0.34992  0.94153  1.0000
  H   H1399     1.0  0.88489  0.36093  0.00237  1.0000
  C   C822      1.0  0.91004  0.27637  0.23731  1.0000
  C   C823      1.0  0.91350  0.26578  0.26797  1.0000
  H   H1400     1.0  0.96469  0.32283  0.26409  1.0000
  C   C824      1.0  0.85234  0.26063  0.37642  1.0000
  C   C825      1.0  0.00015  0.47652  0.75007  1.0000
  C   C826      1.0  0.90180  0.27073  0.20851  1.0000
  H   H1401     1.0  0.91987  0.27004  0.29037  1.0000
  H   H1402     1.0  0.88153  0.48683  0.14814  1.0000
  H   H1403     1.0  0.93220  0.38375  0.83225  1.0000
  H   H1404     1.0  0.89913  0.27872  0.18468  1.0000
  C   C827      1.0  0.88414  0.42522  0.34040  1.0000
  H   H1405     1.0  0.97603  0.40278  0.78035  1.0000
  S   S255      1.0  0.93085  0.47882  0.68258  1.0000
  C   C828      1.0  0.86857  0.49798  0.45208  1.0000
  C   C829      1.0  0.91527  0.41967  0.70561  1.0000
  C   C830      1.0  0.90471  0.42679  0.73394  1.0000
  C   C831      1.0  0.89992  0.41627  0.76177  1.0000
  C   C832      1.0  0.90568  0.39856  0.76175  1.0000
  C   C833      1.0  0.91620  0.39141  0.73338  1.0000
  C   C834      1.0  0.92090  0.40192  0.70544  1.0000
  H   H1406     1.0  0.90027  0.44040  0.73443  1.0000
  H   H1407     1.0  0.89174  0.42191  0.78355  1.0000
  H   H1408     1.0  0.92074  0.37783  0.73295  1.0000
  H   H1409     1.0  0.92907  0.39629  0.68363  1.0000
  C   C835      1.0  0.89914  0.49029  0.45155  1.0000
  H   H1410     1.0  0.98200  0.42573  0.71956  1.0000
  Fe  Fe131     1.0  0.90103  0.48792  0.60061  1.0000
  C   C836      1.0  0.99041  0.48092  0.35093  1.0000
  C   C837      1.0  0.90644  0.43384  0.22897  1.0000
  C   C838      1.0  0.90085  0.42452  0.20159  1.0000
  C   C839      1.0  0.90440  0.40659  0.20254  1.0000
  C   C840      1.0  0.91339  0.39784  0.23119  1.0000
  C   C841      1.0  0.91916  0.40720  0.25830  1.0000
  C   C842      1.0  0.91582  0.42511  0.25710  1.0000
  H   H1411     1.0  0.89359  0.43115  0.17971  1.0000
  H   H1412     1.0  0.89982  0.39952  0.18163  1.0000
  H   H1413     1.0  0.92611  0.40053  0.28056  1.0000
  H   H1414     1.0  0.92028  0.43210  0.27825  1.0000
  H   H1415     1.0  0.86900  0.40920  0.31231  1.0000
  H   H1416     1.0  0.97587  0.30241  0.28099  1.0000
  C   C843      1.0  0.94407  0.26494  0.78376  1.0000
  C   C844      1.0  0.84011  0.45283  0.35999  1.0000
  N   N55       1.0  0.99799  0.45397  0.70187  1.0000
  C   C845      1.0  0.99864  0.33481  0.86800  1.0000
  H   H1417     1.0  0.84953  0.43450  0.31890  1.0000
  H   H1418     1.0  0.99108  0.34854  0.02909  1.0000
  H   H1419     1.0  0.88400  0.41763  0.28325  1.0000
  C   C846      1.0  0.96335  0.49065  0.38084  1.0000
  C   C847      1.0  0.96819  0.41859  0.25904  1.0000
  C   C848      1.0  0.93878  0.29332  0.72304  1.0000
  C   C849      1.0  0.98574  0.37723  0.82015  1.0000
  H   H1420     1.0  0.97568  0.40575  0.26473  1.0000
  H   H1421     1.0  0.91026  0.47750  0.16563  1.0000
  C   C850      1.0  0.85806  0.27692  0.32258  1.0000
  H   H1422     1.0  0.99020  0.46742  0.63064  1.0000
  H   H1423     1.0  0.96639  0.30017  0.99567  1.0000
  H   H1424     1.0  0.84509  0.27171  0.42892  1.0000
  Fe  Fe132     1.0  0.93888  0.47710  0.31861  1.0000
  C   C851      1.0  0.97773  0.43288  0.26863  1.0000
  H   H1425     1.0  0.86630  0.47799  0.32118  1.0000
  H   H1426     1.0  0.85398  0.42728  0.36384  1.0000
  H   H1427     1.0  0.83726  0.45035  0.38881  1.0000
  H   H1428     1.0  0.93720  0.40577  0.78693  1.0000
  C   C852      1.0  0.87622  0.44389  0.40936  1.0000
  H   H1429     1.0  0.99491  0.36570  0.00138  1.0000
  H   H1430     1.0  0.93420  0.49631  0.14114  1.0000
  C   C853      1.0  0.97070  0.36662  0.75566  1.0000
  C   C854      1.0  0.88180  0.50000  0.15666  1.0000
  H   H1431     1.0  0.88749  0.43368  0.41339  1.0000
  Fe  Fe133     1.0  0.90732  0.49902  0.67690  1.0000
  H   H1432     1.0  0.97582  0.47135  0.68309  1.0000
  H   H1433     1.0  0.98537  0.42579  0.19793  1.0000
  H   H1434     1.0  0.97490  0.45752  0.75803  1.0000
  C   C855      1.0  0.85396  0.43836  0.34511  1.0000
  C   C856      1.0  0.89290  0.26121  0.70406  1.0000
  H   H1435     1.0  0.95782  0.30377  0.25309  1.0000
  H   H1436     1.0  0.84282  0.46580  0.35692  1.0000
  H   H1437     1.0  0.84515  0.27610  0.31343  1.0000
  H   H1438     1.0  0.92643  0.26457  0.72436  1.0000
  C   C857      1.0  0.89715  0.25869  0.76828  1.0000
  H   H1439     1.0  0.84993  0.46911  0.29896  1.0000
  H   H1440     1.0  0.88141  0.49134  0.21332  1.0000
  H   H1441     1.0  0.82810  0.45288  0.34570  1.0000
  C   C858      1.0  0.87397  0.45100  0.30558  1.0000
  H   H1442     1.0  0.89153  0.25546  0.67850  1.0000
  H   H1443     1.0  0.94250  0.30582  0.71747  1.0000
  C   C859      1.0  0.88176  0.26471  0.36134  1.0000
  H   H1444     1.0  0.96092  0.35885  0.80623  1.0000
  Fe  Fe134     1.0  0.90309  0.49104  0.34103  1.0000
  H   H1445     1.0  0.88123  0.27817  0.36882  1.0000
  H   H1446     1.0  0.95845  0.45215  0.73154  1.0000
  C   C860      1.0  0.98051  0.30730  0.22308  1.0000
  H   H1447     1.0  0.97790  0.25409  0.79922  1.0000
  C   C861      1.0  0.88169  0.41274  0.31069  1.0000
  C   C862      1.0  0.95825  0.38393  0.85075  1.0000
  C   C863      1.0  0.96797  0.46055  0.73275  1.0000
  C   C864      1.0  0.87435  0.50130  0.19536  1.0000
  H   H1448     1.0  0.99946  0.34436  0.98419  1.0000
  H   H1449     1.0  0.99311  0.37726  0.79439  1.0000
  H   H1450     1.0  0.95645  0.41985  0.27599  1.0000
  S   S256      1.0  0.89221  0.48027  0.65584  1.0000
  H   H1451     1.0  0.93853  0.47932  0.17267  1.0000
  H   H1452     1.0  0.93287  0.28977  0.69836  1.0000
  N   N56       1.0  0.87170  0.44194  0.34092  1.0000
  H   H1453     1.0  0.87122  0.26842  0.27120  1.0000
  C   C865      1.0  0.87651  0.45211  0.37145  1.0000
  Fe  Fe135     1.0  0.91042  0.47200  0.27038  1.0000
  C   C866      1.0  0.93893  0.39028  0.85152  1.0000
  C   C867      1.0  0.96483  0.40133  0.79758  1.0000
  H   H1454     1.0  0.86837  0.46483  0.37320  1.0000
  H   H1455     1.0  0.89743  0.42744  0.33776  1.0000
  C   C868      1.0  0.86368  0.46911  0.30053  1.0000
  C   C869      1.0  0.99467  0.46505  0.25391  1.0000
  H   H1456     1.0  0.86505  0.34995  0.62913  1.0000
  H   H1457     1.0  0.87693  0.45369  0.42974  1.0000
  C   C870      1.0  0.86261  0.36331  0.76435  1.0000
  H   H1458     1.0  0.99689  0.47691  0.44596  1.0000
  H   H1459     1.0  0.95128  0.26671  0.26637  1.0000
  H   H1460     1.0  0.88060  0.25715  0.41878  1.0000
  H   H1461     1.0  0.95062  0.40002  0.74793  1.0000
  N   N57       1.0  0.96108  0.34457  0.99979  1.0000
  C   C871      1.0  0.94396  0.34942  0.98266  1.0000
  C   C872      1.0  0.95851  0.34604  0.04008  1.0000
  C   C873      1.0  0.96934  0.32657  0.99130  1.0000
  C   C874      1.0  0.97244  0.35624  0.98530  1.0000
  C   C875      1.0  0.94360  0.34741  0.94148  1.0000
  C   C876      1.0  0.95468  0.36428  0.05460  1.0000
  C   C877      1.0  0.95847  0.31297  0.99955  1.0000
  C   C878      1.0  0.99045  0.35339  0.00095  1.0000
  H   H1462     1.0  0.93479  0.34202  0.99500  1.0000
  H   H1463     1.0  0.93828  0.36291  0.98802  1.0000
  H   H1464     1.0  0.96967  0.33899  0.05467  1.0000
  H   H1465     1.0  0.94783  0.33987  0.04963  1.0000
  H   H1466     1.0  0.97345  0.32541  0.96251  1.0000
  H   H1467     1.0  0.98125  0.32272  0.00664  1.0000
  H   H1468     1.0  0.97449  0.35473  0.95576  1.0000
  H   H1469     1.0  0.96638  0.36986  0.98790  1.0000
  H   H1470     1.0  0.93024  0.35072  0.93271  1.0000
  H   H1471     1.0  0.95056  0.35621  0.92671  1.0000
  H   H1472     1.0  0.94838  0.33416  0.93307  1.0000
  H   H1473     1.0  0.95183  0.36368  0.08393  1.0000
  H   H1474     1.0  0.96580  0.37061  0.05155  1.0000
  H   H1475     1.0  0.94345  0.37218  0.04197  1.0000
  C   C879      1.0  0.94931  0.40705  0.77350  1.0000
  H   H1476     1.0  0.99878  0.40771  0.30690  1.0000
  H   H1477     1.0  0.98097  0.46823  0.26097  1.0000
  H   H1478     1.0  0.98800  0.36377  0.82973  1.0000
  H   H1479     1.0  0.90927  0.48757  0.06506  1.0000
  H   H1480     1.0  0.96307  0.36027  0.73763  1.0000
  H   H1481     1.0  0.97425  0.44983  0.68034  1.0000
  H   H1482     1.0  0.92921  0.29519  0.74521  1.0000
  H   H1483     1.0  0.96420  0.41104  0.81879  1.0000
  H   H1484     1.0  0.94784  0.31411  0.98065  1.0000
  C   C880      1.0  0.95446  0.26275  0.21006  1.0000
  H   H1485     1.0  0.86114  0.49901  0.19497  1.0000
  H   H1486     1.0  0.99846  0.47205  0.33359  1.0000
  H   H1487     1.0  0.95053  0.48907  0.38721  1.0000
  C   C881      1.0  0.95469  0.28017  0.73314  1.0000
  C   C882      1.0  0.97361  0.47933  0.35780  1.0000
  H   H1488     1.0  0.89117  0.40080  0.31416  1.0000
  C   C883      1.0  0.84780  0.27613  0.40119  1.0000
  H   H1489     1.0  0.98215  0.29378  0.21568  1.0000
  H   H1490     1.0  0.88947  0.45480  0.36682  1.0000
  H   H1491     1.0  0.99107  0.40122  0.84211  1.0000
  H   H1492     1.0  0.85627  0.50091  0.50415  1.0000
  S   S257      1.0  0.92425  0.46745  0.60020  1.0000
  H   H1493     1.0  0.90868  0.49147  0.20137  1.0000
  H   H1494     1.0  0.95301  0.26279  0.67257  1.0000
  C   C884      1.0  0.86830  0.49789  0.48979  1.0000
  H   H1495     1.0  0.97373  0.37799  0.74132  1.0000
  H   H1496     1.0  0.94835  0.42070  0.76600  1.0000
  C   C885      1.0  0.88837  0.25347  0.39413  1.0000
  Fe  Fe136     1.0  0.93666  0.48684  0.62607  1.0000
  C   C886      1.0  0.96930  0.30928  0.25758  1.0000
  N   N58       1.0  0.99431  0.43295  0.24874  1.0000
  N   N59       1.0  0.86511  0.26201  0.34668  1.0000
  C   C887      1.0  0.91165  0.49069  0.17202  1.0000
  H   H1497     1.0  0.96120  0.28616  0.75411  1.0000
  H   H1498     1.0  0.97110  0.26941  0.24988  1.0000
  H   H1499     1.0  0.87053  0.44381  0.28252  1.0000
  H   H1500     1.0  0.86345  0.40801  0.69907  1.0000
  H   H1501     1.0  0.96078  0.37095  0.86346  1.0000
  H   H1502     1.0  0.89196  0.26238  0.34019  1.0000
  Fe  Fe137     1.0  0.91652  0.46083  0.65695  1.0000
  H   H1503     1.0  0.98063  0.44771  0.20525  1.0000
  C   C888      1.0  0.96069  0.37109  0.79116  1.0000
  C   C889      1.0  0.99076  0.43630  0.20935  1.0000
  C   C890      1.0  0.88389  0.49430  0.43256  1.0000
  N   N60       1.0  0.96706  0.38368  0.81438  1.0000
  C   C891      1.0  0.98698  0.49377  0.49060  1.0000
  N   N61       1.0  0.99723  0.31318  0.22537  1.0000
  H   H1504     1.0  0.88980  0.33409  0.65590  1.0000
  H   H1505     1.0  0.85822  0.28328  0.40375  1.0000
  H   H1506     1.0  0.86251  0.29055  0.27294  1.0000
  S   S258      1.0  0.90082  0.45634  0.22801  1.0000
  H   H1507     1.0  0.96325  0.39230  0.86956  1.0000
  H   H1508     1.0  0.84683  0.34207  0.64516  1.0000
  H   H1509     1.0  0.85880  0.35113  0.77276  1.0000
  C   C892      1.0  0.98183  0.25437  0.77045  1.0000
  N   N62       1.0  0.95155  0.26300  0.74611  1.0000
  S   S259      1.0  0.96496  0.46442  0.33449  1.0000
  H   H1510     1.0  0.93383  0.38769  0.87872  1.0000
  H   H1511     1.0  0.93572  0.40423  0.84699  1.0000
  C   C893      1.0  0.99603  0.42312  0.72079  1.0000
  S   S260      1.0  0.91647  0.46460  0.32781  1.0000
  H   H1512     1.0  0.90905  0.34213  0.65351  1.0000
  H   H1513     1.0  0.98263  0.35739  0.76075  1.0000
  H   H1514     1.0  0.94119  0.26074  0.21028  1.0000
  H   H1515     1.0  0.95353  0.31341  0.02769  1.0000
  H   H1516     1.0  0.96199  0.25451  0.18982  1.0000
  C   C894      1.0  0.99325  0.33212  0.23145  1.0000
  C   C895      1.0  0.90744  0.48599  0.09459  1.0000
  C   C896      1.0  0.89728  0.34219  0.66987  1.0000
  H   H1517     1.0  0.89702  0.36808  0.68355  1.0000
  H   H1518     1.0  0.90123  0.33624  0.69618  1.0000
  H   H1519     1.0  0.97953  0.43216  0.29828  1.0000
  H   H1520     1.0  0.00039  0.27958  0.25182  1.0000
  C   C897      1.0  0.88770  0.36070  0.67343  1.0000
  H   H1521     1.0  0.88487  0.36574  0.64563  1.0000
  H   H1522     1.0  0.87089  0.39476  0.73672  1.0000
  H   H1523     1.0  0.96073  0.47377  0.73495  1.0000
  H   H1524     1.0  0.95171  0.27164  0.80118  1.0000
  H   H1525     1.0  0.96876  0.44508  0.26392  1.0000
  H   H1526     1.0  0.95449  0.27591  0.19989  1.0000
  H   H1527     1.0  0.88700  0.36737  0.74273  1.0000
  H   H1528     1.0  0.85628  0.28899  0.33770  1.0000
  H   H1529     1.0  0.94719  0.37543  0.78410  1.0000
  C   C898      1.0  0.87086  0.39535  0.70685  1.0000
  H   H1530     1.0  0.98676  0.48320  0.75048  1.0000
  H   H1531     1.0  0.99293  0.25495  0.21351  1.0000
  S   S261      1.0  0.93418  0.48221  0.26011  1.0000
  H   H1532     1.0  0.88395  0.39484  0.69625  1.0000
  H   H1533     1.0  0.99182  0.46565  0.48690  1.0000
  H   H1534     1.0  0.84882  0.35339  0.70561  1.0000
  N   N63       1.0  0.87189  0.36334  0.69705  1.0000
  C   C899      1.0  0.87707  0.36011  0.73563  1.0000
  H   H1535     1.0  0.88337  0.34665  0.73975  1.0000
  H   H1536     1.0  0.86115  0.38436  0.66176  1.0000
  C   C900      1.0  0.86254  0.38134  0.69106  1.0000
  H   H1537     1.0  0.86709  0.36906  0.78839  1.0000
  C   C901      1.0  0.86045  0.35118  0.68815  1.0000
  H   H1538     1.0  0.84927  0.38313  0.70165  1.0000
  H   H1539     1.0  0.86660  0.33779  0.69444  1.0000
  C   C902      1.0  0.85438  0.35216  0.64895  1.0000
  H   H1540     1.0  0.84599  0.36450  0.64287  1.0000
  S   S262      1.0  0.92208  0.43220  0.67009  1.0000
  H   H1541     1.0  0.96409  0.41951  0.23066  1.0000
  H   H1542     1.0  0.91932  0.47812  0.10477  1.0000
  H   H1543     1.0  0.99604  0.48366  0.55789  1.0000
  H   H1544     1.0  0.85675  0.50109  0.43790  1.0000
  H   H1545     1.0  0.86747  0.47429  0.27421  1.0000
  H   H1546     1.0  0.99923  0.33861  0.10327  1.0000
  C   C903      1.0  0.89693  0.25470  0.21064  1.0000
  C   C904      1.0  0.99435  0.38730  0.84679  1.0000
  S   S263      1.0  0.88137  0.49468  0.55694  1.0000
  C   C905      1.0  0.96184  0.26075  0.24821  1.0000
  C   C906      1.0  0.88334  0.49402  0.50910  1.0000
  H   H1547     1.0  0.99669  0.46770  0.22490  1.0000
  H   H1548     1.0  0.88145  0.28253  0.29667  1.0000
  C   C907      1.0  0.86909  0.27953  0.28910  1.0000
  H   H1549     1.0  0.97622  0.49443  0.51040  1.0000
  H   H1550     1.0  0.90152  0.25499  0.39976  1.0000
  C   C908      1.0  0.94446  0.25428  0.68232  1.0000
  H   H1551     1.0  0.93385  0.50100  0.18819  1.0000
  C   C909      1.0  0.99824  0.36296  0.12764  1.0000
  S   S264      1.0  0.89509  0.49771  0.28365  1.0000
  H   H1552     1.0  0.91108  0.48740  0.43685  1.0000
  H   H1553     1.0  0.97555  0.47670  0.45894  1.0000
  H   H1554     1.0  0.84519  0.49970  0.65126  1.0000
  C   C910      1.0  0.89886  0.49012  0.48987  1.0000
  H   H1555     1.0  0.99140  0.38402  0.87513  1.0000
  H   H1556     1.0  0.91058  0.48712  0.50444  1.0000
  H   H1557     1.0  0.89688  0.47898  0.09873  1.0000
  S   S265      1.0  0.99740  0.39308  0.16175  1.0000
  H   H1558     1.0  0.84013  0.25881  0.36509  1.0000
  H   H1559     1.0  0.98369  0.33854  0.21194  1.0000
  S   S266      1.0  0.96193  0.49261  0.60825  1.0000
  H   H1560     1.0  0.98549  0.26676  0.76361  1.0000
  S   S267      1.0  0.88259  0.49496  0.38475  1.0000
  H   H1561     1.0  0.00126  0.40591  0.23853  1.0000
  H   H1562     1.0  0.00039  0.43753  0.65560  1.0000
  H   H1563     1.0  0.99966  0.41386  0.74330  1.0000
  H   H1564     1.0  0.00110  0.47381  0.26884  1.0000
  H   H1565     1.0  0.99979  0.44263  0.75614  1.0000
  H   H1566     1.0  0.00121  0.32141  0.78140  1.0000
  H   H1567     1.0  0.99451  0.60988  0.92755  1.0000
  H   H1568     1.0  0.95985  0.66545  0.76688  1.0000
  S   S268      1.0  0.92631  0.52915  0.24176  1.0000
  C   C911      1.0  0.93387  0.56030  0.32035  1.0000
  H   H1569     1.0  0.95283  0.71163  0.75442  1.0000
  H   H1570     1.0  0.94369  0.70242  0.12676  1.0000
  H   H1571     1.0  0.97549  0.59194  0.72991  1.0000
  H   H1572     1.0  0.88533  0.73605  0.27014  1.0000
  C   C912      1.0  0.96876  0.51314  0.70381  1.0000
  H   H1573     1.0  0.99239  0.50635  0.61163  1.0000
  H   H1574     1.0  0.96331  0.56928  0.81520  1.0000
  H   H1575     1.0  0.86943  0.54553  0.69616  1.0000
  C   C913      1.0  0.94854  0.72858  0.29310  1.0000
  C   C914      1.0  0.98090  0.66686  0.21952  1.0000
  H   H1576     1.0  0.96578  0.52424  0.27132  1.0000
  H   H1577     1.0  0.93726  0.54813  0.72646  1.0000
  H   H1578     1.0  0.94883  0.52904  0.30462  1.0000
  H   H1579     1.0  0.94507  0.61720  0.01511  1.0000
  C   C915      1.0  0.88132  0.54951  0.61151  1.0000
  S   S269      1.0  0.89796  0.51758  0.72226  1.0000
  H   H1580     1.0  0.92316  0.57096  0.32585  1.0000
  H   H1581     1.0  0.91520  0.73056  0.30556  1.0000
  Fe  Fe138     1.0  0.89948  0.62097  0.16550  1.0000
  S   S270      1.0  0.92214  0.61602  0.12792  1.0000
  S   S271      1.0  0.88500  0.60086  0.18717  1.0000
  Fe  Fe139     1.0  0.90248  0.65841  0.17703  1.0000
  S   S272      1.0  0.92554  0.65598  0.14100  1.0000
  S   S273      1.0  0.88994  0.68079  0.21161  1.0000
  Fe  Fe140     1.0  0.91184  0.64174  0.10315  1.0000
  S   S274      1.0  0.91648  0.64896  0.04431  1.0000
  Fe  Fe141     1.0  0.93373  0.63056  0.16810  1.0000
  S   S275      1.0  0.95988  0.62074  0.18801  1.0000
  S   S276      1.0  0.88792  0.64582  0.13769  1.0000
  S   S277      1.0  0.91193  0.63392  0.20711  1.0000
  Fe  Fe142     1.0  0.90196  0.61648  0.76970  1.0000
  S   S278      1.0  0.91349  0.61204  0.82425  1.0000
  S   S279      1.0  0.90204  0.59660  0.72595  1.0000
  Fe  Fe143     1.0  0.89922  0.65601  0.77409  1.0000
  S   S280      1.0  0.91058  0.65428  0.82929  1.0000
  S   S281      1.0  0.89632  0.67813  0.73277  1.0000
  Fe  Fe144     1.0  0.92877  0.63171  0.80860  1.0000
  S   S282      1.0  0.95674  0.62574  0.81728  1.0000
  Fe  Fe145     1.0  0.89441  0.63478  0.84226  1.0000
  S   S283      1.0  0.88292  0.63188  0.89834  1.0000
  S   S284      1.0  0.91900  0.63464  0.75290  1.0000
  S   S285      1.0  0.88126  0.63800  0.78813  1.0000
  C   C916      1.0  0.96544  0.64370  0.82549  1.0000
  C   C917      1.0  0.88763  0.71176  0.24409  1.0000
  C   C918      1.0  0.95554  0.65851  0.83942  1.0000
  H   H1582     1.0  0.83582  0.69707  0.24397  1.0000
  H   H1583     1.0  0.94241  0.65889  0.84644  1.0000
  C   C919      1.0  0.96778  0.63788  0.20451  1.0000
  C   C920      1.0  0.95678  0.65324  0.21175  1.0000
  H   H1584     1.0  0.97807  0.69540  0.03697  1.0000
  H   H1585     1.0  0.94322  0.65407  0.21039  1.0000
  C   C921      1.0  0.95428  0.73591  0.36949  1.0000
  C   C922      1.0  0.90650  0.64428  0.00450  1.0000
  C   C923      1.0  0.89487  0.63329  0.00444  1.0000
  C   C924      1.0  0.88770  0.62968  0.97180  1.0000
  C   C925      1.0  0.89226  0.63678  0.93883  1.0000
  C   C926      1.0  0.90395  0.64772  0.93897  1.0000
  C   C927      1.0  0.91085  0.65157  0.97164  1.0000
  H   H1586     1.0  0.89134  0.62761  0.02948  1.0000
  H   H1587     1.0  0.87860  0.62129  0.97205  1.0000
  H   H1588     1.0  0.90739  0.65349  0.91397  1.0000
  H   H1589     1.0  0.91957  0.66035  0.97149  1.0000
  C   C928      1.0  0.89623  0.70068  0.21796  1.0000
  C   C929      1.0  0.90929  0.70581  0.19752  1.0000
  H   H1590     1.0  0.91595  0.69751  0.17719  1.0000
  C   C930      1.0  0.89169  0.70079  0.73314  1.0000
  C   C931      1.0  0.89336  0.70981  0.70067  1.0000
  H   H1591     1.0  0.89691  0.70285  0.67620  1.0000
  H   H1592     1.0  0.95826  0.67965  0.01477  1.0000
  C   C932      1.0  0.99304  0.51534  0.66559  1.0000
  H   H1593     1.0  0.92300  0.71095  0.28585  1.0000
  H   H1594     1.0  0.96601  0.58523  0.24995  1.0000
  H   H1595     1.0  0.93284  0.72406  0.37865  1.0000
  C   C933      1.0  0.98741  0.56596  0.34870  1.0000
  C   C934      1.0  0.90048  0.53920  0.72379  1.0000
  C   C935      1.0  0.90532  0.54781  0.69327  1.0000
  C   C936      1.0  0.90550  0.56536  0.69448  1.0000
  C   C937      1.0  0.90141  0.57448  0.72646  1.0000
  C   C938      1.0  0.89691  0.56581  0.75721  1.0000
  C   C939      1.0  0.89627  0.54832  0.75572  1.0000
  H   H1596     1.0  0.90869  0.54102  0.66858  1.0000
  H   H1597     1.0  0.90901  0.57191  0.67050  1.0000
  H   H1598     1.0  0.89363  0.57262  0.78196  1.0000
  H   H1599     1.0  0.89237  0.54184  0.77944  1.0000
  H   H1600     1.0  0.96354  0.74262  0.72896  1.0000
  C   C940      1.0  0.98542  0.67922  0.73650  1.0000
  C   C941      1.0  0.95646  0.57694  0.24818  1.0000
  H   H1601     1.0  0.99321  0.70061  0.06811  1.0000
  H   H1602     1.0  0.95324  0.55128  0.25656  1.0000
  H   H1603     1.0  0.91323  0.52412  0.16051  1.0000
  S   S286      1.0  0.99359  0.52370  0.40314  1.0000
  C   C942      1.0  0.97171  0.53963  0.31618  1.0000
  H   H1604     1.0  0.88331  0.52839  0.64906  1.0000
  H   H1605     1.0  0.92873  0.74239  0.35040  1.0000
  H   H1606     1.0  0.87260  0.50838  0.13908  1.0000
  C   C943      1.0  0.93614  0.71182  0.69274  1.0000
  H   H1607     1.0  0.97137  0.68024  0.68758  1.0000
  C   C944      1.0  0.95275  0.71921  0.25739  1.0000
  H   H1608     1.0  0.95212  0.58956  0.82800  1.0000
  H   H1609     1.0  0.85674  0.68581  0.25689  1.0000
  C   C945      1.0  0.91439  0.54916  0.22822  1.0000
  C   C946      1.0  0.92254  0.55998  0.20676  1.0000
  C   C947      1.0  0.91378  0.57598  0.19492  1.0000
  C   C948      1.0  0.89658  0.58119  0.20364  1.0000
  C   C949      1.0  0.88835  0.57032  0.22494  1.0000
  C   C950      1.0  0.89725  0.55442  0.23749  1.0000
  H   H1610     1.0  0.93571  0.55593  0.19898  1.0000
  H   H1611     1.0  0.92026  0.58414  0.17842  1.0000
  H   H1612     1.0  0.87504  0.57422  0.23178  1.0000
  H   H1613     1.0  0.89081  0.54620  0.25399  1.0000
  H   H1614     1.0  0.88330  0.62899  0.25941  1.0000
  H   H1615     1.0  0.98087  0.68665  0.14422  1.0000
  C   C951      1.0  0.88379  0.72798  0.76315  1.0000
  H   H1616     1.0  0.95289  0.69334  0.06763  1.0000
  C   C952      1.0  0.94268  0.54945  0.75319  1.0000
  N   N64       1.0  0.95848  0.57440  0.74199  1.0000
  C   C953      1.0  0.94929  0.57851  0.70693  1.0000
  C   C954      1.0  0.95972  0.55560  0.74900  1.0000
  C   C955      1.0  0.97606  0.57824  0.73650  1.0000
  C   C956      1.0  0.94880  0.58521  0.77118  1.0000
  C   C957      1.0  0.94737  0.59703  0.69282  1.0000
  H   H1617     1.0  0.96157  0.51304  0.41286  1.0000
  H   H1618     1.0  0.97527  0.73370  0.78280  1.0000
  H   H1619     1.0  0.89454  0.54432  0.60251  1.0000
  H   H1620     1.0  0.95557  0.57010  0.68510  1.0000
  H   H1621     1.0  0.93619  0.57598  0.70942  1.0000
  H   H1622     1.0  0.96719  0.55099  0.77305  1.0000
  H   H1623     1.0  0.96684  0.54838  0.72648  1.0000
  H   H1624     1.0  0.94500  0.67756  0.32339  1.0000
  N   N65       1.0  0.97159  0.67580  0.09735  1.0000
  C   C958      1.0  0.87382  0.53505  0.62967  1.0000
  H   H1625     1.0  0.93489  0.58683  0.76676  1.0000
  H   H1626     1.0  0.95956  0.59989  0.68215  1.0000
  H   H1627     1.0  0.93842  0.59889  0.67007  1.0000
  H   H1628     1.0  0.94190  0.60635  0.71347  1.0000
  N   N66       1.0  0.95273  0.68699  0.73073  1.0000
  C   C959      1.0  0.95359  0.69530  0.14457  1.0000
  H   H1629     1.0  0.84601  0.54206  0.59524  1.0000
  H   H1630     1.0  0.84392  0.56664  0.72116  1.0000
  H   H1631     1.0  0.85237  0.57206  0.60960  1.0000
  C   C960      1.0  0.95070  0.68725  0.30818  1.0000
  H   H1632     1.0  0.87437  0.55428  0.58680  1.0000
  C   C961      1.0  0.95157  0.57862  0.81052  1.0000
  C   C962      1.0  0.88752  0.53614  0.15062  1.0000
  H   H1633     1.0  0.99032  0.63189  0.80639  1.0000
  C   C963      1.0  0.98617  0.50618  0.38720  1.0000
  H   H1634     1.0  0.99125  0.56278  0.29168  1.0000
  H   H1635     1.0  0.96889  0.60080  0.98240  1.0000
  H   H1636     1.0  0.87993  0.73495  0.78747  1.0000
  C   C964      1.0  0.95111  0.66952  0.74438  1.0000
  H   H1637     1.0  0.96770  0.65938  0.03433  1.0000
  H   H1638     1.0  0.97637  0.58114  0.30438  1.0000
  C   C965      1.0  0.95157  0.70259  0.33235  1.0000
  N   N67       1.0  0.85679  0.53993  0.64845  1.0000
  C   C966      1.0  0.96108  0.50691  0.67483  1.0000
  H   H1639     1.0  0.96312  0.70806  0.26068  1.0000
  H   H1640     1.0  0.96504  0.72510  0.37228  1.0000
  C   C967      1.0  0.98661  0.61054  0.90334  1.0000
  H   H1641     1.0  0.98239  0.64029  0.07830  1.0000
  H   H1642     1.0  0.98607  0.68632  0.76150  1.0000
  H   H1643     1.0  0.93328  0.55790  0.77000  1.0000
  C   C968      1.0  0.98527  0.63673  0.20737  1.0000
  H   H1644     1.0  0.83457  0.57422  0.64051  1.0000
  H   H1645     1.0  0.94534  0.66588  0.03300  1.0000
  N   N68       1.0  0.89939  0.50387  0.15162  1.0000
  C   C969      1.0  0.89203  0.72773  0.24987  1.0000
  H   H1646     1.0  0.94305  0.68577  0.67701  1.0000
  C   C970      1.0  0.93817  0.73050  0.35545  1.0000
  H   H1647     1.0  0.94869  0.68456  0.15731  1.0000
  C   C971      1.0  0.96996  0.68701  0.71363  1.0000
  H   H1648     1.0  0.88208  0.56003  0.62984  1.0000
  C   C972      1.0  0.98972  0.65758  0.82266  1.0000
  H   H1649     1.0  0.83983  0.52648  0.67889  1.0000
  N   N69       1.0  0.95791  0.61722  0.93865  1.0000
  C   C973      1.0  0.94133  0.61091  0.94202  1.0000
  C   C974      1.0  0.96607  0.61460  0.97502  1.0000
  C   C975      1.0  0.96896  0.60632  0.91146  1.0000
  C   C976      1.0  0.95433  0.63561  0.92630  1.0000
  C   C977      1.0  0.93137  0.61092  0.90703  1.0000
  C   C978      1.0  0.95551  0.62381  0.00645  1.0000
  H   H1650     1.0  0.95533  0.70397  0.16654  1.0000
  H   H1651     1.0  0.98363  0.58304  0.79132  1.0000
  H   H1652     1.0  0.94335  0.59772  0.95347  1.0000
  H   H1653     1.0  0.93242  0.61879  0.96107  1.0000
  H   H1654     1.0  0.84216  0.51475  0.61458  1.0000
  H   H1655     1.0  0.99346  0.55278  0.35598  1.0000
  H   H1656     1.0  0.97078  0.59266  0.91985  1.0000
  H   H1657     1.0  0.96282  0.60726  0.88483  1.0000
  H   H1658     1.0  0.95242  0.63649  0.89674  1.0000
  H   H1659     1.0  0.94216  0.64222  0.93838  1.0000
  H   H1660     1.0  0.93741  0.60064  0.88887  1.0000
  H   H1661     1.0  0.91853  0.60836  0.91387  1.0000
  H   H1662     1.0  0.92956  0.62336  0.89255  1.0000
  H   H1663     1.0  0.96707  0.65382  0.70360  1.0000
  H   H1664     1.0  0.95004  0.63723  0.99969  1.0000
  H   H1665     1.0  0.90828  0.71725  0.36227  1.0000
  H   H1666     1.0  0.87376  0.51401  0.20699  1.0000
  H   H1667     1.0  0.99071  0.66346  0.05894  1.0000
  C   C979      1.0  0.90512  0.73286  0.22946  1.0000
  H   H1668     1.0  0.98098  0.52971  0.49000  1.0000
  C   C980      1.0  0.98965  0.69031  0.05218  1.0000
  H   H1669     1.0  0.97318  0.63239  0.11750  1.0000
  N   N70       1.0  0.84634  0.65720  0.23345  1.0000
  C   C981      1.0  0.83873  0.64494  0.21171  1.0000
  C   C982      1.0  0.83710  0.65943  0.26933  1.0000
  C   C983      1.0  0.86491  0.65053  0.23985  1.0000
  C   C984      1.0  0.84468  0.67386  0.21275  1.0000
  C   C985      1.0  0.84792  0.63950  0.17579  1.0000
  C   C986      1.0  0.81806  0.66737  0.26795  1.0000
  C   C987      1.0  0.86930  0.63278  0.25806  1.0000
  H   H1670     1.0  0.83784  0.63320  0.22766  1.0000
  H   H1671     1.0  0.82544  0.65054  0.20461  1.0000
  H   H1672     1.0  0.84326  0.66713  0.28765  1.0000
  H   H1673     1.0  0.83778  0.64695  0.28351  1.0000
  H   H1674     1.0  0.87242  0.65015  0.21424  1.0000
  H   H1675     1.0  0.87034  0.65927  0.25703  1.0000
  H   H1676     1.0  0.85362  0.67259  0.18912  1.0000
  H   H1677     1.0  0.83175  0.67747  0.20150  1.0000
  H   H1678     1.0  0.84838  0.65048  0.15733  1.0000
  H   H1679     1.0  0.86089  0.63224  0.17998  1.0000
  H   H1680     1.0  0.84093  0.63088  0.16189  1.0000
  H   H1681     1.0  0.81067  0.65873  0.25539  1.0000
  H   H1682     1.0  0.81302  0.66944  0.29594  1.0000
  H   H1683     1.0  0.81559  0.67989  0.25388  1.0000
  H   H1684     1.0  0.86489  0.62282  0.24263  1.0000
  H   H1685     1.0  0.86436  0.63277  0.28615  1.0000
  H   H1686     1.0  0.97302  0.70185  0.11050  1.0000
  H   H1687     1.0  0.96843  0.65569  0.91272  1.0000
  C   C988      1.0  0.95734  0.67047  0.03725  1.0000
  C   C989      1.0  0.98030  0.56730  0.31026  1.0000
  C   C990      1.0  0.96280  0.67281  0.84530  1.0000
  H   H1688     1.0  0.96370  0.62371  0.03013  1.0000
  N   N71       1.0  0.99919  0.74250  0.77933  1.0000
  H   H1689     1.0  0.92718  0.68920  0.71049  1.0000
  H   H1690     1.0  0.93262  0.54955  0.33900  1.0000
  C   C991      1.0  0.96336  0.66775  0.21935  1.0000
  C   C992      1.0  0.84333  0.54787  0.62225  1.0000
  H   H1691     1.0  0.96510  0.70399  0.33280  1.0000
  H   H1692     1.0  0.88876  0.53741  0.12097  1.0000
  N   N72       1.0  0.96597  0.55792  0.30399  1.0000
  H   H1693     1.0  0.97147  0.70021  0.70654  1.0000
  H   H1694     1.0  0.94030  0.74105  0.28674  1.0000
  C   C993      1.0  0.84060  0.56737  0.61656  1.0000
  H   H1695     1.0  0.92755  0.71413  0.66940  1.0000
  H   H1696     1.0  0.94789  0.71644  0.68482  1.0000
  C   C994      1.0  0.98257  0.64324  0.81741  1.0000
  H   H1697     1.0  0.94853  0.69860  0.36031  1.0000
  H   H1698     1.0  0.99379  0.62481  0.20229  1.0000
  H   H1699     1.0  0.92364  0.72572  0.18694  1.0000
  H   H1700     1.0  0.89180  0.73442  0.67421  1.0000
  H   H1701     1.0  0.94491  0.67638  0.08906  1.0000
  H   H1702     1.0  0.95326  0.56439  0.35515  1.0000
  C   C995      1.0  0.88560  0.73696  0.73068  1.0000
  H   H1703     1.0  0.99898  0.67273  0.09500  1.0000
  H   H1704     1.0  0.88559  0.70330  0.78967  1.0000
  H   H1705     1.0  0.89904  0.52120  0.19584  1.0000
  C   C996      1.0  0.96270  0.52615  0.30039  1.0000
  C   C997      1.0  0.88695  0.71001  0.76449  1.0000
  H   H1706     1.0  0.94442  0.65761  0.69521  1.0000
  H   H1707     1.0  0.95489  0.67978  0.22321  1.0000
  C   C998      1.0  0.84791  0.68921  0.23433  1.0000
  C   C999      1.0  0.91358  0.72186  0.20304  1.0000
  C   C1000     1.0  0.98497  0.51692  0.69945  1.0000
  H   H1708     1.0  0.87748  0.70799  0.26003  1.0000
  C   C1001     1.0  0.93952  0.69267  0.70255  1.0000
  H   H1709     1.0  0.85369  0.69777  0.21593  1.0000
  H   H1710     1.0  0.95162  0.59829  0.76964  1.0000
  H   H1711     1.0  0.93384  0.69168  0.80571  1.0000
  S   S287      1.0  0.91417  0.50793  0.62194  1.0000
  H   H1712     1.0  0.95410  0.57598  0.21903  1.0000
  H   H1713     1.0  0.98267  0.73206  0.84203  1.0000
  C   C1002     1.0  0.97068  0.68997  0.12397  1.0000
  H   H1714     1.0  0.87430  0.53528  0.15840  1.0000
  H   H1715     1.0  0.99040  0.56099  0.77737  1.0000
  H   H1716     1.0  0.94480  0.53663  0.76619  1.0000
  C   C1003     1.0  0.95077  0.56633  0.32589  1.0000
  H   H1717     1.0  0.98539  0.53522  0.30945  1.0000
  H   H1718     1.0  0.87337  0.52591  0.60781  1.0000
  H   H1719     1.0  0.97445  0.55320  0.24888  1.0000
  H   H1720     1.0  0.92276  0.69865  0.76543  1.0000
  H   H1721     1.0  0.86153  0.56370  0.66990  1.0000
  H   H1722     1.0  0.96083  0.73144  0.30165  1.0000
  H   H1723     1.0  0.95339  0.64311  0.72994  1.0000
  S   S288      1.0  0.98912  0.69020  0.84350  1.0000
  H   H1724     1.0  0.96150  0.66057  0.13851  1.0000
  H   H1725     1.0  0.98585  0.66559  0.74319  1.0000
  S   S289      1.0  0.91191  0.75244  0.23671  1.0000
  C   C1004     1.0  0.90042  0.52109  0.16597  1.0000
  C   C1005     1.0  0.89051  0.72774  0.69946  1.0000
  H   H1726     1.0  0.83070  0.54511  0.63063  1.0000
  N   N73       1.0  0.94045  0.71940  0.32265  1.0000
  H   H1727     1.0  0.95520  0.68415  0.85658  1.0000
  H   H1728     1.0  0.97061  0.53842  0.34602  1.0000
  S   S290      1.0  0.99565  0.52238  0.73670  1.0000
  H   H1729     1.0  0.94843  0.58041  0.32228  1.0000
  H   H1730     1.0  0.86175  0.51794  0.68462  1.0000
  H   H1731     1.0  0.93195  0.55668  0.29252  1.0000
  H   H1732     1.0  0.92954  0.71952  0.71511  1.0000
  H   H1733     1.0  0.96377  0.68087  0.30039  1.0000
  H   H1734     1.0  0.94427  0.58317  0.26074  1.0000
  C   C1006     1.0  0.84303  0.55527  0.70522  1.0000
  H   H1735     1.0  0.95737  0.72790  0.23741  1.0000
  C   C1007     1.0  0.85852  0.55135  0.67934  1.0000
  C   C1008     1.0  0.96272  0.55893  0.26408  1.0000
  H   H1736     1.0  0.96233  0.51455  0.72975  1.0000
  C   C1009     1.0  0.97181  0.64331  0.09811  1.0000
  C   C1010     1.0  0.97993  0.67235  0.83687  1.0000
  H   H1737     1.0  0.94049  0.57331  0.82065  1.0000
  H   H1738     1.0  0.84297  0.54459  0.72481  1.0000
  H   H1739     1.0  0.83180  0.57109  0.59390  1.0000
  H   H1740     1.0  0.93819  0.66955  0.75610  1.0000
  H   H1741     1.0  0.91982  0.69655  0.34886  1.0000
  H   H1742     1.0  0.95802  0.74615  0.35229  1.0000
  C   C1011     1.0  0.96963  0.50410  0.39560  1.0000
  C   C1012     1.0  0.96759  0.64658  0.93533  1.0000
  C   C1013     1.0  0.95425  0.65539  0.71620  1.0000
  C   C1014     1.0  0.98810  0.57452  0.76855  1.0000
  C   C1015     1.0  0.95615  0.67946  0.07398  1.0000
  C   C1016     1.0  0.95042  0.69879  0.76222  1.0000
  H   H1743     1.0  0.98257  0.57104  0.71317  1.0000
  C   C1017     1.0  0.85225  0.52378  0.66426  1.0000
  C   C1018     1.0  0.93316  0.70076  0.78252  1.0000
  H   H1744     1.0  0.94165  0.71535  0.24541  1.0000
  H   H1745     1.0  0.98292  0.50401  0.47027  1.0000
  C   C1019     1.0  0.92292  0.71774  0.31143  1.0000
  H   H1746     1.0  0.89297  0.51131  0.09643  1.0000
  H   H1747     1.0  0.90107  0.70647  0.32604  1.0000
  H   H1748     1.0  0.94381  0.69027  0.28284  1.0000
  C   C1020     1.0  0.91266  0.70894  0.33910  1.0000
  H   H1749     1.0  0.86314  0.50365  0.62619  1.0000
  H   H1750     1.0  0.83084  0.55784  0.69091  1.0000
  H   H1751     1.0  0.96012  0.69429  0.78285  1.0000
  H   H1752     1.0  0.95144  0.74138  0.39667  1.0000
  H   H1753     1.0  0.89003  0.54812  0.16194  1.0000
  C   C1021     1.0  0.98035  0.74506  0.77309  1.0000
  H   H1754     1.0  0.96731  0.51372  0.31409  1.0000
  H   H1755     1.0  0.92937  0.71393  0.79245  1.0000
  Fe  Fe146     1.0  0.91937  0.50762  0.27695  1.0000
  C   C1022     1.0  0.99352  0.52919  0.50227  1.0000
  H   H1756     1.0  0.99353  0.60104  0.88431  1.0000
  C   C1023     1.0  0.98571  0.50833  0.63716  1.0000
  H   H1757     1.0  0.99720  0.67988  0.72072  1.0000
  H   H1758     1.0  0.94848  0.50434  0.67823  1.0000
  H   H1759     1.0  0.99750  0.57370  0.34985  1.0000
  C   C1024     1.0  0.99182  0.65124  0.21492  1.0000
  H   H1760     1.0  0.98791  0.51360  0.54738  1.0000
  C   C1025     1.0  0.90361  0.50370  0.11182  1.0000
  C   C1026     1.0  0.97227  0.65955  0.11911  1.0000
  S   S291      1.0  0.98923  0.68545  0.22132  1.0000
  C   C1027     1.0  0.96990  0.50367  0.64205  1.0000
  H   H1761     1.0  0.97770  0.57096  0.36934  1.0000
  H   H1762     1.0  0.96330  0.65460  0.95899  1.0000
  H   H1763     1.0  0.95937  0.64396  0.08521  1.0000
  H   H1764     1.0  0.98385  0.65697  0.13588  1.0000
  H   H1765     1.0  0.97858  0.61847  0.97501  1.0000
  H   H1766     1.0  0.99509  0.71773  0.72407  1.0000
  C   C1028     1.0  0.98806  0.67471  0.07633  1.0000
  C   C1029     1.0  0.97433  0.74910  0.73397  1.0000
  H   H1767     1.0  0.99633  0.73884  0.87371  1.0000
  H   H1768     1.0  0.99240  0.54082  0.51856  1.0000
  C   C1030     1.0  0.85062  0.50988  0.63712  1.0000
  H   H1769     1.0  0.91455  0.51006  0.10556  1.0000
  H   H1770     1.0  0.98064  0.63958  0.93933  1.0000
  H   H1771     1.0  0.00009  0.68655  0.03216  1.0000
  C   C1031     1.0  0.99588  0.73366  0.84634  1.0000
  H   H1772     1.0  0.98564  0.62306  0.88933  1.0000
  H   H1773     1.0  0.98388  0.74510  0.71253  1.0000
  C   C1032     1.0  0.99849  0.51346  0.52730  1.0000
  S   S292      1.0  0.92607  0.50325  0.33537  1.0000
  H   H1774     1.0  0.00067  0.57729  0.76001  1.0000
  Fe  Fe147     1.0  0.89050  0.79225  0.60988  1.0000
  S   S293      1.0  0.90316  0.81347  0.62706  1.0000
  S   S294      1.0  0.87963  0.79386  0.55411  1.0000
  Fe  Fe148     1.0  0.88846  0.77752  0.68617  1.0000
  S   S295      1.0  0.90028  0.79833  0.70824  1.0000
  H   H1775     1.0  0.92794  0.76123  0.48601  1.0000
  Fe  Fe149     1.0  0.88348  0.81671  0.67183  1.0000
  S   S296      1.0  0.87136  0.84334  0.69128  1.0000
  Fe  Fe150     1.0  0.91885  0.79342  0.66187  1.0000
  S   S297      1.0  0.94638  0.78980  0.67916  1.0000
  S   S298      1.0  0.87015  0.79642  0.65331  1.0000
  S   S299      1.0  0.90776  0.77166  0.64114  1.0000
  C   C1033     1.0  0.79004  0.99039  0.69303  1.0000
  S   S300      1.0  0.76649  0.92937  0.71593  1.0000
  H   H1776     1.0  0.88910  0.84203  0.37056  1.0000
  Fe  Fe151     1.0  0.77110  0.93908  0.61370  1.0000
  S   S301      1.0  0.79357  0.93391  0.64983  1.0000
  S   S302      1.0  0.77731  0.94539  0.55585  1.0000
  Fe  Fe152     1.0  0.78178  0.91266  0.67332  1.0000
  S   S303      1.0  0.79509  0.88443  0.67495  1.0000
  Fe  Fe153     1.0  0.77672  0.95104  0.68831  1.0000
  H   H1777     1.0  0.90425  0.85415  0.40938  1.0000
  S   S304      1.0  0.75987  0.91718  0.63484  1.0000
  H   H1778     1.0  0.89974  0.86112  0.71092  1.0000
  Fe  Fe154     1.0  0.90934  0.77970  0.35966  1.0000
  S   S305      1.0  0.90346  0.80801  0.35246  1.0000
  S   S306      1.0  0.91926  0.76641  0.41122  1.0000
  Fe  Fe155     1.0  0.90516  0.77285  0.27991  1.0000
  S   S307      1.0  0.89882  0.80102  0.26635  1.0000
  H   H1779     1.0  0.77512  0.95865  0.42806  1.0000
  Fe  Fe156     1.0  0.92017  0.80364  0.30310  1.0000
  S   S308      1.0  0.94004  0.81942  0.28733  1.0000
  Fe  Fe157     1.0  0.88234  0.80362  0.31685  1.0000
  S   S309      1.0  0.85562  0.81947  0.32780  1.0000
  S   S310      1.0  0.92760  0.77569  0.31276  1.0000
  S   S311      1.0  0.88721  0.77505  0.32790  1.0000
  Fe  Fe158     1.0  0.78577  0.90776  0.30857  1.0000
  H   H1780     1.0  0.76781  0.97896  0.49665  1.0000
  S   S312      1.0  0.81039  0.89196  0.28486  1.0000
  Fe  Fe159     1.0  0.76761  0.94482  0.32262  1.0000
  C   C1034     1.0  0.92736  0.82895  0.73625  1.0000
  H   H1781     1.0  0.89534  0.88270  0.27115  1.0000
  C   C1035     1.0  0.98931  0.81474  0.63154  1.0000
  H   H1782     1.0  0.96235  0.78468  0.27008  1.0000
  H   H1783     1.0  0.99536  0.75885  0.82586  1.0000
  H   H1784     1.0  0.78735  0.87645  0.50422  1.0000
  S   S313      1.0  0.78435  0.92501  0.35636  1.0000
  S   S314      1.0  0.77085  0.92857  0.27354  1.0000
  H   H1785     1.0  0.79385  0.85427  0.54536  1.0000
  C   C1036     1.0  0.95959  0.81195  0.34833  1.0000
  H   H1786     1.0  0.90624  0.83911  0.26395  1.0000
  H   H1787     1.0  0.91852  0.86869  0.40762  1.0000
  H   H1788     1.0  0.82630  0.85334  0.53568  1.0000
  H   H1789     1.0  0.88823  0.85585  0.26298  1.0000
  H   H1790     1.0  0.88790  0.83683  0.29002  1.0000
  C   C1037     1.0  0.95834  0.81890  0.31337  1.0000
  H   H1791     1.0  0.87329  0.84705  0.33799  1.0000
  H   H1792     1.0  0.86114  0.85128  0.39795  1.0000
  H   H1793     1.0  0.94913  0.80681  0.36014  1.0000
  H   H1794     1.0  0.87057  0.88655  0.33657  1.0000
  C   C1038     1.0  0.84317  0.83960  0.31496  1.0000
  C   C1039     1.0  0.84743  0.84918  0.28533  1.0000
  C   C1040     1.0  0.83729  0.86513  0.27672  1.0000
  C   C1041     1.0  0.82272  0.87177  0.29742  1.0000
  C   C1042     1.0  0.81837  0.86213  0.32685  1.0000
  C   C1043     1.0  0.82852  0.84618  0.33547  1.0000
  H   H1795     1.0  0.85840  0.84422  0.26877  1.0000
  H   H1796     1.0  0.84072  0.87235  0.25366  1.0000
  H   H1797     1.0  0.80720  0.86695  0.34302  1.0000
  H   H1798     1.0  0.82501  0.83889  0.35835  1.0000
  C   C1044     1.0  0.77143  0.93311  0.52149  1.0000
  C   C1045     1.0  0.86399  0.81659  0.77226  1.0000
  H   H1799     1.0  0.94476  0.85575  0.73182  1.0000
  H   H1800     1.0  0.76732  0.86627  0.56941  1.0000
  C   C1046     1.0  0.77470  0.92444  0.45896  1.0000
  C   C1047     1.0  0.78029  0.93237  0.48843  1.0000
  C   C1048     1.0  0.79109  0.99051  0.65538  1.0000
  H   H1801     1.0  0.99054  0.76787  0.21686  1.0000
  H   H1802     1.0  0.78147  0.92413  0.43350  1.0000
  H   H1803     1.0  0.79130  0.93829  0.48540  1.0000
  H   H1804     1.0  0.97356  0.75583  0.78943  1.0000
  C   C1049     1.0  0.97431  0.81192  0.36832  1.0000
  H   H1805     1.0  0.87710  0.89880  0.27862  1.0000
  H   H1806     1.0  0.82462  0.88177  0.56299  1.0000
  C   C1050     1.0  0.91484  0.87127  0.74941  1.0000
  H   H1807     1.0  0.85776  0.87117  0.37429  1.0000
  H   H1808     1.0  0.91278  0.77206  0.54250  1.0000
  C   C1051     1.0  0.96269  0.79930  0.65945  1.0000
  H   H1809     1.0  0.87391  0.86647  0.40834  1.0000
  H   H1810     1.0  0.86994  0.87227  0.30146  1.0000
  H   H1811     1.0  0.92161  0.85169  0.37666  1.0000
  H   H1812     1.0  0.94775  0.81274  0.61681  1.0000
  C   C1052     1.0  0.89140  0.78663  0.51498  1.0000
  C   C1053     1.0  0.88431  0.79146  0.48128  1.0000
  C   C1054     1.0  0.89295  0.78558  0.44937  1.0000
  C   C1055     1.0  0.90864  0.77458  0.45097  1.0000
  C   C1056     1.0  0.91581  0.76976  0.48465  1.0000
  C   C1057     1.0  0.90728  0.77590  0.51663  1.0000
  H   H1813     1.0  0.87200  0.79969  0.47986  1.0000
  H   H1814     1.0  0.88728  0.78929  0.42358  1.0000
  H   H1815     1.0  0.79486  0.96691  0.46502  1.0000
  H   H1816     1.0  0.76281  0.88258  0.53425  1.0000
  C   C1058     1.0  0.85042  0.85495  0.68351  1.0000
  C   C1059     1.0  0.84619  0.87206  0.69387  1.0000
  C   C1060     1.0  0.82953  0.88147  0.69027  1.0000
  C   C1061     1.0  0.81672  0.87377  0.67702  1.0000
  C   C1062     1.0  0.82099  0.85669  0.66631  1.0000
  C   C1063     1.0  0.83775  0.84742  0.66899  1.0000
  H   H1817     1.0  0.85581  0.87807  0.70515  1.0000
  H   H1818     1.0  0.82649  0.89454  0.69879  1.0000
  H   H1819     1.0  0.81122  0.85055  0.65612  1.0000
  H   H1820     1.0  0.84074  0.83431  0.66075  1.0000
  H   H1821     1.0  0.89469  0.89744  0.30766  1.0000
  N   N74       1.0  0.83823  0.80264  0.75952  1.0000
  C   C1064     1.0  0.84262  0.78786  0.78565  1.0000
  C   C1065     1.0  0.85458  0.80735  0.74558  1.0000
  C   C1066     1.0  0.82856  0.79806  0.72805  1.0000
  C   C1067     1.0  0.82725  0.81721  0.77869  1.0000
  C   C1068     1.0  0.82752  0.78052  0.80150  1.0000
  H   H1822     1.0  0.83291  0.82011  0.80437  1.0000
  C   C1069     1.0  0.83630  0.78128  0.70941  1.0000
  C   C1070     1.0  0.82223  0.83382  0.75629  1.0000
  H   H1823     1.0  0.85167  0.77721  0.77313  1.0000
  H   H1824     1.0  0.84946  0.79149  0.80904  1.0000
  H   H1825     1.0  0.85260  0.81541  0.72069  1.0000
  H   H1826     1.0  0.86372  0.79582  0.73712  1.0000
  H   H1827     1.0  0.81528  0.79728  0.73608  1.0000
  H   H1828     1.0  0.82730  0.80829  0.70688  1.0000
  H   H1829     1.0  0.81501  0.81371  0.78757  1.0000
  H   H1830     1.0  0.78788  0.88811  0.18317  1.0000
  H   H1831     1.0  0.81941  0.77683  0.78052  1.0000
  H   H1832     1.0  0.78884  0.90336  0.21569  1.0000
  S   S315      1.0  0.75512  0.95764  0.65050  1.0000
  H   H1833     1.0  0.98771  0.77731  0.76389  1.0000
  H   H1834     1.0  0.90268  0.87794  0.76152  1.0000
  C   C1071     1.0  0.98554  0.76995  0.24492  1.0000
  C   C1072     1.0  0.75691  0.00082  0.44163  1.0000
  H   H1835     1.0  0.87605  0.81875  0.75940  1.0000
  H   H1836     1.0  0.84976  0.78068  0.70170  1.0000
  H   H1837     1.0  0.81104  0.83346  0.73951  1.0000
  H   H1838     1.0  0.83264  0.83662  0.73864  1.0000
  H   H1839     1.0  0.81927  0.84479  0.77462  1.0000
  N   N75       1.0  0.89082  0.86444  0.33795  1.0000
  C   C1073     1.0  0.90338  0.85389  0.31276  1.0000
  C   C1074     1.0  0.90045  0.87294  0.36414  1.0000
  C   C1075     1.0  0.87885  0.87797  0.31764  1.0000
  C   C1076     1.0  0.88065  0.85288  0.35733  1.0000
  C   C1077     1.0  0.89574  0.84615  0.28081  1.0000
  C   C1078     1.0  0.91174  0.86097  0.39070  1.0000
  C   C1079     1.0  0.88724  0.88973  0.29248  1.0000
  C   C1080     1.0  0.86772  0.86119  0.38603  1.0000
  H   H1840     1.0  0.91281  0.86130  0.30163  1.0000
  H   H1841     1.0  0.91107  0.84296  0.32746  1.0000
  H   H1842     1.0  0.89167  0.88248  0.38027  1.0000
  H   H1843     1.0  0.90904  0.88027  0.34947  1.0000
  C   C1081     1.0  0.75737  0.92522  0.52546  1.0000
  C   C1082     1.0  0.80459  0.99583  0.34088  1.0000
  H   H1844     1.0  0.78980  0.98905  0.45242  1.0000
  S   S316      1.0  0.76380  0.97377  0.32071  1.0000
  C   C1083     1.0  0.78151  0.88734  0.57379  1.0000
  S   S317      1.0  0.78419  0.97309  0.71775  1.0000
  C   C1084     1.0  0.78128  0.85781  0.20744  1.0000
  H   H1845     1.0  0.75946  0.84889  0.25174  1.0000
  H   H1846     1.0  0.81195  0.88495  0.60227  1.0000
  H   H1847     1.0  0.98088  0.78764  0.69849  1.0000
  C   C1085     1.0  0.81012  0.90687  0.56689  1.0000
  N   N76       1.0  0.79817  0.87966  0.55587  1.0000
  H   H1848     1.0  0.85670  0.82935  0.77895  1.0000
  S   S318      1.0  0.88100  0.75963  0.73021  1.0000
  H   H1849     1.0  0.78879  0.97964  0.64084  1.0000
  H   H1850     1.0  0.90739  0.85984  0.60581  1.0000
  H   H1851     1.0  0.97109  0.83115  0.27168  1.0000
  H   H1852     1.0  0.98231  0.78997  0.53795  1.0000
  H   H1853     1.0  0.99828  0.77635  0.36378  1.0000
  H   H1854     1.0  0.79684  0.85808  0.59153  1.0000
  H   H1855     1.0  0.77743  0.84544  0.20219  1.0000
  C   C1086     1.0  0.77991  0.89644  0.20261  1.0000
  H   H1856     1.0  0.79084  0.89696  0.51047  1.0000
  H   H1857     1.0  0.80248  0.86572  0.23497  1.0000
  H   H1858     1.0  0.82730  0.85424  0.58423  1.0000
  C   C1087     1.0  0.80131  0.86072  0.56366  1.0000
  H   H1859     1.0  0.76890  0.86259  0.27831  1.0000
  H   H1860     1.0  0.81449  0.86562  0.48296  1.0000
  H   H1861     1.0  0.94366  0.87132  0.69705  1.0000
  C   C1088     1.0  0.97199  0.82564  0.29858  1.0000
  H   H1862     1.0  0.77822  0.90121  0.56803  1.0000
  H   H1863     1.0  0.79904  0.91398  0.58182  1.0000
  H   H1864     1.0  0.78243  0.88596  0.60361  1.0000
  C   C1089     1.0  0.96002  0.81021  0.62933  1.0000
  H   H1865     1.0  0.79946  0.97019  0.34250  1.0000
  H   H1866     1.0  0.81997  0.83719  0.56368  1.0000
  C   C1090     1.0  0.81984  0.85107  0.56138  1.0000
  C   C1091     1.0  0.90643  0.85949  0.63568  1.0000
  H   H1867     1.0  0.82444  0.88087  0.50551  1.0000
  C   C1092     1.0  0.91168  0.86633  0.71054  1.0000
  C   C1093     1.0  0.76589  0.88005  0.56304  1.0000
  C   C1094     1.0  0.81173  0.88752  0.57266  1.0000
  C   C1095     1.0  0.92427  0.83612  0.69774  1.0000
  H   H1868     1.0  0.92723  0.81511  0.73626  1.0000
  H   H1869     1.0  0.81734  0.99207  0.35078  1.0000
  S   S319      1.0  0.76244  0.89723  0.32395  1.0000
  C   C1096     1.0  0.81279  0.87891  0.49239  1.0000
  H   H1870     1.0  0.81160  0.88757  0.46838  1.0000
  H   H1871     1.0  0.91710  0.83473  0.75501  1.0000
  H   H1872     1.0  0.90048  0.84856  0.64343  1.0000
  C   C1097     1.0  0.79660  0.88342  0.51600  1.0000
  H   H1873     1.0  0.96907  0.76289  0.73042  1.0000
  H   H1874     1.0  0.82145  0.91089  0.57792  1.0000
  H   H1875     1.0  0.83253  0.76880  0.81740  1.0000
  N   N77       1.0  0.99917  0.77318  0.26959  1.0000
  H   H1876     1.0  0.77943  0.88525  0.25580  1.0000
  H   H1877     1.0  0.81969  0.78947  0.82031  1.0000
  C   C1098     1.0  0.77795  0.98821  0.32358  1.0000
  C   C1099     1.0  0.75210  0.87332  0.19516  1.0000
  H   H1878     1.0  0.97021  0.85031  0.69472  1.0000
  H   H1879     1.0  0.80948  0.91071  0.53804  1.0000
  H   H1880     1.0  0.79412  0.84895  0.25863  1.0000
  C   C1100     1.0  0.99199  0.80371  0.66141  1.0000
  C   C1101     1.0  0.97873  0.79605  0.67526  1.0000
  Fe  Fe160     1.0  0.76026  0.91554  0.36971  1.0000
  H   H1881     1.0  0.98271  0.78664  0.31059  1.0000
  H   H1882     1.0  0.78593  0.86189  0.18100  1.0000
  S   S320      1.0  0.75256  0.90770  0.42556  1.0000
  H   H1883     1.0  0.77486  0.97496  0.39630  1.0000
  C   C1102     1.0  0.94288  0.85774  0.70245  1.0000
  C   C1103     1.0  0.77432  0.97263  0.42588  1.0000
  C   C1104     1.0  0.76033  0.91699  0.46253  1.0000
  H   H1884     1.0  0.97211  0.79660  0.23642  1.0000
  H   H1885     1.0  0.97504  0.80678  0.39553  1.0000
  H   H1886     1.0  0.92377  0.88031  0.74947  1.0000
  H   H1887     1.0  0.97114  0.82641  0.59234  1.0000
  H   H1888     1.0  0.93993  0.83016  0.74628  1.0000
  C   C1105     1.0  0.97330  0.81791  0.61550  1.0000
  C   C1106     1.0  0.75684  0.87536  0.15505  1.0000
  H   H1889     1.0  0.91143  0.83409  0.69075  1.0000
  C   C1107     1.0  0.79692  0.85419  0.23177  1.0000
  C   C1108     1.0  0.75192  0.91706  0.49606  1.0000
  C   C1109     1.0  0.79081  0.97600  0.44247  1.0000
  H   H1890     1.0  0.95934  0.83309  0.69040  1.0000
  H   H1891     1.0  0.75987  0.89609  0.24099  1.0000
  C   C1110     1.0  0.98810  0.81836  0.35323  1.0000
  C   C1111     1.0  0.98689  0.82516  0.31820  1.0000
  H   H1892     1.0  0.99531  0.80072  0.26678  1.0000
  N   N78       1.0  0.92584  0.85444  0.69134  1.0000
  H   H1893     1.0  0.95891  0.84902  0.65463  1.0000
  C   C1112     1.0  0.92434  0.85813  0.65131  1.0000
  H   H1894     1.0  0.98026  0.81115  0.52052  1.0000
  H   H1895     1.0  0.93282  0.84812  0.63566  1.0000
  H   H1896     1.0  0.80691  0.84455  0.21892  1.0000
  C   C1113     1.0  0.79451  0.98340  0.33608  1.0000
  H   H1897     1.0  0.93319  0.82768  0.67969  1.0000
  H   H1898     1.0  0.86735  0.80899  0.79721  1.0000
  H   H1899     1.0  0.91972  0.86032  0.76722  1.0000
  C   C1114     1.0  0.95852  0.84680  0.68416  1.0000
  H   H1900     1.0  0.89776  0.87133  0.64380  1.0000
  N   N79       1.0  0.76634  0.87037  0.22182  1.0000
  C   C1115     1.0  0.98960  0.80002  0.53012  1.0000
  H   H1901     1.0  0.76374  0.86321  0.14387  1.0000
  H   H1902     1.0  0.90863  0.87877  0.69579  1.0000
  H   H1903     1.0  0.92855  0.87029  0.64408  1.0000
  H   H1904     1.0  0.77039  0.90592  0.18808  1.0000
  H   H1905     1.0  0.99731  0.83038  0.30647  1.0000
  C   C1116     1.0  0.99206  0.77460  0.30756  1.0000
  H   H1906     1.0  0.99879  0.82776  0.50299  1.0000
  C   C1117     1.0  0.77121  0.88691  0.23184  1.0000
  H   H1907     1.0  0.75469  0.88654  0.57880  1.0000
  C   C1118     1.0  0.96941  0.78389  0.24396  1.0000
  H   H1908     1.0  0.82934  0.78024  0.68432  1.0000
  H   H1909     1.0  0.76416  0.88554  0.14981  1.0000
  H   H1910     1.0  0.83526  0.76999  0.72652  1.0000
  H   H1911     1.0  0.96071  0.78066  0.22350  1.0000
  H   H1912     1.0  0.99812  0.82044  0.45830  1.0000
  H   H1913     1.0  0.99552  0.79219  0.47548  1.0000
  C   C1119     1.0  0.75709  0.97589  0.48118  1.0000
  H   H1914     1.0  0.98463  0.76451  0.31418  1.0000
  H   H1915     1.0  0.80100  0.97456  0.42136  1.0000
  C   C1120     1.0  0.76002  0.86252  0.25574  1.0000
  H   H1916     1.0  0.99878  0.79311  0.20190  1.0000
  H   H1917     1.0  0.99564  0.80343  0.55468  1.0000
  N   N80       1.0  0.75796  0.98180  0.44255  1.0000
  H   H1918     1.0  0.98125  0.75794  0.25291  1.0000
  H   H1919     1.0  0.75873  0.96187  0.48299  1.0000
  H   H1920     1.0  0.75183  0.95018  0.41285  1.0000
