data_image0
_chemical_formula_structural       FeS2FeS2FeSFeS3FeS2FeS2FeHFeHS2FeHCFeS2FeSFeS3HCHCSHC3H4NH2C3H3C6H4CHC3H4SC6H4C6H2NH4C2H3NC5HC2H8C3H10C2H2SH3NHC2NCH3CHC2HC2H8C2HC2HC2H5SH5C3H5C2H5CSHCH2CH4CH2CHCH2CH4CH8C3H2SHCHFeHFeS2FeHFeHS2HFeS2HCFeSFeCSCFeSH3FeCFeSHSC2HC3HCH2C4H2C3HC4H5NH3C2HSH2C5H3CH4CH2CHCH2SHCSHCHCH2C2H2SNCH8C3H3CHN2H4CH3C2HCH3CHCH3CSH3C2H2NCHCH3CHCH2CHSH2SC3H2C3HSCHCHC3HSHC5H8CH3FeS2FeS2FeSFeS3FeS2FeS2FeCFeHS2FeH2FeS2FeHFeS3CH3SCHCH6CHSCH4C6H4CH2C3H2CHC6H4C4HCH5CSHNHC2H2CH3CSHC2H3C2SCH11C2H5CHNC8H14CH5C2NH2C2H2CH2C2H2CH3CH3C5NC8H21CH2CHC2H3SCHCH3NHCSH3C3H2C2HC2NCH4CH3C2H2CH5SFeSFeS2HC3S2CFeS2CHFeSFeSH2FeSH3SC2NH2C3SHC2H3CHFeCHCSCH2C3H10CFeH2C6H4C2HNC8H20C2H3CH3SHC2S2C2HCH4CH2C2HCH4C2HSH2FeHSH3C2HC2H3CH2NH2C2H2CFeCSH6CH6CHC3H2CSNSCH5C2H2C2H2CFeHFeS2H4S4FeS2FeS2FeHFeS3C6H4C6H5NHC2H2SC2HCH2NC2H4NCH4CH4C3HNHC2H2C3HC2H2CH3CHC4HC2HCH2CH2NH2CHCH5C2H4CHCFeH3CH5CHC2HC2HCH3CH3CH4C2HSHCH5C4HCHFeH9C2H3SH2C4H3CH9CH2CH4C4HCH3SH6NCH2CNSHSHFeSHFeS2Fe3S3FeSFeS2FeH3S2CH3CH5C4H5NH3C6H5C2SHC2H2C6H4C2HCH6C2H5NC8HCH9SH7SH11CHCH8C2FeNC4H2C2H6SCFeSH7CHCNC6H12C2H2C2SCH3CSH5CH2CSHNH7C2H2CH4CH3CH4SCHC4H2FeCFeS2H4S3HFeS2FeS2FeCFeS3C6H4C6H5CHC3H5FeHCH5C4HC2HC2SH6CH2CH3C2H2N2HCH3CH4C3HCFeHCH3CH2CH2C2HCH2CH2CHNH2CH3C2HC2H12SC3HC2HCH2CHCH3NCHC2H2C2H3CNHSH2C2HCH7CSCH5CH2CH3CHC2SH3C2H2SH8CSHFeSCFeS2FeHFeS3FeHFeS2H2FeCS2H2CH2CH5CH9C8H4CH3CH3FeC6H3CHCHC3H3C4SHCHC3H2NH2SH5CHC2H7FeSCH2CSN2C8H24CH2C2H4CH3CHCH2C2HSNFeCHC3H2SHCH3C2H4C2HCH4C2HCH4CH2SH3NHSNHCHCH3CH2C2SHCHC3FeSCFeSHFeSFeHFeS2H2FeHFeS3HSFeSNFeSFeS3CH2CH3C8FeH4C6H4CH2C2HCH3C2H3CHCHFeH3CH3CHC2H3CH4C2S2H2CH2CH2SC2H3C2HC3HSNCH3CNC2H8C2H4CH4C2H2CH6CH2SHCHCHNH5FeS2FeS2FeSFeS3FeSHFeSHFeSFeS3CSHFeSHFeCFeS2H2CHCHCHCH2C6H4C6H4C4HCHCH2C2HCH4NCH5CH6CH2NC2HC3HCH13CHNC2NC2H3CNC3HFeH4C2H4CHC2H8C2HC2SH4S2HC3H2CHCH5CH3C3HCHC2H3SH5CH4CH2CH3SHCH3CH7C2H2CH3CH2SH2CH2CH2CHCH4CHCNCFeSHFeSHFeSFeHFeS2H2FeHFeS3HCFeSHFeSFeS3CH2CH2CH2NC5H3C8H6SH7C2H2C2HCHCHC2HCHC2H3CHC2H4CH2C2H3CHSCH2CH7CHC2HFeCHCH2FeCHCH2CHC3H2NCHCH7CH4NH3CSH6CH2NCH2CHCH3CSCH2C2HFeS2FeS2FeSFeS3FeSCFeSHFeSFeS3FeSHFeSHFeCFeS2HCHC4H4C6H4C6H4C4SCH9C3HC2H3SHNHC3HCHNHCHCHC3HSCH5CH5CH6CHCHNHCNH3CHCSCH5CHCH4CHCNC8H20CH2CH2CHC2H2C3HCH3CH3CH3SHCH4NH5C2SH3CH3C2H6CHSH2NHCH7CH3CHCH5
_chemical_formula_sum              "Fe128 S256 H1536 C896 N64"
_cell_length_a       82.8947
_cell_length_b       47.7397
_cell_length_c       34.6757
_cell_angle_alpha    90.1364
_cell_angle_beta     90.0501
_cell_angle_gamma    90.1368

_space_group_name_H-M_alt    "P 1"
_space_group_IT_number       1

loop_
  _space_group_symop_operation_xyz
  'x, y, z'

loop_
  _atom_site_type_symbol
  _atom_site_label
  _atom_site_symmetry_multiplicity
  _atom_site_fract_x
  _atom_site_fract_y
  _atom_site_fract_z
  _atom_site_occupancy
  Fe  Fe1       1.0  0.16812  0.12208  0.29065  1.0000
  S   S1        1.0  0.17477  0.11064  0.22941  1.0000
  S   S2        1.0  0.14215  0.13836  0.30037  1.0000
  Fe  Fe2       1.0  0.20400  0.11650  0.31813  1.0000
  S   S3        1.0  0.21245  0.10441  0.25839  1.0000
  S   S4        1.0  0.21956  0.12721  0.37209  1.0000
  Fe  Fe3       1.0  0.19624  0.13935  0.23691  1.0000
  S   S5        1.0  0.20479  0.16895  0.18845  1.0000
  Fe  Fe4       1.0  0.19030  0.07666  0.25507  1.0000
  S   S6        1.0  0.18848  0.02999  0.23694  1.0000
  S   S7        1.0  0.18886  0.15271  0.29633  1.0000
  S   S8        1.0  0.18258  0.08682  0.31650  1.0000
  Fe  Fe5       1.0  0.18999  0.39681  0.09564  1.0000
  S   S9        1.0  0.19167  0.39759  0.03084  1.0000
  S   S10       1.0  0.18108  0.43392  0.13302  1.0000
  Fe  Fe6       1.0  0.19412  0.33186  0.09739  1.0000
  S   S11       1.0  0.19614  0.32893  0.03216  1.0000
  S   S12       1.0  0.19190  0.29809  0.14520  1.0000
  Fe  Fe7       1.0  0.21241  0.36705  0.03617  1.0000
  H   H1        1.0  0.14514  0.47060  0.12018  1.0000
  Fe  Fe8       1.0  0.17539  0.35977  0.03056  1.0000
  H   H2        1.0  0.07583  0.14666  0.47504  1.0000
  S   S13       1.0  0.21160  0.36844  0.10182  1.0000
  S   S14       1.0  0.17244  0.36046  0.09471  1.0000
  Fe  Fe9       1.0  0.01958  0.09367  0.42175  1.0000
  H   H3        1.0  0.07856  0.26080  0.43330  1.0000
  C   C1        1.0  0.17733  0.48288  0.17492  1.0000
  Fe  Fe10      1.0  0.05306  0.11349  0.39283  1.0000
  S   S15       1.0  0.04279  0.15286  0.36811  1.0000
  S   S16       1.0  0.07966  0.10010  0.39698  1.0000
  Fe  Fe11      1.0  0.02772  0.15736  0.42173  1.0000
  S   S17       1.0  0.02860  0.20007  0.45307  1.0000
  Fe  Fe12      1.0  0.02263  0.12558  0.34550  1.0000
  S   S18       1.0  0.01785  0.13858  0.28332  1.0000
  S   S19       1.0  0.03949  0.11953  0.44847  1.0000
  S   S20       1.0  0.03381  0.08546  0.36729  1.0000
  H   H4        1.0  0.20449  0.22290  0.34021  1.0000
  C   C2        1.0  0.02811  0.15401  0.02061  1.0000
  H   H5        1.0  0.09592  0.18394  0.39183  1.0000
  C   C3        1.0  0.09521  0.22548  0.44349  1.0000
  S   S21       1.0  0.28757  0.10385  0.45820  1.0000
  H   H6        1.0  0.31084  0.40433  0.99508  1.0000
  C   C4        1.0  0.00671  0.00650  0.44337  1.0000
  C   C5        1.0  0.10595  0.46567  0.06712  1.0000
  C   C6        1.0  0.00954  0.20722  0.34920  1.0000
  H   H7        1.0  0.11062  0.42817  0.09781  1.0000
  H   H8        1.0  0.02881  0.13327  0.03499  1.0000
  H   H9        1.0  0.06109  0.22220  0.43934  1.0000
  H   H10       1.0  0.11302  0.14911  0.42060  1.0000
  N   N1        1.0  0.05605  0.01616  0.47411  1.0000
  H   H11       1.0  0.10114  0.22870  0.41505  1.0000
  H   H12       1.0  0.13658  0.23162  0.10398  1.0000
  C   C7        1.0  0.24849  0.21680  0.28608  1.0000
  C   C8        1.0  0.12616  0.35989  0.02163  1.0000
  C   C9        1.0  0.10917  0.36237  0.02261  1.0000
  H   H13       1.0  0.05792  0.16818  0.47982  1.0000
  H   H14       1.0  0.13290  0.35718  0.04806  1.0000
  H   H15       1.0  0.00170  0.36882  0.01802  1.0000
  C   C10       1.0  0.20159  0.20518  0.17761  1.0000
  C   C11       1.0  0.20611  0.21548  0.14112  1.0000
  C   C12       1.0  0.20329  0.24369  0.13062  1.0000
  C   C13       1.0  0.19595  0.26218  0.15661  1.0000
  C   C14       1.0  0.19154  0.25188  0.19325  1.0000
  C   C15       1.0  0.19433  0.22367  0.20371  1.0000
  H   H16       1.0  0.21173  0.20147  0.12059  1.0000
  H   H17       1.0  0.20680  0.25113  0.10239  1.0000
  H   H18       1.0  0.18591  0.26593  0.21371  1.0000
  H   H19       1.0  0.19086  0.21623  0.23189  1.0000
  C   C16       1.0  0.18791  0.46693  0.15182  1.0000
  H   H20       1.0  0.10219  0.45348  0.04127  1.0000
  C   C17       1.0  0.20122  0.01646  0.16410  1.0000
  C   C18       1.0  0.19404  0.00698  0.19824  1.0000
  C   C19       1.0  0.01070  0.24537  0.01564  1.0000
  H   H21       1.0  0.01538  0.15068  0.20301  1.0000
  H   H22       1.0  0.01242  0.31906  0.03091  1.0000
  H   H23       1.0  0.20382  0.03853  0.16077  1.0000
  H   H24       1.0  0.02188  0.16795  0.04153  1.0000
  S   S22       1.0  0.00694  0.13216  0.39805  1.0000
  C   C20       1.0  0.12483  0.12640  0.32652  1.0000
  C   C21       1.0  0.12544  0.10414  0.35269  1.0000
  C   C22       1.0  0.11149  0.09618  0.37351  1.0000
  C   C23       1.0  0.09665  0.11001  0.36817  1.0000
  C   C24       1.0  0.09598  0.13206  0.34166  1.0000
  C   C25       1.0  0.10999  0.14034  0.32137  1.0000
  H   H25       1.0  0.13671  0.09324  0.35724  1.0000
  H   H26       1.0  0.11224  0.07918  0.39401  1.0000
  H   H27       1.0  0.08472  0.14295  0.33711  1.0000
  H   H28       1.0  0.10930  0.15766  0.30145  1.0000
  C   C26       1.0  0.23844  0.11984  0.39582  1.0000
  C   C27       1.0  0.25006  0.10178  0.38027  1.0000
  C   C28       1.0  0.26490  0.09730  0.39970  1.0000
  C   C29       1.0  0.26849  0.11068  0.43507  1.0000
  C   C30       1.0  0.25691  0.12892  0.45045  1.0000
  C   C31       1.0  0.24208  0.13345  0.43098  1.0000
  H   H29       1.0  0.24761  0.09113  0.35333  1.0000
  H   H30       1.0  0.27366  0.08315  0.38731  1.0000
  N   N2        1.0  0.13409  0.44264  0.07849  1.0000
  H   H31       1.0  0.23331  0.14755  0.44344  1.0000
  H   H32       1.0  0.25935  0.13948  0.47747  1.0000
  H   H33       1.0  0.10298  0.36194  0.05005  1.0000
  H   H34       1.0  0.04040  0.16251  0.01723  1.0000
  C   C32       1.0  0.06327  0.02982  0.40390  1.0000
  C   C33       1.0  0.25224  0.17485  0.32605  1.0000
  H   H35       1.0  0.16542  0.47481  0.18113  1.0000
  H   H36       1.0  0.08052  0.22921  0.37455  1.0000
  H   H37       1.0  0.10483  0.15391  0.46759  1.0000
  N   N3        1.0  0.14636  0.18828  0.18249  1.0000
  C   C34       1.0  0.13676  0.20020  0.14940  1.0000
  C   C35       1.0  0.13749  0.16312  0.19811  1.0000
  C   C36       1.0  0.16286  0.17929  0.16932  1.0000
  C   C37       1.0  0.14837  0.21072  0.21285  1.0000
  C   C38       1.0  0.20331  0.47775  0.14443  1.0000
  H   H38       1.0  0.14443  0.39616  0.15323  1.0000
  C   C39       1.0  0.16332  0.15706  0.13701  1.0000
  C   C40       1.0  0.15530  0.20096  0.25208  1.0000
  H   H39       1.0  0.12643  0.41657  0.15309  1.0000
  H   H40       1.0  0.03532  0.20422  0.98776  1.0000
  H   H41       1.0  0.14508  0.15130  0.21889  1.0000
  H   H42       1.0  0.13484  0.14785  0.17466  1.0000
  H   H43       1.0  0.17002  0.19759  0.15941  1.0000
  H   H44       1.0  0.16991  0.17045  0.19364  1.0000
  H   H45       1.0  0.15646  0.22770  0.20225  1.0000
  H   H46       1.0  0.13659  0.22102  0.21880  1.0000
  C   C41       1.0  0.20510  0.99732  0.13427  1.0000
  C   C42       1.0  0.13907  0.41606  0.14270  1.0000
  C   C43       1.0  0.00399  0.12653  0.24790  1.0000
  H   H47       1.0  0.11232  0.17841  0.19755  1.0000
  H   H48       1.0  0.11126  0.48583  0.05808  1.0000
  H   H49       1.0  0.25216  0.17447  0.23256  1.0000
  H   H50       1.0  0.15856  0.13659  0.14702  1.0000
  H   H51       1.0  0.09474  0.47054  0.08333  1.0000
  H   H52       1.0  0.15687  0.16384  0.11067  1.0000
  H   H53       1.0  0.16436  0.21641  0.26248  1.0000
  H   H54       1.0  0.16134  0.18035  0.25145  1.0000
  H   H55       1.0  0.14572  0.20057  0.27444  1.0000
  H   H56       1.0  0.02168  0.46575  0.44403  1.0000
  C   C44       1.0  0.06974  0.21623  0.38044  1.0000
  C   C45       1.0  0.14240  0.49486  0.06939  1.0000
  H   H57       1.0  0.12251  0.18271  0.24353  1.0000
  H   H58       1.0  0.01631  0.22141  0.36893  1.0000
  S   S23       1.0  0.07867  0.36843  0.99177  1.0000
  H   H59       1.0  0.06988  0.19785  0.36072  1.0000
  H   H60       1.0  0.06065  0.18785  0.42228  1.0000
  H   H61       1.0  0.05920  0.22960  0.37332  1.0000
  N   N4        1.0  0.08415  0.20032  0.44285  1.0000
  H   H62       1.0  0.15574  0.21535  0.10951  1.0000
  C   C46       1.0  0.12118  0.16917  0.21776  1.0000
  C   C47       1.0  0.01503  0.48080  0.46111  1.0000
  N   N5        1.0  0.23998  0.19215  0.30428  1.0000
  C   C48       1.0  0.11723  0.44829  0.09315  1.0000
  H   H63       1.0  0.29087  0.37120  0.01446  1.0000
  H   H64       1.0  0.01715  0.20400  0.32332  1.0000
  H   H65       1.0  0.26248  0.16884  0.30704  1.0000
  C   C49       1.0  0.00282  0.02690  0.47088  1.0000
  H   H66       1.0  0.22276  0.18341  0.25805  1.0000
  C   C50       1.0  0.01461  0.22716  0.46595  1.0000
  C   C51       1.0  0.09231  0.17691  0.42119  1.0000
  H   H67       1.0  0.01081  0.13214  0.98588  1.0000
  C   C52       1.0  0.99911  0.22500  0.00592  1.0000
  C   C53       1.0  0.10761  0.16491  0.44026  1.0000
  H   H68       1.0  0.01177  0.01283  0.41598  1.0000
  H   H69       1.0  0.27021  0.17556  0.37180  1.0000
  H   H70       1.0  0.00171  0.19062  0.27424  1.0000
  H   H71       1.0  0.07632  0.03406  0.40801  1.0000
  H   H72       1.0  0.06119  0.00842  0.39262  1.0000
  H   H73       1.0  0.05933  0.04442  0.38090  1.0000
  H   H74       1.0  0.08520  0.99618  0.43759  1.0000
  H   H75       1.0  0.15541  0.41043  0.02832  1.0000
  C   C54       1.0  0.24386  0.15914  0.24598  1.0000
  C   C55       1.0  0.06846  0.20676  0.42291  1.0000
  H   H76       1.0  0.13300  0.18342  0.12890  1.0000
  C   C56       1.0  0.15016  0.43006  0.01699  1.0000
  C   C57       1.0  0.13436  0.36046  0.98641  1.0000
  H   H77       1.0  0.01661  0.34457  0.06682  1.0000
  C   C58       1.0  0.14542  0.46632  0.08866  1.0000
  C   C59       1.0  0.00667  0.33261  0.05284  1.0000
  H   H78       1.0  0.22575  0.15567  0.29020  1.0000
  H   H79       1.0  0.08381  0.15925  0.41587  1.0000
  H   H80       1.0  0.17611  0.15352  0.12877  1.0000
  H   H81       1.0  0.12863  0.45434  0.01904  1.0000
  H   H82       1.0  0.23283  0.21513  0.35561  1.0000
  S   S24       1.0  0.23508  0.37911  0.00017  1.0000
  H   H83       1.0  0.14897  0.24144  0.14384  1.0000
  H   H84       1.0  0.26071  0.21040  0.27601  1.0000
  H   H85       1.0  0.11768  0.45887  0.12182  1.0000
  H   H86       1.0  0.01528  0.24641  0.04484  1.0000
  H   H87       1.0  0.05732  0.05789  0.44911  1.0000
  C   C60       1.0  0.21332  0.21925  0.31665  1.0000
  C   C61       1.0  0.08733  0.25349  0.45527  1.0000
  C   C62       1.0  0.00498  0.02315  0.01498  1.0000
  H   H88       1.0  0.15428  0.99850  0.09252  1.0000
  H   H89       1.0  0.23672  0.14932  0.22239  1.0000
  H   H90       1.0  0.21746  0.24020  0.30707  1.0000
  H   H91       1.0  0.15310  0.41283  0.09129  1.0000
  H   H92       1.0  0.09683  0.26987  0.45752  1.0000
  C   C63       1.0  0.05371  0.03621  0.44095  1.0000
  C   C64       1.0  0.01638  0.26451  0.98792  1.0000
  H   H93       1.0  0.13853  0.49330  0.03899  1.0000
  H   H94       1.0  0.25061  0.23355  0.30793  1.0000
  H   H95       1.0  0.25089  0.14208  0.25969  1.0000
  H   H96       1.0  0.24683  0.15468  0.33561  1.0000
  H   H97       1.0  0.00813  0.18718  0.36469  1.0000
  C   C65       1.0  0.14019  0.41652  0.09820  1.0000
  S   S25       1.0  0.00700  0.06336  0.46403  1.0000
  H   H98       1.0  0.24213  0.25348  0.25184  1.0000
  C   C66       1.0  0.24024  0.23045  0.25063  1.0000
  H   H99       1.0  0.15890  0.44751  0.02037  1.0000
  H   H100      1.0  0.13356  0.39771  0.08764  1.0000
  C   C67       1.0  0.23223  0.17290  0.27510  1.0000
  H   H101      1.0  0.22201  0.18344  0.34788  1.0000
  H   H102      1.0  0.10540  0.22209  0.46387  1.0000
  H   H103      1.0  0.12550  0.41877  0.02951  1.0000
  H   H104      1.0  0.04068  0.03746  0.43302  1.0000
  C   C68       1.0  0.22738  0.20178  0.33274  1.0000
  H   H105      1.0  0.30849  0.35046  0.00783  1.0000
  H   H106      1.0  0.20662  0.20844  0.29334  1.0000
  C   C69       1.0  0.14519  0.22340  0.12574  1.0000
  H   H107      1.0  0.22709  0.22717  0.24812  1.0000
  C   C70       1.0  0.29959  0.36359  0.99248  1.0000
  H   H108      1.0  0.12528  0.20946  0.15999  1.0000
  H   H109      1.0  0.15824  0.46053  0.08354  1.0000
  C   C71       1.0  0.13374  0.43671  0.03572  1.0000
  H   H110      1.0  0.11600  0.14903  0.22807  1.0000
  H   H111      1.0  0.21161  0.46592  0.12674  1.0000
  H   H112      1.0  0.25124  0.18901  0.38651  1.0000
  H   H113      1.0  0.24609  0.22346  0.22345  1.0000
  C   C72       1.0  0.25988  0.18858  0.36204  1.0000
  H   H114      1.0  0.26451  0.20993  0.35612  1.0000
  H   H115      1.0  0.02537  0.28000  0.99566  1.0000
  H   H116      1.0  0.14611  0.43316  0.15636  1.0000
  H   H117      1.0  0.00053  0.03475  0.03961  1.0000
  H   H118      1.0  0.11692  0.18121  0.44526  1.0000
  H   H119      1.0  0.14835  0.42666  0.98557  1.0000
  H   H120      1.0  0.21069  0.00502  0.10821  1.0000
  H   H121      1.0  0.00100  0.31983  0.07582  1.0000
  C   C73       1.0  0.00556  0.13662  0.21002  1.0000
  C   C74       1.0  0.99825  0.22611  0.45597  1.0000
  C   C75       1.0  0.10008  0.36491  0.98840  1.0000
  H   H122      1.0  0.23705  0.00189  0.06518  1.0000
  H   H123      1.0  0.00871  0.16895  0.98436  1.0000
  S   S26       1.0  0.15583  0.35808  0.98346  1.0000
  H   H124      1.0  0.09756  0.00017  0.47928  1.0000
  C   C76       1.0  0.01784  0.15197  0.98331  1.0000
  H   H125      1.0  0.03295  0.10091  0.98251  1.0000
  Fe  Fe13      1.0  0.05734  0.36768  0.94899  1.0000
  H   H126      1.0  0.02285  0.13637  0.88736  1.0000
  Fe  Fe14      1.0  0.04004  0.37840  0.87153  1.0000
  S   S27       1.0  0.01602  0.36640  0.89541  1.0000
  S   S28       1.0  0.04118  0.39559  0.81015  1.0000
  Fe  Fe15      1.0  0.02292  0.39203  0.94717  1.0000
  H   H127      1.0  0.28897  0.44565  0.56283  1.0000
  Fe  Fe16      1.0  0.02892  0.33037  0.92335  1.0000
  H   H128      1.0  0.27095  0.13756  0.66887  1.0000
  S   S29       1.0  0.04643  0.40644  0.92204  1.0000
  S   S30       1.0  0.05293  0.34075  0.89615  1.0000
  H   H129      1.0  0.13141  0.36323  0.92472  1.0000
  Fe  Fe17      1.0  0.30002  0.35512  0.81677  1.0000
  S   S31       1.0  0.29627  0.35480  0.75196  1.0000
  S   S32       1.0  0.28056  0.33890  0.85945  1.0000
  H   H130      1.0  0.27403  0.11275  0.70754  1.0000
  C   C77       1.0  0.31883  0.15533  0.70590  1.0000
  Fe  Fe18      1.0  0.31021  0.39590  0.75124  1.0000
  S   S33       1.0  0.30063  0.43694  0.72431  1.0000
  Fe  Fe19      1.0  0.32056  0.33343  0.74815  1.0000
  C   C78       1.0  0.00608  0.03620  0.97903  1.0000
  S   S34       1.0  0.31255  0.39694  0.81610  1.0000
  C   C79       1.0  0.27716  0.48097  0.59264  1.0000
  Fe  Fe20      1.0  0.30234  0.11484  0.51329  1.0000
  S   S35       1.0  0.29330  0.11695  0.57485  1.0000
  H   H131      1.0  0.21133  0.31612  0.89768  1.0000
  H   H132      1.0  0.04819  0.46664  0.88358  1.0000
  H   H133      1.0  0.25794  0.40834  0.95214  1.0000
  Fe  Fe21      1.0  0.31473  0.08993  0.59082  1.0000
  C   C80       1.0  0.30718  0.38907  0.97228  1.0000
  Fe  Fe22      1.0  0.30997  0.15453  0.58108  1.0000
  S   S36       1.0  0.30062  0.19322  0.61430  1.0000
  H   H134      1.0  0.01432  0.29048  0.51359  1.0000
  S   S37       1.0  0.31806  0.15369  0.51888  1.0000
  C   C81       1.0  0.32163  0.26733  0.68597  1.0000
  C   C82       1.0  0.24788  0.36724  0.96162  1.0000
  H   H135      1.0  0.29427  0.08563  0.73455  1.0000
  C   C83       1.0  0.30922  0.22151  0.64162  1.0000
  C   C84       1.0  0.29885  0.24110  0.65926  1.0000
  C   C85       1.0  0.30497  0.26378  0.68127  1.0000
  H   H136      1.0  0.19925  0.29944  0.93373  1.0000
  C   C86       1.0  0.01783  0.46969  0.97915  1.0000
  H   H137      1.0  0.28595  0.23888  0.65559  1.0000
  H   H138      1.0  0.29678  0.27870  0.69420  1.0000
  C   C87       1.0  0.30806  0.46314  0.69182  1.0000
  C   C88       1.0  0.01204  0.02078  0.94746  1.0000
  C   C89       1.0  0.04002  0.10430  0.95580  1.0000
  C   C90       1.0  0.31429  0.02380  0.65343  1.0000
  H   H139      1.0  0.01643  0.47044  0.75898  1.0000
  H   H140      1.0  0.31866  0.44505  0.89080  1.0000
  C   C91       1.0  0.32588  0.22480  0.64680  1.0000
  C   C92       1.0  0.00496  0.35691  0.74990  1.0000
  C   C93       1.0  0.27841  0.11969  0.67893  1.0000
  H   H141      1.0  0.27709  0.43615  0.60333  1.0000
  C   C94       1.0  0.02739  0.38527  0.77332  1.0000
  C   C95       1.0  0.02811  0.39819  0.73688  1.0000
  C   C96       1.0  0.01735  0.39045  0.70703  1.0000
  C   C97       1.0  0.01565  0.36471  0.77971  1.0000
  H   H142      1.0  0.03716  0.41408  0.73156  1.0000
  H   H143      1.0  0.01814  0.40035  0.67907  1.0000
  H   H144      1.0  0.26705  0.44524  0.55944  1.0000
  H   H145      1.0  0.22075  0.40945  0.88158  1.0000
  H   H146      1.0  0.18551  0.34499  0.94837  1.0000
  N   N6        1.0  0.32115  0.38346  0.94539  1.0000
  H   H147      1.0  0.21261  0.35393  0.85835  1.0000
  H   H148      1.0  0.03239  0.02290  0.49897  1.0000
  H   H149      1.0  0.04831  0.13691  0.91767  1.0000
  C   C98       1.0  0.00989  0.48416  0.81693  1.0000
  C   C99       1.0  0.32505  0.47861  0.63838  1.0000
  H   H150      1.0  0.18918  0.38401  0.80941  1.0000
  S   S38       1.0  0.00163  0.36374  0.55945  1.0000
  H   H151      1.0  0.04362  0.22033  0.94630  1.0000
  H   H152      1.0  0.03424  0.09260  0.93177  1.0000
  C   C100      1.0  0.26796  0.37863  0.91149  1.0000
  C   C101      1.0  0.26813  0.35077  0.89865  1.0000
  C   C102      1.0  0.25814  0.33128  0.91773  1.0000
  C   C103      1.0  0.24812  0.33938  0.94887  1.0000
  C   C104      1.0  0.00328  0.45488  0.98082  1.0000
  H   H153      1.0  0.27538  0.39404  0.89708  1.0000
  H   H154      1.0  0.25818  0.30964  0.90840  1.0000
  H   H155      1.0  0.18102  0.32980  0.90281  1.0000
  C   C105      1.0  0.32644  0.41128  0.92879  1.0000
  H   H156      1.0  0.01177  0.11851  0.92362  1.0000
  H   H157      1.0  0.10152  0.36704  0.92658  1.0000
  H   H158      1.0  0.27848  0.16378  0.72392  1.0000
  H   H159      1.0  0.28559  0.20745  0.75006  1.0000
  C   C106      1.0  0.03705  0.47908  0.87889  1.0000
  H   H160      1.0  0.26741  0.48176  0.61464  1.0000
  H   H161      1.0  0.30344  0.10813  0.67632  1.0000
  C   C107      1.0  0.00271  0.49526  0.88394  1.0000
  H   H162      1.0  0.02010  0.44892  0.90118  1.0000
  C   C108      1.0  0.00067  0.15623  0.90404  1.0000
  H   H163      1.0  0.31151  0.32510  0.94581  1.0000
  H   H164      1.0  0.04113  0.05927  0.54808  1.0000
  S   S39       1.0  0.99998  0.07151  0.97198  1.0000
  H   H165      1.0  0.06029  0.06206  0.52429  1.0000
  C   C109      1.0  0.27752  0.45041  0.57803  1.0000
  S   S40       1.0  0.00230  0.41840  0.97123  1.0000
  H   H166      1.0  0.21944  0.36775  0.92131  1.0000
  C   C110      1.0  0.12529  0.36297  0.95221  1.0000
  H   H167      1.0  0.25921  0.48240  0.52145  1.0000
  C   C111      1.0  0.04529  0.02568  0.50674  1.0000
  H   H168      1.0  0.31916  0.16760  0.67859  1.0000
  H   H169      1.0  0.21048  0.38659  0.81174  1.0000
  C   C112      1.0  0.01602  0.13967  0.91469  1.0000
  C   C113      1.0  0.31308  0.42917  0.91005  1.0000
  H   H170      1.0  0.31166  0.32129  0.89497  1.0000
  H   H171      1.0  0.02717  0.44154  0.85471  1.0000
  S   S41       1.0  0.31921  0.05929  0.64137  1.0000
  N   N7        1.0  0.30192  0.14491  0.71355  1.0000
  C   C114      1.0  0.16500  0.37587  0.88220  1.0000
  H   H172      1.0  0.29102  0.49410  0.71144  1.0000
  H   H173      1.0  0.15974  0.35781  0.89788  1.0000
  H   H174      1.0  0.28991  0.18069  0.68780  1.0000
  H   H175      1.0  0.29236  0.35091  0.97184  1.0000
  H   H176      1.0  0.03335  0.47681  0.78886  1.0000
  H   H177      1.0  0.24967  0.49214  0.56542  1.0000
  H   H178      1.0  0.32625  0.43761  0.66515  1.0000
  H   H179      1.0  0.27648  0.10226  0.65810  1.0000
  C   C115      1.0  0.29099  0.17016  0.71624  1.0000
  C   C116      1.0  0.01035  0.26362  0.95030  1.0000
  C   C117      1.0  0.10828  0.36511  0.95313  1.0000
  H   H180      1.0  0.02896  0.45870  0.97319  1.0000
  H   H181      1.0  0.16722  0.36992  0.85180  1.0000
  H   H182      1.0  0.30481  0.08862  0.77911  1.0000
  C   C118      1.0  0.29645  0.12776  0.67936  1.0000
  H   H183      1.0  0.00357  0.17429  0.88511  1.0000
  N   N8        1.0  0.02673  0.15255  0.94535  1.0000
  N   N9        1.0  0.00755  0.47197  0.85672  1.0000
  H   H184      1.0  0.19870  0.40806  0.84251  1.0000
  H   H185      1.0  0.01299  0.03068  0.91953  1.0000
  H   H186      1.0  0.18254  0.40820  0.89061  1.0000
  H   H187      1.0  0.01499  0.35441  0.80739  1.0000
  C   C119      1.0  0.30421  0.09699  0.74928  1.0000
  H   H188      1.0  0.00785  0.41269  0.83915  1.0000
  H   H189      1.0  0.32296  0.16995  0.72886  1.0000
  H   H190      1.0  0.15564  0.39249  0.88237  1.0000
  C   C120      1.0  0.31617  0.36437  0.91265  1.0000
  C   C121      1.0  0.29587  0.19288  0.74582  1.0000
  H   H191      1.0  0.03284  0.25185  0.49475  1.0000
  C   C122      1.0  0.19940  0.38690  0.82978  1.0000
  H   H192      1.0  0.19239  0.34538  0.84642  1.0000
  H   H193      1.0  0.21267  0.32659  0.94801  1.0000
  H   H194      1.0  0.03607  0.18234  0.90394  1.0000
  C   C123      1.0  0.20008  0.36233  0.85887  1.0000
  H   H195      1.0  0.03915  0.49276  0.85365  1.0000
  C   C124      1.0  0.25800  0.38670  0.94278  1.0000
  H   H196      1.0  0.30601  0.20589  0.73485  1.0000
  H   H197      1.0  0.28861  0.48441  0.60867  1.0000
  H   H198      1.0  0.29739  0.01691  0.60730  1.0000
  C   C125      1.0  0.30107  0.12892  0.75109  1.0000
  S   S42       1.0  0.32291  0.08531  0.52914  1.0000
  H   H199      1.0  0.29900  0.18392  0.77430  1.0000
  H   H200      1.0  0.29881  0.13935  0.65214  1.0000
  H   H201      1.0  0.05102  0.14419  0.96679  1.0000
  C   C126      1.0  0.20860  0.38131  0.92256  1.0000
  C   C127      1.0  0.20443  0.31985  0.92453  1.0000
  H   H202      1.0  0.05337  0.18998  0.96475  1.0000
  H   H203      1.0  0.28783  0.47954  0.51901  1.0000
  N   N10       1.0  0.19496  0.36844  0.89980  1.0000
  C   C128      1.0  0.18032  0.38707  0.90241  1.0000
  H   H204      1.0  0.30968  0.13795  0.77246  1.0000
  C   C129      1.0  0.21464  0.41038  0.90998  1.0000
  H   H205      1.0  0.20524  0.38290  0.95360  1.0000
  H   H206      1.0  0.22398  0.41745  0.93093  1.0000
  H   H207      1.0  0.20511  0.42656  0.91043  1.0000
  C   C130      1.0  0.04140  0.19963  0.95998  1.0000
  H   H208      1.0  0.28898  0.13116  0.76475  1.0000
  C   C131      1.0  0.19060  0.34108  0.91915  1.0000
  H   H209      1.0  0.17716  0.39099  0.93322  1.0000
  H   H210      1.0  0.02167  0.44509  0.79389  1.0000
  C   C132      1.0  0.32165  0.01143  0.68589  1.0000
  H   H211      1.0  0.30354  0.36876  0.90394  1.0000
  S   S43       1.0  0.03380  0.35489  0.97744  1.0000
  H   H212      1.0  0.30465  0.41648  0.89239  1.0000
  H   H213      1.0  0.01926  0.19476  0.93075  1.0000
  S   S44       1.0  0.01634  0.28817  0.91489  1.0000
  C   C133      1.0  0.02268  0.45893  0.87284  1.0000
  C   C134      1.0  0.00577  0.36957  0.71334  1.0000
  C   C135      1.0  0.30061  0.48969  0.69119  1.0000
  H   H214      1.0  0.05207  0.09475  0.96035  1.0000
  H   H215      1.0  0.03534  0.49213  0.90512  1.0000
  C   C136      1.0  0.00494  0.47104  0.49100  1.0000
  C   C137      1.0  0.07336  0.01658  0.48798  1.0000
  C   C138      1.0  0.02026  0.25067  0.48671  1.0000
  H   H216      1.0  0.09194  0.18967  0.50083  1.0000
  S   S45       1.0  0.00378  0.43414  0.50006  1.0000
  C   C139      1.0  0.32045  0.45788  0.66538  1.0000
  H   H217      1.0  0.29693  0.39892  0.95670  1.0000
  C   C140      1.0  0.08060  0.19213  0.48399  1.0000
  H   H218      1.0  0.30612  0.44077  0.93227  1.0000
  C   C141      1.0  0.00976  0.27269  0.49753  1.0000
  C   C142      1.0  0.04210  0.13568  0.94613  1.0000
  C   C143      1.0  0.07054  0.16520  0.48952  1.0000
  H   H219      1.0  0.31567  0.09140  0.73498  1.0000
  S   S46       1.0  0.32361  0.33131  0.81284  1.0000
  H   H220      1.0  0.06991  0.16031  0.52078  1.0000
  C   C144      1.0  0.31755  0.33244  0.91937  1.0000
  C   C145      1.0  0.03048  0.18221  0.93317  1.0000
  C   C146      1.0  0.04745  0.05629  0.52012  1.0000
  C   C147      1.0  0.30332  0.00775  0.63204  1.0000
  C   C148      1.0  0.02098  0.46783  0.78891  1.0000
  H   H221      1.0  0.24076  0.32393  0.96333  1.0000
  H   H222      1.0  0.04715  0.01257  0.53288  1.0000
  H   H223      1.0  0.07409  0.01265  0.51960  1.0000
  H   H224      1.0  0.00179  0.48727  0.91388  1.0000
  H   H225      1.0  0.32348  0.36856  0.88637  1.0000
  H   H226      1.0  0.04167  0.07090  0.49954  1.0000
  H   H227      1.0  0.07379  0.20901  0.49896  1.0000
  H   H228      1.0  0.99803  0.48696  0.80236  1.0000
  C   C149      1.0  0.99893  0.24299  0.94043  1.0000
  H   H229      1.0  0.32924  0.11564  0.68348  1.0000
  H   H230      1.0  0.08130  0.25226  0.48373  1.0000
  H   H231      1.0  0.07873  0.03782  0.48404  1.0000
  Fe  Fe23      1.0  0.16605  0.60804  0.29551  1.0000
  S   S47       1.0  0.16918  0.61084  0.23093  1.0000
  S   S48       1.0  0.14149  0.59106  0.31655  1.0000
  Fe  Fe24      1.0  0.20211  0.62308  0.31086  1.0000
  S   S49       1.0  0.20672  0.62727  0.24687  1.0000
  S   S50       1.0  0.22424  0.63489  0.34922  1.0000
  Fe  Fe25      1.0  0.18324  0.65065  0.24269  1.0000
  S   S51       1.0  0.17640  0.69162  0.21076  1.0000
  Fe  Fe26      1.0  0.19236  0.58711  0.23989  1.0000
  S   S52       1.0  0.20421  0.55292  0.20208  1.0000
  S   S53       1.0  0.17909  0.64879  0.30722  1.0000
  S   S54       1.0  0.18873  0.58210  0.30397  1.0000
  Fe  Fe27      1.0  0.20001  0.90044  0.08025  1.0000
  S   S55       1.0  0.19108  0.90151  0.01926  1.0000
  S   S56       1.0  0.20697  0.94540  0.09893  1.0000
  Fe  Fe28      1.0  0.19723  0.83551  0.08025  1.0000
  S   S57       1.0  0.18800  0.83422  0.01847  1.0000
  S   S58       1.0  0.20507  0.79611  0.11445  1.0000
  Fe  Fe29      1.0  0.20781  0.86581  0.00542  1.0000
  C   C150      1.0  0.25205  0.54559  0.33326  1.0000
  Fe  Fe30      1.0  0.17211  0.87050  0.03695  1.0000
  H   H232      1.0  0.26865  0.54538  0.26005  1.0000
  S   S59       1.0  0.21763  0.86577  0.06594  1.0000
  S   S60       1.0  0.18047  0.87049  0.09915  1.0000
  Fe  Fe31      1.0  0.02080  0.59815  0.42458  1.0000
  H   H233      1.0  0.06522  0.58405  0.44603  1.0000
  H   H234      1.0  0.03196  0.79406  0.99546  1.0000
  Fe  Fe32      1.0  0.05110  0.62943  0.39629  1.0000
  S   S61       1.0  0.03662  0.65765  0.35761  1.0000
  S   S62       1.0  0.07836  0.63629  0.40367  1.0000
  Fe  Fe33      1.0  0.01902  0.66184  0.40726  1.0000
  H   H235      1.0  0.23827  0.99152  0.99699  1.0000
  Fe  Fe34      1.0  0.02292  0.61872  0.34095  1.0000
  S   S63       1.0  0.02047  0.60195  0.27948  1.0000
  S   S64       1.0  0.03438  0.63599  0.44713  1.0000
  S   S65       1.0  0.03854  0.59014  0.37678  1.0000
  C   C151      1.0  0.25196  0.60458  0.25680  1.0000
  H   H236      1.0  0.24817  0.52327  0.33468  1.0000
  H   H237      1.0  0.17871  0.98387  0.05444  1.0000
  H   H238      1.0  0.25744  0.53933  0.20041  1.0000
  S   S66       1.0  0.00464  0.55066  0.99713  1.0000
  C   C152      1.0  0.07137  0.76383  0.06045  1.0000
  H   H239      1.0  0.00887  0.50927  0.33129  1.0000
  C   C153      1.0  0.08509  0.99536  0.46943  1.0000
  H   H240      1.0  0.18539  0.97039  0.22813  1.0000
  H   H241      1.0  0.25514  0.51771  0.27161  1.0000
  H   H242      1.0  0.15727  0.91755  0.09120  1.0000
  H   H243      1.0  0.99959  0.59533  0.14707  1.0000
  H   H244      1.0  0.07073  0.74356  0.04512  1.0000
  H   H245      1.0  0.17373  0.52096  0.20814  1.0000
  C   C154      1.0  0.24350  0.98254  0.05632  1.0000
  H   H246      1.0  0.04825  0.73161  0.01934  1.0000
  S   S67       1.0  0.14703  0.88797  0.02123  1.0000
  C   C155      1.0  0.11530  0.89236  0.99836  1.0000
  H   H247      1.0  0.24103  0.90246  0.00208  1.0000
  H   H248      1.0  0.08956  0.59109  0.26978  1.0000
  H   H249      1.0  0.07577  0.53175  0.43915  1.0000
  H   H250      1.0  0.05689  0.79789  0.07862  1.0000
  C   C156      1.0  0.18453  0.71977  0.18230  1.0000
  C   C157      1.0  0.17432  0.74192  0.17114  1.0000
  C   C158      1.0  0.18022  0.76514  0.14995  1.0000
  C   C159      1.0  0.19656  0.76679  0.13984  1.0000
  C   C160      1.0  0.20678  0.74466  0.15109  1.0000
  C   C161      1.0  0.20083  0.72127  0.17177  1.0000
  H   H251      1.0  0.16170  0.74115  0.17897  1.0000
  H   H252      1.0  0.17215  0.78186  0.14171  1.0000
  H   H253      1.0  0.21941  0.74550  0.14335  1.0000
  H   H254      1.0  0.20887  0.70439  0.17943  1.0000
  C   C162      1.0  0.20176  0.96845  0.13781  1.0000
  H   H255      1.0  0.25307  0.89383  0.05880  1.0000
  H   H256      1.0  0.24087  0.96704  0.07915  1.0000
  C   C163      1.0  0.19744  0.51994  0.18307  1.0000
  C   C164      1.0  0.99817  0.54337  0.36544  1.0000
  C   C165      1.0  0.19455  0.95898  0.17187  1.0000
  H   H257      1.0  0.11150  0.93540  0.06295  1.0000
  H   H258      1.0  0.03847  0.98881  0.44710  1.0000
  C   C166      1.0  0.16825  0.96956  0.05844  1.0000
  H   H259      1.0  0.19209  0.93689  0.17547  1.0000
  C   C167      1.0  0.12385  0.60483  0.33927  1.0000
  C   C168      1.0  0.12318  0.63195  0.35462  1.0000
  C   C169      1.0  0.10914  0.64127  0.37391  1.0000
  C   C170      1.0  0.09545  0.62391  0.37743  1.0000
  C   C171      1.0  0.09604  0.59691  0.36172  1.0000
  C   C172      1.0  0.11015  0.58746  0.34291  1.0000
  H   H260      1.0  0.13360  0.64553  0.35236  1.0000
  H   H261      1.0  0.10893  0.66208  0.38632  1.0000
  H   H262      1.0  0.08581  0.58305  0.36492  1.0000
  H   H263      1.0  0.11055  0.56637  0.33146  1.0000
  C   C173      1.0  0.23759  0.62351  0.38718  1.0000
  C   C174      1.0  0.23549  0.59821  0.40700  1.0000
  C   C175      1.0  0.24657  0.59001  0.43609  1.0000
  C   C176      1.0  0.25991  0.60697  0.44630  1.0000
  H   H264      1.0  0.23939  0.91660  0.08325  1.0000
  C   C177      1.0  0.25097  0.64037  0.39719  1.0000
  H   H265      1.0  0.22527  0.58499  0.40013  1.0000
  H   H266      1.0  0.27801  0.53799  0.32205  1.0000
  H   H267      1.0  0.27388  0.56732  0.35418  1.0000
  H   H268      1.0  0.25285  0.65997  0.38227  1.0000
  H   H269      1.0  0.13353  0.91270  0.15136  1.0000
  C   C178      1.0  0.02483  0.81397  0.07146  1.0000
  S   S68       1.0  0.00429  0.62438  0.38752  1.0000
  H   H270      1.0  0.01443  0.54429  0.31465  1.0000
  N   N11       1.0  0.04094  0.77140  0.04524  1.0000
  H   H271      1.0  0.02762  0.73924  0.01502  1.0000
  C   C179      1.0  0.27000  0.54599  0.34515  1.0000
  C   C180      1.0  0.06370  0.54025  0.43227  1.0000
  H   H272      1.0  0.12405  0.91182  0.08857  1.0000
  H   H273      1.0  0.24987  0.59981  0.31830  1.0000
  C   C181      1.0  0.26200  0.63226  0.42643  1.0000
  H   H274      1.0  0.07872  0.75950  0.08656  1.0000
  H   H275      1.0  0.24527  0.55649  0.35658  1.0000
  H   H276      1.0  0.15396  0.50669  0.06840  1.0000
  C   C182      1.0  0.23694  0.97323  0.01669  1.0000
  S   S69       1.0  0.03398  0.86870  0.99202  1.0000
  H   H277      1.0  0.08241  0.97362  0.47867  1.0000
  C   C183      1.0  0.00875  0.59895  0.20545  1.0000
  C   C184      1.0  0.19082  0.97808  0.20182  1.0000
  H   H278      1.0  0.25631  0.62633  0.26175  1.0000
  H   H279      1.0  0.25822  0.92961  0.06643  1.0000
  H   H280      1.0  0.14006  0.94499  0.05226  1.0000
  C   C185      1.0  0.05040  0.98742  0.46171  1.0000
  C   C186      1.0  0.26232  0.95085  0.99513  1.0000
  S   S70       1.0  0.01009  0.56645  0.46758  1.0000
  C   C187      1.0  0.00360  0.72972  0.45564  1.0000
  H   H281      1.0  0.26808  0.58743  0.29754  1.0000
  H   H282      1.0  0.21994  0.51207  0.15386  1.0000
  H   H283      1.0  0.00890  0.98515  0.04725  1.0000
  H   H284      1.0  0.02442  0.51669  0.43010  1.0000
  H   H285      1.0  0.06396  0.54703  0.40165  1.0000
  H   H286      1.0  0.03489  0.82218  0.08925  1.0000
  H   H287      1.0  0.05844  0.97808  0.43966  1.0000
  H   H288      1.0  0.12935  0.95664  0.15726  1.0000
  H   H289      1.0  0.05459  0.52325  0.43429  1.0000
  H   H290      1.0  0.16935  0.97989  0.11815  1.0000
  H   H291      1.0  0.13474  0.83039  0.01017  1.0000
  C   C188      1.0  0.25561  0.54022  0.26319  1.0000
  C   C189      1.0  0.22991  0.55917  0.29165  1.0000
  H   H292      1.0  0.13353  0.50735  0.08613  1.0000
  H   H293      1.0  0.26895  0.90595  0.99299  1.0000
  H   H294      1.0  0.26820  0.95507  0.02314  1.0000
  H   H295      1.0  0.07489  0.56472  0.25914  1.0000
  H   H296      1.0  0.22630  0.92176  0.02672  1.0000
  C   C190      1.0  0.23945  0.92144  0.02037  1.0000
  H   H297      1.0  0.04600  0.56957  0.45299  1.0000
  N   N12       1.0  0.06863  0.63785  0.25397  1.0000
  C   C191      1.0  0.05269  0.65255  0.24820  1.0000
  C   C192      1.0  0.07402  0.64339  0.29488  1.0000
  C   C193      1.0  0.06597  0.60676  0.24751  1.0000
  C   C194      1.0  0.08045  0.64943  0.22502  1.0000
  C   C195      1.0  0.04414  0.64712  0.20923  1.0000
  C   C196      1.0  0.07631  0.67441  0.30634  1.0000
  C   C197      1.0  0.07653  0.58623  0.27081  1.0000
  C   C198      1.0  0.09803  0.63941  0.22871  1.0000
  H   H298      1.0  0.04406  0.64661  0.27143  1.0000
  H   H299      1.0  0.05409  0.67567  0.25032  1.0000
  H   H300      1.0  0.08567  0.63305  0.30116  1.0000
  H   H301      1.0  0.06526  0.63404  0.31558  1.0000
  H   H302      1.0  0.05339  0.60065  0.25515  1.0000
  H   H303      1.0  0.06725  0.60125  0.21643  1.0000
  H   H304      1.0  0.07665  0.64407  0.19513  1.0000
  H   H305      1.0  0.08063  0.67273  0.22619  1.0000
  H   H306      1.0  0.04185  0.62458  0.20374  1.0000
  H   H307      1.0  0.03212  0.65740  0.20983  1.0000
  H   H308      1.0  0.05089  0.65629  0.18472  1.0000
  H   H309      1.0  0.06472  0.68593  0.30719  1.0000
  H   H310      1.0  0.08125  0.67538  0.33611  1.0000
  H   H311      1.0  0.08510  0.68533  0.28758  1.0000
  C   C199      1.0  0.18203  0.50913  0.19042  1.0000
  H   H312      1.0  0.07256  0.58568  0.30137  1.0000
  H   H313      1.0  0.23908  0.60625  0.24902  1.0000
  H   H314      1.0  0.10350  0.64491  0.25695  1.0000
  H   H315      1.0  0.10545  0.65002  0.20640  1.0000
  H   H316      1.0  0.09911  0.61665  0.22325  1.0000
  C   C200      1.0  0.03801  0.74102  0.03522  1.0000
  C   C201      1.0  0.01661  0.50973  0.45309  1.0000
  N   N13       1.0  0.14700  0.95672  0.11048  1.0000
  H   H317      1.0  0.22681  0.51403  0.27766  1.0000
  H   H318      1.0  0.22065  0.52383  0.32598  1.0000
  C   C202      1.0  0.00365  0.51367  0.99258  1.0000
  C   C203      1.0  0.15514  0.92910  0.11864  1.0000
  H   H319      1.0  0.22373  0.97022  0.02114  1.0000
  H   H320      1.0  0.22496  0.57328  0.31442  1.0000
  C   C204      1.0  0.99818  0.60540  0.17485  1.0000
  H   H321      1.0  0.07791  0.77942  0.04246  1.0000
  H   H322      1.0  0.03345  0.69952  0.05829  1.0000
  C   C205      1.0  0.00424  0.97777  0.45148  1.0000
  C   C206      1.0  0.13454  0.95359  0.07900  1.0000
  H   H323      1.0  0.11332  0.93991  0.11348  1.0000
  H   H324      1.0  0.23961  0.52345  0.21775  1.0000
  C   C207      1.0  0.00702  0.61165  0.24186  1.0000
  H   H325      1.0  0.24468  0.57047  0.45114  1.0000
  H   H326      1.0  0.22573  0.56865  0.26439  1.0000
  H   H327      1.0  0.27212  0.64564  0.43363  1.0000
  C   C208      1.0  0.09704  0.85357  0.98436  1.0000
  H   H328      1.0  0.25901  0.59609  0.23227  1.0000
  H   H329      1.0  0.27166  0.53235  0.37077  1.0000
  H   H330      1.0  0.04434  0.72153  0.09102  1.0000
  C   C209      1.0  0.25477  0.58747  0.29371  1.0000
  C   C210      1.0  0.24784  0.54155  0.22253  1.0000
  C   C211      1.0  0.14647  0.90870  0.14649  1.0000
  C   C212      1.0  0.12016  0.93403  0.08732  1.0000
  C   C213      1.0  0.05905  0.56542  0.45801  1.0000
  N   N14       1.0  0.21097  0.72793  0.30867  1.0000
  C   C214      1.0  0.21940  0.69997  0.30571  1.0000
  C   C215      1.0  0.20605  0.73174  0.35022  1.0000
  C   C216      1.0  0.22283  0.75042  0.29684  1.0000
  C   C217      1.0  0.19672  0.72721  0.28173  1.0000
  C   C218      1.0  0.22743  0.69318  0.26662  1.0000
  C   C219      1.0  0.19410  0.70981  0.36618  1.0000
  C   C220      1.0  0.21972  0.78043  0.31168  1.0000
  C   C221      1.0  0.18513  0.75238  0.28222  1.0000
  H   H331      1.0  0.22890  0.69802  0.32834  1.0000
  H   H332      1.0  0.21079  0.68251  0.31090  1.0000
  H   H333      1.0  0.20043  0.75244  0.35543  1.0000
  H   H334      1.0  0.21692  0.73148  0.36917  1.0000
  H   H335      1.0  0.23522  0.74512  0.30706  1.0000
  H   H336      1.0  0.22367  0.75172  0.26478  1.0000
  H   H337      1.0  0.20096  0.72572  0.25150  1.0000
  H   H338      1.0  0.18943  0.70779  0.28536  1.0000
  H   H339      1.0  0.23683  0.70860  0.25848  1.0000
  H   H340      1.0  0.23352  0.67253  0.26897  1.0000
  H   H341      1.0  0.21841  0.69113  0.24317  1.0000
  H   H342      1.0  0.19958  0.68868  0.36820  1.0000
  H   H343      1.0  0.19065  0.71583  0.39601  1.0000
  H   H344      1.0  0.18281  0.70882  0.34905  1.0000
  H   H345      1.0  0.22199  0.78206  0.34317  1.0000
  H   H346      1.0  0.20748  0.78807  0.30501  1.0000
  H   H347      1.0  0.22833  0.79496  0.29741  1.0000
  H   H348      1.0  0.18922  0.76883  0.26179  1.0000
  H   H349      1.0  0.18318  0.76151  0.31110  1.0000
  H   H350      1.0  0.17299  0.74511  0.27274  1.0000
  H   H351      1.0  0.14725  0.88710  0.13457  1.0000
  C   C222      1.0  0.02584  0.78205  0.06474  1.0000
  H   H352      1.0  0.20855  0.53271  0.28529  1.0000
  H   H353      1.0  0.02290  0.53012  0.35735  1.0000
  C   C223      1.0  0.05480  0.77523  0.07296  1.0000
  H   H354      1.0  0.01494  0.77615  0.04775  1.0000
  C   C224      1.0  0.03449  0.72132  0.06939  1.0000
  C   C225      1.0  0.12801  0.87379  0.00685  1.0000
  H   H355      1.0  0.00291  0.56311  0.37837  1.0000
  H   H356      1.0  0.02276  0.72612  0.08330  1.0000
  H   H357      1.0  0.02422  0.77226  0.09358  1.0000
  S   S71       1.0  0.00686  0.70476  0.41751  1.0000
  C   C226      1.0  0.22120  0.53065  0.29543  1.0000
  H   H358      1.0  0.01828  0.58387  0.20082  1.0000
  C   C227      1.0  0.00820  0.52948  0.47515  1.0000
  H   H359      1.0  0.02415  0.82556  0.04393  1.0000
  H   H360      1.0  0.05195  0.76678  0.10207  1.0000
  H   H361      1.0  0.01347  0.81873  0.08714  1.0000
  N   N15       1.0  0.24806  0.55806  0.29436  1.0000
  H   H362      1.0  0.15283  0.90803  0.17469  1.0000
  C   C228      1.0  0.24816  0.91548  0.05905  1.0000
  S   S72       1.0  0.02085  0.94378  0.99498  1.0000
  H   H363      1.0  0.16738  0.93274  0.13105  1.0000
  H   H364      1.0  0.06522  0.76626  0.98586  1.0000
  H   H365      1.0  0.00742  0.96224  0.43004  1.0000
  C   C229      1.0  0.13925  0.96964  0.14564  1.0000
  C   C230      1.0  0.15960  0.97726  0.09642  1.0000
  C   C231      1.0  0.10976  0.83498  0.99257  1.0000
  H   H366      1.0  0.14349  0.98107  0.20571  1.0000
  H   H367      1.0  0.16029  0.97229  0.03301  1.0000
  C   C232      1.0  0.12513  0.84498  0.00382  1.0000
  C   C233      1.0  0.01798  0.49892  0.98486  1.0000
  H   H368      1.0  0.12954  0.97446  0.07109  1.0000
  C   C234      1.0  0.01164  0.53111  0.34003  1.0000
  C   C235      1.0  0.15070  0.97578  0.17972  1.0000
  N   N16       1.0  0.24428  0.94745  0.99858  1.0000
  C   C236      1.0  0.20802  0.50400  0.15996  1.0000
  H   H369      1.0  0.11742  0.91468  0.00002  1.0000
  H   H370      1.0  0.10773  0.81265  0.99026  1.0000
  H   H371      1.0  0.24135  0.56108  0.21568  1.0000
  H   H372      1.0  0.25648  0.98801  0.05579  1.0000
  C   C237      1.0  0.09991  0.88238  0.98740  1.0000
  H   H373      1.0  0.15830  0.95751  0.18710  1.0000
  H   H374      1.0  0.17314  0.94800  0.05888  1.0000
  H   H375      1.0  0.15851  0.99423  0.17394  1.0000
  C   C238      1.0  0.01554  0.97942  0.98763  1.0000
  C   C239      1.0  0.00977  0.99500  0.01924  1.0000
  H   H376      1.0  0.08839  0.59169  0.47211  1.0000
  H   H377      1.0  0.04967  0.80869  0.01581  1.0000
  C   C240      1.0  0.04367  0.78834  0.00898  1.0000
  H   H378      1.0  0.13332  0.98980  0.13789  1.0000
  H   H379      1.0  0.09785  0.55828  0.46361  1.0000
  H   H380      1.0  0.02928  0.51026  0.98316  1.0000
  H   H381      1.0  0.27879  0.51884  0.48020  1.0000
  H   H382      1.0  0.99690  0.52840  0.38977  1.0000
  S   S73       1.0  0.99719  0.62030  0.04849  1.0000
  Fe  Fe35      1.0  0.05442  0.86090  0.95112  1.0000
  S   S74       1.0  0.00041  0.68165  0.97233  1.0000
  Fe  Fe36      1.0  0.03301  0.87455  0.88133  1.0000
  S   S75       1.0  0.01097  0.88337  0.91749  1.0000
  S   S76       1.0  0.03661  0.87417  0.81605  1.0000
  H   H383      1.0  0.04630  0.50985  0.56166  1.0000
  C   C241      1.0  0.05230  0.53044  0.55707  1.0000
  C   C242      1.0  0.05610  0.58743  0.52165  1.0000
  C   C243      1.0  0.00602  0.74586  0.52244  1.0000
  S   S77       1.0  0.04994  0.90071  0.91808  1.0000
  S   S78       1.0  0.03882  0.83433  0.91205  1.0000
  C   C244      1.0  0.01665  0.99248  0.95163  1.0000
  Fe  Fe37      1.0  0.30476  0.86500  0.80659  1.0000
  S   S79       1.0  0.29547  0.86164  0.74528  1.0000
  S   S80       1.0  0.29220  0.86001  0.86633  1.0000
  C   C245      1.0  0.31059  0.70637  0.65311  1.0000
  H   H384      1.0  0.30683  0.88859  0.56765  1.0000
  Fe  Fe38      1.0  0.31125  0.89936  0.73179  1.0000
  S   S81       1.0  0.30208  0.93192  0.68747  1.0000
  Fe  Fe39      1.0  0.31740  0.83496  0.73248  1.0000
  S   S82       1.0  0.31806  0.80043  0.68513  1.0000
  H   H385      1.0  0.25217  0.53088  0.60900  1.0000
  H   H386      1.0  0.25409  0.85183  0.97593  1.0000
  Fe  Fe40      1.0  0.29617  0.60729  0.52024  1.0000
  S   S83       1.0  0.29432  0.60000  0.58481  1.0000
  H   H387      1.0  0.29078  0.96829  0.62706  1.0000
  H   H388      1.0  0.25571  0.84537  0.57782  1.0000
  H   H389      1.0  0.26147  0.88175  0.58081  1.0000
  S   S84       1.0  0.30789  0.66982  0.64216  1.0000
  C   C246      1.0  0.27414  0.84137  0.65876  1.0000
  C   C247      1.0  0.07962  0.55612  0.50986  1.0000
  N   N17       1.0  0.06213  0.56183  0.50057  1.0000
  H   H390      1.0  0.32413  0.97425  0.72137  1.0000
  H   H391      1.0  0.27180  0.88330  0.63744  1.0000
  C   C248      1.0  0.31498  0.76400  0.67398  1.0000
  C   C249      1.0  0.31603  0.75504  0.63523  1.0000
  C   C250      1.0  0.31378  0.72656  0.62483  1.0000
  S   S85       1.0  0.27348  0.59527  0.48365  1.0000
  H   H392      1.0  0.31154  0.85158  0.64205  1.0000
  C   C251      1.0  0.29914  0.89129  0.59363  1.0000
  C   C252      1.0  0.05343  0.77436  0.97629  1.0000
  H   H393      1.0  0.24277  0.96209  0.93926  1.0000
  H   H394      1.0  0.28950  0.54358  0.51102  1.0000
  H   H395      1.0  0.31266  0.83287  0.55637  1.0000
  C   C253      1.0  0.30720  0.96738  0.67529  1.0000
  H   H396      1.0  0.05599  0.79012  0.95365  1.0000
  Fe  Fe41      1.0  0.02814  0.90689  0.95645  1.0000
  C   C254      1.0  0.99764  0.77086  0.51419  1.0000
  H   H397      1.0  0.00173  0.88229  0.82236  1.0000
  C   C255      1.0  0.00465  0.78024  0.71302  1.0000
  S   S86       1.0  0.31836  0.57991  0.51481  1.0000
  C   C256      1.0  0.30546  0.51065  0.66476  1.0000
  H   H398      1.0  0.03715  0.96927  0.51059  1.0000
  H   H399      1.0  0.26833  0.92275  0.94623  1.0000
  C   C257      1.0  0.02101  0.87813  0.78130  1.0000
  C   C258      1.0  0.02491  0.87758  0.74178  1.0000
  C   C259      1.0  0.28838  0.50028  0.53356  1.0000
  H   H400      1.0  0.01604  0.88088  0.68311  1.0000
  H   H401      1.0  0.08228  0.53343  0.50566  1.0000
  H   H402      1.0  0.01928  0.80079  0.75720  1.0000
  H   H403      1.0  0.01879  0.83826  0.63645  1.0000
  H   H404      1.0  0.28892  0.53407  0.59402  1.0000
  H   H405      1.0  0.28931  0.87783  0.66438  1.0000
  H   H406      1.0  0.05583  0.51758  0.49880  1.0000
  H   H407      1.0  0.24199  0.53530  0.54379  1.0000
  H   H408      1.0  0.26754  0.82872  0.63707  1.0000
  H   H409      1.0  0.00643  0.82441  0.73391  1.0000
  C   C260      1.0  0.31757  0.50510  0.63764  1.0000
  Fe  Fe42      1.0  0.01814  0.84480  0.95091  1.0000
  H   H410      1.0  0.30022  0.82299  0.62284  1.0000
  H   H411      1.0  0.04638  0.75734  0.96225  1.0000
  C   C261      1.0  0.24171  0.86731  0.92585  1.0000
  C   C262      1.0  0.24374  0.87485  0.88679  1.0000
  C   C263      1.0  0.25892  0.87275  0.86812  1.0000
  C   C264      1.0  0.27250  0.86309  0.88817  1.0000
  C   C265      1.0  0.27050  0.85582  0.92738  1.0000
  C   C266      1.0  0.25531  0.85787  0.94602  1.0000
  H   H412      1.0  0.23341  0.88222  0.87067  1.0000
  H   H413      1.0  0.26007  0.87849  0.83809  1.0000
  H   H414      1.0  0.28073  0.84811  0.94343  1.0000
  H   H415      1.0  0.31851  0.77026  0.61298  1.0000
  C   C267      1.0  0.28196  0.85116  0.57258  1.0000
  C   C268      1.0  0.06514  0.61510  0.51408  1.0000
  H   H416      1.0  0.07752  0.61462  0.52618  1.0000
  N   N18       1.0  0.08913  0.86502  0.84332  1.0000
  C   C269      1.0  0.08238  0.89124  0.82501  1.0000
  C   C270      1.0  0.09467  0.87282  0.88343  1.0000
  C   C271      1.0  0.07539  0.84435  0.84633  1.0000
  C   C272      1.0  0.10255  0.85373  0.81837  1.0000
  C   C273      1.0  0.07720  0.88882  0.78224  1.0000
  C   C274      1.0  0.10813  0.89520  0.88571  1.0000
  C   C275      1.0  0.07930  0.81540  0.86335  1.0000
  C   C276      1.0  0.11512  0.83446  0.83805  1.0000
  H   H417      1.0  0.07178  0.89908  0.84166  1.0000
  H   H418      1.0  0.09137  0.90853  0.82551  1.0000
  H   H419      1.0  0.09900  0.85446  0.89981  1.0000
  H   H420      1.0  0.08433  0.88068  0.90087  1.0000
  H   H421      1.0  0.06545  0.85344  0.86389  1.0000
  H   H422      1.0  0.07000  0.83987  0.81766  1.0000
  H   H423      1.0  0.09742  0.84215  0.79321  1.0000
  H   H424      1.0  0.10960  0.87147  0.80598  1.0000
  H   H425      1.0  0.08750  0.88378  0.76307  1.0000
  H   H426      1.0  0.06735  0.87354  0.77744  1.0000
  H   H427      1.0  0.07239  0.90940  0.77278  1.0000
  H   H428      1.0  0.11763  0.89228  0.86369  1.0000
  H   H429      1.0  0.10304  0.91661  0.88327  1.0000
  H   H430      1.0  0.11411  0.89404  0.91433  1.0000
  H   H431      1.0  0.08722  0.80318  0.84387  1.0000
  H   H432      1.0  0.06788  0.80332  0.86606  1.0000
  H   H433      1.0  0.08451  0.81659  0.89269  1.0000
  H   H434      1.0  0.11865  0.81766  0.81750  1.0000
  H   H435      1.0  0.11103  0.82380  0.86453  1.0000
  H   H436      1.0  0.12641  0.84621  0.84436  1.0000
  C   C277      1.0  0.00926  0.73398  0.94790  1.0000
  C   C278      1.0  0.30507  0.84410  0.61568  1.0000
  H   H437      1.0  0.10266  0.57812  0.50514  1.0000
  H   H438      1.0  0.30697  0.70011  0.71404  1.0000
  H   H439      1.0  0.26542  0.84742  0.68161  1.0000
  C   C279      1.0  0.00701  0.80272  0.74461  1.0000
  H   H440      1.0  0.03733  0.87482  0.73309  1.0000
  H   H441      1.0  0.01702  0.72291  0.92799  1.0000
  H   H442      1.0  0.99742  0.72661  0.68558  1.0000
  S   S87       1.0  0.22211  0.87102  0.94789  1.0000
  H   H443      1.0  0.02110  0.98079  0.92709  1.0000
  C   C280      1.0  0.01664  0.81694  0.64815  1.0000
  C   C281      1.0  0.05201  0.53720  0.51356  1.0000
  S   S88       1.0  0.07803  0.83966  0.96943  1.0000
  S   S89       1.0  0.32601  0.83605  0.79449  1.0000
  C   C282      1.0  0.28898  0.52171  0.50055  1.0000
  C   C283      1.0  0.30952  0.71536  0.69181  1.0000
  H   H444      1.0  0.30730  0.89909  0.61694  1.0000
  C   C284      1.0  0.27648  0.53136  0.58249  1.0000
  H   H445      1.0  0.03913  0.54030  0.50548  1.0000
  H   H446      1.0  0.04307  0.59096  0.51506  1.0000
  H   H447      1.0  0.27493  0.54916  0.56246  1.0000
  H   H448      1.0  0.31441  0.72027  0.59490  1.0000
  C   C285      1.0  0.28762  0.91533  0.58331  1.0000
  H   H449      1.0  0.26526  0.96969  0.97753  1.0000
  H   H450      1.0  0.32602  0.85746  0.58098  1.0000
  C   C286      1.0  0.21931  0.94611  0.95322  1.0000
  C   C287      1.0  0.00492  0.88181  0.79212  1.0000
  H   H451      1.0  0.21616  0.94096  0.92285  1.0000
  C   C288      1.0  0.29968  0.97996  0.64321  1.0000
  H   H452      1.0  0.28113  0.82799  0.57627  1.0000
  H   H453      1.0  0.05886  0.96610  0.51466  1.0000
  H   H454      1.0  0.04525  0.54589  0.57402  1.0000
  H   H455      1.0  0.32586  0.82149  0.59398  1.0000
  C   C289      1.0  0.31167  0.74385  0.70219  1.0000
  C   C290      1.0  0.31800  0.83900  0.58445  1.0000
  H   H456      1.0  0.28836  0.85436  0.54470  1.0000
  S   S90       1.0  0.31118  0.64678  0.52820  1.0000
  H   H457      1.0  0.01201  0.51210  0.88482  1.0000
  H   H458      1.0  0.00801  0.76235  0.63943  1.0000
  Fe  Fe43      1.0  0.31071  0.63793  0.59205  1.0000
  H   H459      1.0  0.26505  0.55902  0.62421  1.0000
  S   S91       1.0  0.32315  0.52946  0.60069  1.0000
  H   H460      1.0  0.08206  0.56049  0.54090  1.0000
  H   H461      1.0  0.31441  0.88847  0.92611  1.0000
  H   H462      1.0  0.29964  0.53090  0.66497  1.0000
  C   C291      1.0  0.00933  0.76348  0.94843  1.0000
  C   C292      1.0  0.25861  0.49934  0.54354  1.0000
  H   H463      1.0  0.26181  0.86374  0.53601  1.0000
  C   C293      1.0  0.01286  0.88092  0.71336  1.0000
  C   C294      1.0  0.26437  0.86142  0.56731  1.0000
  H   H464      1.0  0.31025  0.85343  0.94361  1.0000
  H   H465      1.0  0.02494  0.81435  0.67293  1.0000
  H   H466      1.0  0.01974  0.80213  0.62463  1.0000
  C   C295      1.0  0.99940  0.71867  0.97330  1.0000
  H   H467      1.0  0.31076  0.75017  0.73209  1.0000
  H   H468      1.0  0.28339  0.82810  0.67295  1.0000
  N   N19       1.0  0.29155  0.86385  0.60533  1.0000
  H   H469      1.0  0.26863  0.52474  0.64242  1.0000
  H   H470      1.0  0.29496  0.93421  0.57670  1.0000
  C   C296      1.0  0.26478  0.53644  0.61635  1.0000
  C   C297      1.0  0.31829  0.98337  0.69649  1.0000
  H   H471      1.0  0.01709  0.77500  0.92900  1.0000
  H   H472      1.0  0.06472  0.52872  0.56867  1.0000
  C   C298      1.0  0.28171  0.86812  0.64146  1.0000
  Fe  Fe44      1.0  0.31691  0.57404  0.57946  1.0000
  C   C299      1.0  0.31709  0.87302  0.94907  1.0000
  S   S92       1.0  0.31915  0.90425  0.79370  1.0000
  H   H473      1.0  0.28061  0.91067  0.55683  1.0000
  H   H474      1.0  0.05685  0.58456  0.55337  1.0000
  H   H475      1.0  0.01681  0.77349  0.70300  1.0000
  H   H476      1.0  0.05869  0.63237  0.52905  1.0000
  H   H477      1.0  0.01027  0.74221  0.55146  1.0000
  H   H478      1.0  0.27959  0.92119  0.60753  1.0000
  C   C300      1.0  0.27133  0.92569  0.97718  1.0000
  H   H479      1.0  0.99993  0.76148  0.72829  1.0000
  H   H480      1.0  0.99804  0.80012  0.76813  1.0000
  H   H481      1.0  0.24166  0.92516  0.94415  1.0000
  H   H482      1.0  0.01546  0.70652  0.50048  1.0000
  H   H483      1.0  0.21324  0.93032  0.97137  1.0000
  H   H484      1.0  0.30030  0.50112  0.54854  1.0000
  C   C301      1.0  0.23781  0.94513  0.95786  1.0000
  H   H485      1.0  0.32350  0.83061  0.89644  1.0000
  C   C302      1.0  0.99815  0.51977  0.50505  1.0000
  C   C303      1.0  0.99876  0.81457  0.66012  1.0000
  C   C304      1.0  0.25089  0.52530  0.52419  1.0000
  H   H486      1.0  0.25941  0.54133  0.51366  1.0000
  H   H487      1.0  0.21439  0.96724  0.95934  1.0000
  C   C305      1.0  0.99938  0.77797  0.97412  1.0000
  S   S93       1.0  0.99952  0.81502  0.97714  1.0000
  N   N20       1.0  0.27488  0.50341  0.56241  1.0000
  S   S94       1.0  0.99859  0.87468  0.58034  1.0000
  C   C306      1.0  0.00900  0.72550  0.49350  1.0000
  H   H488      1.0  0.01531  0.50550  0.81930  1.0000
  H   H489      1.0  0.32836  0.87420  0.87272  1.0000
  H   H490      1.0  0.31245  0.88187  0.97653  1.0000
  H   H491      1.0  0.24382  0.51834  0.49866  1.0000
  H   H492      1.0  0.30021  0.51833  0.48370  1.0000
  C   C307      1.0  0.99781  0.96892  0.48707  1.0000
  C   C308      1.0  0.04853  0.96572  0.49435  1.0000
  H   H493      1.0  0.28452  0.92962  0.97864  1.0000
  H   H494      1.0  0.06552  0.62087  0.48322  1.0000
  C   C309      1.0  0.09248  0.57214  0.48593  1.0000
  C   C310      1.0  0.99677  0.88484  0.72426  1.0000
  H   H495      1.0  0.09030  0.89698  0.98110  1.0000
  H   H496      1.0  0.04764  0.94437  0.48169  1.0000
  C   C311      1.0  0.65118  0.24646  0.16848  1.0000
  Fe  Fe45      1.0  0.45069  0.09974  0.43283  1.0000
  H   H497      1.0  0.48149  0.15100  0.03335  1.0000
  Fe  Fe46      1.0  0.48295  0.10132  0.38865  1.0000
  S   S95       1.0  0.49690  0.10936  0.44347  1.0000
  S   S96       1.0  0.49958  0.09274  0.33721  1.0000
  H   H498      1.0  0.46342  0.22417  0.05552  1.0000
  H   H499      1.0  0.53342  0.07054  0.37206  1.0000
  H   H500      1.0  0.56687  0.25332  0.44597  1.0000
  H   H501      1.0  0.46691  0.06005  0.12192  1.0000
  S   S97       1.0  0.46833  0.06610  0.41431  1.0000
  S   S98       1.0  0.46435  0.13439  0.40243  1.0000
  S   S99       1.0  0.64943  0.10435  0.11801  1.0000
  S   S100      1.0  0.63962  0.36469  0.42905  1.0000
  Fe  Fe47      1.0  0.52748  0.08050  0.05098  1.0000
  S   S101      1.0  0.54494  0.11399  0.03024  1.0000
  S   S102      1.0  0.52695  0.03484  0.02823  1.0000
  Fe  Fe48      1.0  0.51436  0.11905  0.11500  1.0000
  S   S103      1.0  0.53061  0.15489  0.09871  1.0000
  S   S104      1.0  0.49393  0.12355  0.15859  1.0000
  Fe  Fe49      1.0  0.52418  0.14471  0.03725  1.0000
  H   H502      1.0  0.48834  0.26872  0.08020  1.0000
  Fe  Fe50      1.0  0.55030  0.12210  0.09341  1.0000
  S   S105      1.0  0.57365  0.13033  0.12812  1.0000
  S   S106      1.0  0.50669  0.11041  0.05381  1.0000
  S   S107      1.0  0.53410  0.08707  0.11371  1.0000
  C   C312      1.0  0.62818  0.10948  0.12247  1.0000
  C   C313      1.0  0.61823  0.10486  0.09011  1.0000
  C   C314      1.0  0.60146  0.11020  0.09154  1.0000
  C   C315      1.0  0.59441  0.12042  0.12540  1.0000
  C   C316      1.0  0.60432  0.12444  0.15802  1.0000
  C   C317      1.0  0.62104  0.11872  0.15674  1.0000
  H   H503      1.0  0.62356  0.09753  0.06347  1.0000
  H   H504      1.0  0.59407  0.10702  0.06616  1.0000
  H   H505      1.0  0.59903  0.13228  0.18442  1.0000
  H   H506      1.0  0.62844  0.12207  0.18199  1.0000
  C   C318      1.0  0.49769  0.10200  0.28783  1.0000
  C   C319      1.0  0.48379  0.11454  0.27292  1.0000
  C   C320      1.0  0.48285  0.12111  0.23332  1.0000
  C   C321      1.0  0.49581  0.11545  0.20834  1.0000
  C   C322      1.0  0.50968  0.10285  0.22321  1.0000
  C   C323      1.0  0.51058  0.09610  0.26271  1.0000
  H   H507      1.0  0.47376  0.11906  0.29187  1.0000
  H   H508      1.0  0.47201  0.13067  0.22205  1.0000
  H   H509      1.0  0.51974  0.09835  0.20435  1.0000
  H   H510      1.0  0.52139  0.08646  0.27394  1.0000
  H   H511      1.0  0.49656  0.99863  0.37760  1.0000
  N   N21       1.0  0.52744  0.02050  0.41110  1.0000
  H   H512      1.0  0.50589  0.19416  0.43728  1.0000
  C   C324      1.0  0.60728  0.19896  0.13919  1.0000
  C   C325      1.0  0.43495  0.17206  0.47675  1.0000
  H   H513      1.0  0.44362  0.48604  0.44394  1.0000
  H   H514      1.0  0.45027  0.23525  0.13268  1.0000
  S   S108      1.0  0.49650  0.30647  0.98321  1.0000
  C   C326      1.0  0.50987  0.21200  0.98945  1.0000
  C   C327      1.0  0.59087  0.45553  0.43760  1.0000
  H   H515      1.0  0.48077  0.47888  0.08283  1.0000
  C   C328      1.0  0.53896  0.02440  0.37781  1.0000
  H   H516      1.0  0.38910  0.09849  0.41201  1.0000
  H   H517      1.0  0.52359  0.03057  0.11381  1.0000
  N   N22       1.0  0.63881  0.20250  0.13600  1.0000
  C   C329      1.0  0.48014  0.04473  0.19052  1.0000
  C   C330      1.0  0.60761  0.36493  0.45097  1.0000
  H   H518      1.0  0.42963  0.15156  0.40196  1.0000
  H   H519      1.0  0.50531  0.18138  0.14415  1.0000
  H   H520      1.0  0.60525  0.36134  0.42066  1.0000
  H   H521      1.0  0.63837  0.01578  0.26463  1.0000
  N   N23       1.0  0.64828  0.02446  0.20787  1.0000
  C   C331      1.0  0.51575  0.23124  0.01661  1.0000
  H   H522      1.0  0.54602  0.02371  0.45513  1.0000
  H   H523      1.0  0.46795  0.03523  0.18991  1.0000
  H   H524      1.0  0.52365  0.22409  0.03936  1.0000
  H   H525      1.0  0.63584  0.49423  0.21031  1.0000
  C   C332      1.0  0.39137  0.10333  0.44204  1.0000
  H   H526      1.0  0.63084  0.24531  0.12972  1.0000
  H   H527      1.0  0.64401  0.16685  0.22388  1.0000
  H   H528      1.0  0.65857  0.18832  0.17180  1.0000
  H   H529      1.0  0.49390  0.00657  0.18865  1.0000
  C   C333      1.0  0.56851  0.31054  0.44191  1.0000
  C   C334      1.0  0.66325  0.01633  0.18578  1.0000
  C   C335      1.0  0.42669  0.19603  0.41789  1.0000
  H   H530      1.0  0.55883  0.46309  0.42154  1.0000
  N   N24       1.0  0.49069  0.01930  0.12923  1.0000
  H   H531      1.0  0.46443  0.01622  0.13279  1.0000
  C   C336      1.0  0.46684  0.20023  0.12193  1.0000
  C   C337      1.0  0.47574  0.22927  0.06631  1.0000
  H   H532      1.0  0.44812  0.23675  0.44519  1.0000
  H   H533      1.0  0.48000  0.06602  0.17792  1.0000
  C   C338      1.0  0.50263  0.47860  0.46181  1.0000
  C   C339      1.0  0.53714  0.06485  0.44795  1.0000
  C   C340      1.0  0.59454  0.36697  0.47697  1.0000
  H   H534      1.0  0.36622  0.11159  0.45479  1.0000
  C   C341      1.0  0.63322  0.01341  0.18846  1.0000
  C   C342      1.0  0.55546  0.44952  0.44636  1.0000
  H   H535      1.0  0.43154  0.15086  0.46621  1.0000
  H   H536      1.0  0.60374  0.44897  0.43831  1.0000
  C   C343      1.0  0.47499  0.00368  0.12390  1.0000
  H   H537      1.0  0.50911  0.01724  0.34319  1.0000
  H   H538      1.0  0.54726  0.07064  0.42864  1.0000
  H   H539      1.0  0.65953  0.16144  0.09795  1.0000
  C   C344      1.0  0.51491  0.23510  0.45408  1.0000
  H   H540      1.0  0.47724  0.00300  0.46174  1.0000
  C   C345      1.0  0.64814  0.05583  0.21310  1.0000
  C   C346      1.0  0.51096  0.03266  0.40335  1.0000
  C   C347      1.0  0.50332  0.46392  0.99816  1.0000
  C   C348      1.0  0.49304  0.02619  0.17138  1.0000
  H   H541      1.0  0.46972  0.18160  0.14003  1.0000
  C   C349      1.0  0.48694  0.18252  0.07686  1.0000
  C   C350      1.0  0.49481  0.22024  0.12025  1.0000
  H   H542      1.0  0.63665  0.06303  0.26949  1.0000
  C   C351      1.0  0.45964  0.22307  0.14821  1.0000
  H   H543      1.0  0.55165  0.02187  0.38774  1.0000
  H   H544      1.0  0.46400  0.16261  0.05841  1.0000
  C   C352      1.0  0.63444  0.06748  0.23853  1.0000
  H   H545      1.0  0.51080  0.21258  0.16886  1.0000
  H   H546      1.0  0.51138  0.05546  0.39799  1.0000
  N   N25       1.0  0.48092  0.20861  0.09696  1.0000
  H   H547      1.0  0.40933  0.16448  0.39509  1.0000
  H   H548      1.0  0.46877  0.26543  0.10317  1.0000
  C   C353      1.0  0.51382  0.48433  0.01402  1.0000
  H   H549      1.0  0.59733  0.18625  0.12645  1.0000
  C   C354      1.0  0.63611  0.23144  0.15225  1.0000
  H   H550      1.0  0.46872  0.23753  0.16047  1.0000
  H   H551      1.0  0.58053  0.31423  0.42888  1.0000
  H   H552      1.0  0.47343  0.18418  0.02156  1.0000
  H   H553      1.0  0.49869  0.18668  0.06243  1.0000
  H   H554      1.0  0.49198  0.24089  0.13317  1.0000
  C   C355      1.0  0.47582  0.26067  0.07697  1.0000
  C   C356      1.0  0.50064  0.20184  0.15400  1.0000
  H   H555      1.0  0.49107  0.19844  0.17585  1.0000
  H   H556      1.0  0.48372  0.22773  0.04060  1.0000
  H   H557      1.0  0.64740  0.26623  0.18275  1.0000
  H   H558      1.0  0.62163  0.19830  0.08880  1.0000
  C   C357      1.0  0.64952  0.01176  0.24769  1.0000
  H   H559      1.0  0.45399  0.21293  0.17369  1.0000
  C   C358      1.0  0.53415  0.03306  0.44775  1.0000
  Fe  Fe51      1.0  0.47742  0.13982  0.45904  1.0000
  H   H560      1.0  0.63705  0.20175  0.22004  1.0000
  H   H561      1.0  0.48939  0.16548  0.09784  1.0000
  H   H562      1.0  0.62712  0.23113  0.17598  1.0000
  C   C359      1.0  0.48760  0.47115  0.98730  1.0000
  H   H563      1.0  0.60721  0.19487  0.17045  1.0000
  H   H564      1.0  0.58527  0.44454  0.41278  1.0000
  H   H565      1.0  0.60422  0.22128  0.13409  1.0000
  H   H566      1.0  0.58838  0.26894  0.41962  1.0000
  H   H567      1.0  0.41988  0.21395  0.40533  1.0000
  C   C360      1.0  0.40731  0.10265  0.45611  1.0000
  H   H568      1.0  0.56186  0.33056  0.43911  1.0000
  C   C361      1.0  0.50400  0.99942  0.11745  1.0000
  C   C362      1.0  0.62326  0.19105  0.11910  1.0000
  H   H569      1.0  0.65970  0.06286  0.22635  1.0000
  C   C363      1.0  0.63719  0.18130  0.20488  1.0000
  C   C364      1.0  0.47560  0.16973  0.04601  1.0000
  H   H570      1.0  0.47039  0.27272  0.05284  1.0000
  C   C365      1.0  0.64578  0.18278  0.16561  1.0000
  H   H571      1.0  0.48676  0.47679  0.13201  1.0000
  H   H572      1.0  0.52389  0.23576  0.43148  1.0000
  H   H573      1.0  0.65746  0.23385  0.19064  1.0000
  C   C366      1.0  0.50145  0.26993  0.98443  1.0000
  H   H574      1.0  0.47093  0.05900  0.07060  1.0000
  H   H575      1.0  0.64621  0.16102  0.15428  1.0000
  H   H576      1.0  0.52593  0.47837  0.02226  1.0000
  C   C367      1.0  0.53787  0.05239  0.35540  1.0000
  H   H577      1.0  0.66268  0.18266  0.05660  1.0000
  H   H578      1.0  0.50318  0.03074  0.42931  1.0000
  H   H579      1.0  0.50536  0.22434  0.10113  1.0000
  H   H580      1.0  0.50136  0.47028  0.43290  1.0000
  C   C368      1.0  0.51255  0.01081  0.00822  1.0000
  C   C369      1.0  0.42233  0.16992  0.39361  1.0000
  H   H581      1.0  0.65533  0.01525  0.12520  1.0000
  S   S109      1.0  0.51472  0.17543  0.99089  1.0000
  H   H582      1.0  0.42512  0.17417  0.36285  1.0000
  C   C370      1.0  0.51159  0.25993  0.01402  1.0000
  H   H583      1.0  0.45664  0.19272  0.10380  1.0000
  H   H584      1.0  0.62489  0.17258  0.20239  1.0000
  H   H585      1.0  0.64658  0.49339  0.27520  1.0000
  H   H586      1.0  0.65978  0.25237  0.14539  1.0000
  H   H587      1.0  0.56003  0.41759  0.40208  1.0000
  C   C371      1.0  0.58289  0.44738  0.47612  1.0000
  C   C372      1.0  0.49185  0.04548  0.10493  1.0000
  C   C373      1.0  0.52140  0.00936  0.12534  1.0000
  C   C374      1.0  0.50161  0.01934  0.36943  1.0000
  H   H588      1.0  0.51632  0.27455  0.03511  1.0000
  C   C375      1.0  0.47623  0.06282  0.09956  1.0000
  H   H589      1.0  0.49599  0.04009  0.07532  1.0000
  Fe  Fe52      1.0  0.48137  0.07566  0.46955  1.0000
  H   H590      1.0  0.53037  0.04986  0.32904  1.0000
  H   H591      1.0  0.62244  0.05935  0.22994  1.0000
  H   H592      1.0  0.64705  0.22149  0.08273  1.0000
  H   H593      1.0  0.50460  0.03768  0.17600  1.0000
  H   H594      1.0  0.50126  0.05985  0.11667  1.0000
  H   H595      1.0  0.65944  0.02181  0.26444  1.0000
  H   H596      1.0  0.39833  0.19599  0.44497  1.0000
  H   H597      1.0  0.55008  0.05818  0.34489  1.0000
  H   H598      1.0  0.56146  0.29497  0.42518  1.0000
  C   C376      1.0  0.59874  0.26777  0.43953  1.0000
  C   C377      1.0  0.65088  0.20502  0.10355  1.0000
  H   H599      1.0  0.64764  0.06715  0.18537  1.0000
  H   H600      1.0  0.62368  0.16785  0.11698  1.0000
  H   H601      1.0  0.48334  0.04765  0.22144  1.0000
  S   S110      1.0  0.42338  0.09492  0.42374  1.0000
  H   H602      1.0  0.47937  0.08544  0.09999  1.0000
  H   H603      1.0  0.63438  0.04552  0.14062  1.0000
  C   C378      1.0  0.50471  0.21147  0.45725  1.0000
  C   C379      1.0  0.48589  0.99878  0.98296  1.0000
  C   C380      1.0  0.62371  0.36770  0.46365  1.0000
  C   C381      1.0  0.37835  0.11070  0.46626  1.0000
  H   H604      1.0  0.41859  0.23827  0.46354  1.0000
  H   H605      1.0  0.60804  0.28238  0.42805  1.0000
  H   H606      1.0  0.49120  0.03289  0.36194  1.0000
  C   C382      1.0  0.51352  0.25789  0.47974  1.0000
  H   H607      1.0  0.52621  0.07699  0.44087  1.0000
  H   H608      1.0  0.49898  0.49555  0.09667  1.0000
  H   H609      1.0  0.60415  0.24655  0.43761  1.0000
  H   H610      1.0  0.63414  0.09064  0.23574  1.0000
  H   H611      1.0  0.33754  0.38535  0.99399  1.0000
  H   H612      1.0  0.50738  0.44256  0.99449  1.0000
  H   H613      1.0  0.53692  0.00768  0.35585  1.0000
  H   H614      1.0  0.52603  0.02831  0.47248  1.0000
  H   H615      1.0  0.64291  0.16956  0.06619  1.0000
  C   C383      1.0  0.65397  0.17799  0.08006  1.0000
  H   H616      1.0  0.54255  0.45448  0.45186  1.0000
  H   H617      1.0  0.58231  0.36532  0.46647  1.0000
  C   C384      1.0  0.62588  0.03151  0.15575  1.0000
  H   H618      1.0  0.62071  0.01743  0.13336  1.0000
  H   H619      1.0  0.43965  0.20027  0.41186  1.0000
  H   H620      1.0  0.61554  0.04403  0.16656  1.0000
  H   H621      1.0  0.62340  0.01093  0.21012  1.0000
  C   C385      1.0  0.55591  0.41868  0.43251  1.0000
  C   C386      1.0  0.48657  0.49085  0.10668  1.0000
  C   C387      1.0  0.44405  0.23357  0.47529  1.0000
  C   C388      1.0  0.42655  0.22258  0.47775  1.0000
  H   H622      1.0  0.54072  0.07134  0.47755  1.0000
  C   C389      1.0  0.40624  0.18526  0.46634  1.0000
  H   H623      1.0  0.49323  0.04039  0.00130  1.0000
  H   H624      1.0  0.56373  0.40483  0.44980  1.0000
  H   H625      1.0  0.52441  0.00869  0.15650  1.0000
  S   S111      1.0  0.52665  0.28720  0.47434  1.0000
  H   H626      1.0  0.40467  0.16247  0.46068  1.0000
  H   H627      1.0  0.59069  0.47846  0.43274  1.0000
  H   H628      1.0  0.54353  0.40969  0.43316  1.0000
  H   H629      1.0  0.47322  0.00992  0.06073  1.0000
  H   H630      1.0  0.44737  0.17473  0.46518  1.0000
  H   H631      1.0  0.66304  0.04914  0.14058  1.0000
  N   N26       1.0  0.42365  0.19387  0.46077  1.0000
  C   C390      1.0  0.49689  0.01879  0.99786  1.0000
  H   H632      1.0  0.66292  0.21165  0.11458  1.0000
  H   H633      1.0  0.56751  0.20692  0.46807  1.0000
  C   C391      1.0  0.56792  0.25195  0.47768  1.0000
  N   N27       1.0  0.56558  0.45644  0.48127  1.0000
  S   S112      1.0  0.51299  0.42574  0.48024  1.0000
  H   H634      1.0  0.58425  0.42435  0.47963  1.0000
  S   S113      1.0  0.35796  0.38953  0.84173  1.0000
  H   H635      1.0  0.46765  0.46061  0.88494  1.0000
  Fe  Fe53      1.0  0.47462  0.40166  0.94067  1.0000
  S   S114      1.0  0.49696  0.37715  0.92721  1.0000
  H   H636      1.0  0.41521  0.49126  0.48661  1.0000
  Fe  Fe54      1.0  0.45279  0.35753  0.89983  1.0000
  S   S115      1.0  0.47427  0.33070  0.88295  1.0000
  S   S116      1.0  0.42779  0.33967  0.88332  1.0000
  Fe  Fe55      1.0  0.48326  0.33792  0.94348  1.0000
  Fe  Fe56      1.0  0.33585  0.37319  0.80814  1.0000
  Fe  Fe57      1.0  0.48645  0.37143  0.86778  1.0000
  S   S117      1.0  0.50440  0.38321  0.82059  1.0000
  S   S118      1.0  0.46128  0.36294  0.96151  1.0000
  S   S119      1.0  0.46456  0.39760  0.88020  1.0000
  Fe  Fe58      1.0  0.55404  0.36513  0.54668  1.0000
  S   S120      1.0  0.58129  0.37421  0.55062  1.0000
  Fe  Fe59      1.0  0.52237  0.35433  0.59160  1.0000
  S   S121      1.0  0.50770  0.35248  0.53653  1.0000
  S   S122      1.0  0.50780  0.34238  0.64524  1.0000
  Fe  Fe60      1.0  0.52782  0.32587  0.51350  1.0000
  H   H637      1.0  0.36965  0.33219  0.85464  1.0000
  H   H638      1.0  0.53441  0.02428  0.86766  1.0000
  H   H639      1.0  0.41719  0.32440  0.79435  1.0000
  S   S123      1.0  0.54194  0.32587  0.56893  1.0000
  S   S124      1.0  0.53563  0.39384  0.57463  1.0000
  C   C392      1.0  0.50707  0.44806  0.88723  1.0000
  H   H640      1.0  0.37348  0.03512  0.64489  1.0000
  H   H641      1.0  0.46848  0.46966  0.48577  1.0000
  H   H642      1.0  0.41533  0.30800  0.74840  1.0000
  C   C393      1.0  0.50156  0.48824  0.79167  1.0000
  H   H643      1.0  0.50976  0.00806  0.88805  1.0000
  H   H644      1.0  0.37908  0.29187  0.65367  1.0000
  H   H645      1.0  0.49808  0.43186  0.87861  1.0000
  H   H646      1.0  0.50454  0.48075  0.76216  1.0000
  H   H647      1.0  0.61580  0.37820  0.55925  1.0000
  C   C394      1.0  0.36968  0.29813  0.77455  1.0000
  C   C395      1.0  0.47408  0.46843  0.85899  1.0000
  C   C396      1.0  0.49981  0.22203  0.95972  1.0000
  C   C397      1.0  0.41002  0.10874  0.49506  1.0000
  H   H648      1.0  0.53882  0.33044  0.90492  1.0000
  H   H649      1.0  0.43855  0.46564  0.49997  1.0000
  H   H650      1.0  0.38647  0.18088  0.50701  1.0000
  H   H651      1.0  0.39693  0.31375  0.87056  1.0000
  H   H652      1.0  0.39290  0.29608  0.71453  1.0000
  N   N28       1.0  0.57776  0.27560  0.49471  1.0000
  H   H653      1.0  0.54093  0.29294  0.91137  1.0000
  H   H654      1.0  0.50064  0.44615  0.81413  1.0000
  H   H655      1.0  0.42741  0.15426  0.53246  1.0000
  C   C398      1.0  0.50480  0.37232  0.77160  1.0000
  C   C399      1.0  0.51703  0.38269  0.74731  1.0000
  C   C400      1.0  0.51806  0.37410  0.70841  1.0000
  C   C401      1.0  0.50694  0.35482  0.69352  1.0000
  C   C402      1.0  0.49476  0.34441  0.71793  1.0000
  C   C403      1.0  0.49361  0.35323  0.75665  1.0000
  H   H656      1.0  0.52578  0.39742  0.75861  1.0000
  H   H657      1.0  0.52752  0.38219  0.69003  1.0000
  H   H658      1.0  0.48609  0.32952  0.70664  1.0000
  H   H659      1.0  0.48406  0.34525  0.77482  1.0000
  H   H660      1.0  0.42322  0.22366  0.50863  1.0000
  C   C404      1.0  0.33512  0.37195  0.96823  1.0000
  C   C405      1.0  0.44666  0.47508  0.52192  1.0000
  S   S125      1.0  0.33046  0.12780  0.60058  1.0000
  H   H661      1.0  0.59066  0.45639  0.49926  1.0000
  C   C406      1.0  0.55861  0.44139  0.51559  1.0000
  C   C407      1.0  0.39851  0.19118  0.50598  1.0000
  H   H662      1.0  0.47381  0.00526  0.97530  1.0000
  H   H663      1.0  0.59753  0.30086  0.55227  1.0000
  C   C408      1.0  0.37729  0.37519  0.85294  1.0000
  C   C409      1.0  0.39047  0.39343  0.85874  1.0000
  C   C410      1.0  0.40595  0.38309  0.86821  1.0000
  C   C411      1.0  0.40846  0.35426  0.87239  1.0000
  C   C412      1.0  0.39521  0.33606  0.86707  1.0000
  C   C413      1.0  0.37974  0.34642  0.85765  1.0000
  H   H664      1.0  0.38871  0.41578  0.85576  1.0000
  H   H665      1.0  0.41593  0.39743  0.87231  1.0000
  H   H666      1.0  0.55940  0.41831  0.51160  1.0000
  H   H667      1.0  0.46266  0.43958  0.51259  1.0000
  C   C414      1.0  0.49295  0.21042  0.48617  1.0000
  C   C415      1.0  0.40827  0.31712  0.77250  1.0000
  H   H668      1.0  0.58313  0.25256  0.54710  1.0000
  C   C416      1.0  0.59734  0.37150  0.51631  1.0000
  H   H669      1.0  0.57771  0.31496  0.56230  1.0000
  H   H670      1.0  0.35971  0.35607  0.96221  1.0000
  H   H671      1.0  0.50430  0.45241  0.91799  1.0000
  H   H672      1.0  0.33442  0.47396  0.61764  1.0000
  H   H673      1.0  0.46542  0.48141  0.84240  1.0000
  H   H674      1.0  0.48256  0.23263  0.53431  1.0000
  C   C417      1.0  0.52381  0.43400  0.88535  1.0000
  C   C418      1.0  0.58516  0.29574  0.56210  1.0000
  H   H675      1.0  0.50699  0.00115  0.82001  1.0000
  H   H676      1.0  0.33506  0.12464  0.73250  1.0000
  H   H677      1.0  0.35043  0.00362  0.55837  1.0000
  H   H678      1.0  0.47705  0.45007  0.84091  1.0000
  H   H679      1.0  0.37782  0.08388  0.65607  1.0000
  N   N29       1.0  0.52161  0.29653  0.84484  1.0000
  C   C419      1.0  0.53244  0.31858  0.82719  1.0000
  C   C420      1.0  0.51773  0.30617  0.88528  1.0000
  C   C421      1.0  0.50625  0.29563  0.82149  1.0000
  C   C422      1.0  0.53023  0.26868  0.84372  1.0000
  C   C423      1.0  0.53646  0.31499  0.78396  1.0000
  C   C424      1.0  0.46357  0.46279  0.51392  1.0000
  C   C425      1.0  0.49343  0.27403  0.83372  1.0000
  C   C426      1.0  0.52483  0.24629  0.87337  1.0000
  H   H680      1.0  0.52711  0.33982  0.83071  1.0000
  C   C427      1.0  0.56986  0.30308  0.48500  1.0000
  H   H681      1.0  0.50945  0.29168  0.90036  1.0000
  H   H682      1.0  0.51103  0.32637  0.88444  1.0000
  H   H683      1.0  0.50042  0.31665  0.82153  1.0000
  H   H684      1.0  0.50874  0.29061  0.79076  1.0000
  H   H685      1.0  0.52924  0.25916  0.81444  1.0000
  H   H686      1.0  0.54337  0.27187  0.84894  1.0000
  H   H687      1.0  0.57962  0.44106  0.55490  1.0000
  H   H688      1.0  0.40495  0.01976  0.55243  1.0000
  H   H689      1.0  0.52604  0.32050  0.76534  1.0000
  S   S126      1.0  0.33420  0.37463  0.74327  1.0000
  H   H690      1.0  0.57418  0.49432  0.50961  1.0000
  H   H691      1.0  0.49516  0.20744  0.93851  1.0000
  H   H692      1.0  0.48975  0.27618  0.86423  1.0000
  H   H693      1.0  0.49750  0.25235  0.82766  1.0000
  H   H694      1.0  0.48238  0.27739  0.81614  1.0000
  H   H695      1.0  0.52582  0.22521  0.85992  1.0000
  H   H696      1.0  0.51230  0.24812  0.88370  1.0000
  S   S127      1.0  0.54119  0.36334  0.49018  1.0000
  H   H697      1.0  0.34959  0.36007  0.91687  1.0000
  H   H698      1.0  0.56436  0.27054  0.54809  1.0000
  H   H699      1.0  0.56600  0.47033  0.56261  1.0000
  H   H700      1.0  0.35707  0.39027  0.94249  1.0000
  H   H701      1.0  0.40097  0.30071  0.78649  1.0000
  H   H702      1.0  0.39935  0.12164  0.54904  1.0000
  H   H703      1.0  0.54015  0.01002  0.91392  1.0000
  H   H704      1.0  0.53000  0.48882  0.86286  1.0000
  H   H705      1.0  0.38307  0.00283  0.60050  1.0000
  H   H706      1.0  0.60224  0.26047  0.49995  1.0000
  H   H707      1.0  0.33580  0.40822  0.90610  1.0000
  C   C428      1.0  0.56684  0.44791  0.55459  1.0000
  H   H708      1.0  0.47230  0.46763  0.53724  1.0000
  C   C429      1.0  0.39683  0.03314  0.57006  1.0000
  H   H709      1.0  0.36857  0.09437  0.61203  1.0000
  H   H710      1.0  0.52318  0.48562  0.93381  1.0000
  H   H711      1.0  0.58604  0.28889  0.59262  1.0000
  H   H712      1.0  0.60083  0.29641  0.48763  1.0000
  H   H713      1.0  0.35710  0.29004  0.77623  1.0000
  H   H714      1.0  0.34927  0.03317  0.50957  1.0000
  H   H715      1.0  0.51553  0.00514  0.54518  1.0000
  H   H716      1.0  0.37619  0.28234  0.75734  1.0000
  C   C430      1.0  0.38073  0.01752  0.57631  1.0000
  C   C431      1.0  0.61341  0.37445  0.52899  1.0000
  Fe  Fe61      1.0  0.33786  0.12428  0.53837  1.0000
  N   N30       1.0  0.36602  0.03501  0.58476  1.0000
  C   C432      1.0  0.49615  0.00774  0.50381  1.0000
  C   C433      1.0  0.48880  0.48638  0.87118  1.0000
  C   C434      1.0  0.36737  0.04909  0.62379  1.0000
  C   C435      1.0  0.50705  0.46605  0.82110  1.0000
  H   H717      1.0  0.54427  0.31945  0.84234  1.0000
  H   H718      1.0  0.53357  0.44789  0.89600  1.0000
  C   C436      1.0  0.37606  0.07773  0.62544  1.0000
  C   C437      1.0  0.36298  0.05658  0.55401  1.0000
  H   H719      1.0  0.33029  0.32545  0.91973  1.0000
  H   H720      1.0  0.35223  0.06928  0.56175  1.0000
  H   H721      1.0  0.44480  0.25431  0.48980  1.0000
  H   H722      1.0  0.37287  0.07204  0.55229  1.0000
  H   H723      1.0  0.35514  0.05318  0.63601  1.0000
  H   H724      1.0  0.53313  0.24583  0.89853  1.0000
  S   S128      1.0  0.49449  0.04471  0.50888  1.0000
  C   C438      1.0  0.35152  0.01576  0.58565  1.0000
  Fe  Fe62      1.0  0.52225  0.39018  0.51838  1.0000
  S   S129      1.0  0.46277  0.10680  0.48995  1.0000
  H   H725      1.0  0.34335  0.14300  0.69246  1.0000
  H   H726      1.0  0.54625  0.32988  0.77613  1.0000
  H   H727      1.0  0.56071  0.43597  0.57776  1.0000
  H   H728      1.0  0.35191  0.00338  0.64733  1.0000
  H   H729      1.0  0.38806  0.07752  0.61162  1.0000
  H   H730      1.0  0.54546  0.44555  0.51855  1.0000
  H   H731      1.0  0.57644  0.32081  0.49851  1.0000
  C   C439      1.0  0.62650  0.37257  0.50293  1.0000
  H   H732      1.0  0.52376  0.41527  0.90423  1.0000
  C   C440      1.0  0.38114  0.11762  0.50491  1.0000
  N   N31       1.0  0.38387  0.33678  0.73336  1.0000
  C   C441      1.0  0.37957  0.36390  0.71335  1.0000
  C   C442      1.0  0.38828  0.31593  0.70238  1.0000
  C   C443      1.0  0.39824  0.34248  0.75910  1.0000
  C   C444      1.0  0.36938  0.32766  0.75653  1.0000
  C   C445      1.0  0.37772  0.38992  0.73960  1.0000
  C   C446      1.0  0.37452  0.30767  0.67453  1.0000
  H   H733      1.0  0.38883  0.36941  0.69131  1.0000
  H   H734      1.0  0.36797  0.36187  0.69734  1.0000
  H   H735      1.0  0.39847  0.32413  0.68471  1.0000
  H   H736      1.0  0.40701  0.35656  0.74428  1.0000
  H   H737      1.0  0.39446  0.35396  0.78551  1.0000
  H   H738      1.0  0.36718  0.34241  0.78077  1.0000
  H   H739      1.0  0.35810  0.32916  0.73926  1.0000
  H   H740      1.0  0.38934  0.39646  0.75276  1.0000
  H   H741      1.0  0.37341  0.40781  0.72198  1.0000
  H   H742      1.0  0.36870  0.38668  0.76260  1.0000
  H   H743      1.0  0.36428  0.29780  0.68994  1.0000
  H   H744      1.0  0.51989  0.46136  0.81433  1.0000
  C   C447      1.0  0.50979  0.47208  0.52874  1.0000
  C   C448      1.0  0.49158  0.23321  0.51179  1.0000
  H   H745      1.0  0.40556  0.18272  0.53029  1.0000
  H   H746      1.0  0.37012  0.32565  0.65736  1.0000
  C   C449      1.0  0.39704  0.11645  0.51916  1.0000
  C   C450      1.0  0.57712  0.27228  0.53804  1.0000
  S   S130      1.0  0.47374  0.44642  0.96663  1.0000
  C   C451      1.0  0.33216  0.13300  0.70350  1.0000
  H   H747      1.0  0.44251  0.46645  0.55008  1.0000
  H   H748      1.0  0.43504  0.18959  0.53668  1.0000
  H   H749      1.0  0.33236  0.35094  0.98014  1.0000
  C   C452      1.0  0.50181  0.25677  0.50871  1.0000
  S   S131      1.0  0.36550  0.12899  0.53644  1.0000
  H   H750      1.0  0.50059  0.27408  0.52868  1.0000
  H   H751      1.0  0.33406  0.21004  0.63351  1.0000
  H   H752      1.0  0.48758  0.25779  0.93469  1.0000
  H   H753      1.0  0.52667  0.42657  0.85583  1.0000
  H   H754      1.0  0.48731  0.49038  0.90262  1.0000
  C   C453      1.0  0.43625  0.16957  0.52104  1.0000
  H   H755      1.0  0.33009  0.02357  0.70290  1.0000
  H   H756      1.0  0.37469  0.29871  0.80419  1.0000
  C   C454      1.0  0.53238  0.31071  0.91206  1.0000
  S   S132      1.0  0.47952  0.18153  0.49147  1.0000
  H   H757      1.0  0.63876  0.37486  0.51325  1.0000
  N   N32       1.0  0.50516  0.47399  0.86304  1.0000
  H   H758      1.0  0.44853  0.16208  0.52861  1.0000
  H   H759      1.0  0.34017  0.02816  0.58805  1.0000
  H   H760      1.0  0.51403  0.45884  0.55189  1.0000
  H   H761      1.0  0.52808  0.31296  0.94226  1.0000
  H   H762      1.0  0.42214  0.10766  0.50650  1.0000
  H   H763      1.0  0.39576  0.05263  0.55314  1.0000
  H   H764      1.0  0.54075  0.29362  0.77693  1.0000
  C   C455      1.0  0.49553  0.25067  0.95735  1.0000
  C   C456      1.0  0.53535  0.00473  0.88483  1.0000
  H   H765      1.0  0.39637  0.21391  0.51031  1.0000
  H   H766      1.0  0.48831  0.49138  0.79248  1.0000
  C   C457      1.0  0.35119  0.36949  0.94587  1.0000
  H   H767      1.0  0.45260  0.21964  0.49052  1.0000
  H   H768      1.0  0.55518  0.25321  0.48788  1.0000
  H   H769      1.0  0.37108  0.03294  0.50266  1.0000
  H   H770      1.0  0.34490  0.24994  0.67203  1.0000
  C   C458      1.0  0.50816  0.46104  0.49153  1.0000
  H   H771      1.0  0.37872  0.00329  0.55125  1.0000
  H   H772      1.0  0.33227  0.42455  0.95138  1.0000
  H   H773      1.0  0.41379  0.47741  0.53484  1.0000
  C   C459      1.0  0.33200  0.24754  0.66872  1.0000
  H   H774      1.0  0.40287  0.03769  0.59799  1.0000
  H   H775      1.0  0.35944  0.06347  0.49279  1.0000
  H   H776      1.0  0.55750  0.30383  0.49732  1.0000
  H   H777      1.0  0.57109  0.21624  0.51706  1.0000
  S   S133      1.0  0.33023  0.29595  0.71266  1.0000
  C   C460      1.0  0.57395  0.22216  0.48689  1.0000
  H   H778      1.0  0.54435  0.49267  0.52639  1.0000
  C   C461      1.0  0.56531  0.48776  0.48720  1.0000
  C   C462      1.0  0.36060  0.04535  0.51265  1.0000
  C   C463      1.0  0.51785  0.49562  0.87280  1.0000
  C   C464      1.0  0.59521  0.27552  0.48212  1.0000
  H   H779      1.0  0.58705  0.21970  0.48162  1.0000
  H   H780      1.0  0.53281  0.72157  0.45873  1.0000
  Fe  Fe63      1.0  0.44981  0.60012  0.44464  1.0000
  C   C465      1.0  0.49315  0.51957  0.00847  1.0000
  Fe  Fe64      1.0  0.48008  0.60534  0.39202  1.0000
  S   S134      1.0  0.49590  0.61808  0.44215  1.0000
  S   S135      1.0  0.49494  0.59746  0.33755  1.0000
  H   H781      1.0  0.61227  0.53885  0.24437  1.0000
  H   H782      1.0  0.52092  0.97866  0.39137  1.0000
  H   H783      1.0  0.62931  0.59932  0.24906  1.0000
  H   H784      1.0  0.61507  0.78715  0.34007  1.0000
  S   S136      1.0  0.46879  0.56942  0.42423  1.0000
  S   S137      1.0  0.45978  0.63492  0.40710  1.0000
  S   S138      1.0  0.64664  0.60275  0.11553  1.0000
  H   H785      1.0  0.63774  0.81367  0.28884  1.0000
  Fe  Fe65      1.0  0.52425  0.58375  0.05695  1.0000
  S   S139      1.0  0.54243  0.61510  0.03367  1.0000
  S   S140      1.0  0.52292  0.53705  0.03908  1.0000
  Fe  Fe66      1.0  0.51187  0.62565  0.11753  1.0000
  S   S141      1.0  0.52887  0.65968  0.09878  1.0000
  S   S142      1.0  0.49167  0.63373  0.16087  1.0000
  Fe  Fe67      1.0  0.52238  0.64744  0.03803  1.0000
  C   C466      1.0  0.61645  0.83950  0.46391  1.0000
  Fe  Fe68      1.0  0.54789  0.62557  0.09609  1.0000
  S   S143      1.0  0.57140  0.63384  0.13001  1.0000
  S   S144      1.0  0.50410  0.61509  0.05699  1.0000
  S   S145      1.0  0.53099  0.59256  0.11906  1.0000
  C   C467      1.0  0.62579  0.61188  0.12002  1.0000
  C   C468      1.0  0.61999  0.62852  0.15024  1.0000
  C   C469      1.0  0.60336  0.63488  0.15274  1.0000
  C   C470      1.0  0.59225  0.62479  0.12515  1.0000
  C   C471      1.0  0.59804  0.60791  0.09515  1.0000
  C   C472      1.0  0.61467  0.60152  0.09267  1.0000
  H   H786      1.0  0.62832  0.63671  0.17151  1.0000
  H   H787      1.0  0.59908  0.64797  0.17606  1.0000
  H   H788      1.0  0.58973  0.59998  0.07365  1.0000
  H   H789      1.0  0.61897  0.58865  0.06913  1.0000
  C   C473      1.0  0.49346  0.60782  0.28861  1.0000
  C   C474      1.0  0.48025  0.62265  0.27411  1.0000
  C   C475      1.0  0.47988  0.63054  0.23492  1.0000
  C   C476      1.0  0.49274  0.62392  0.21006  1.0000
  C   C477      1.0  0.50598  0.60933  0.22467  1.0000
  C   C478      1.0  0.50628  0.60123  0.26367  1.0000
  H   H790      1.0  0.47030  0.62783  0.29299  1.0000
  H   H791      1.0  0.46956  0.64176  0.22382  1.0000
  H   H792      1.0  0.51598  0.60418  0.20593  1.0000
  H   H793      1.0  0.51658  0.58985  0.27466  1.0000
  H   H794      1.0  0.49784  0.54888  0.21706  1.0000
  C   C479      1.0  0.63332  0.53495  0.15982  1.0000
  H   H795      1.0  0.62784  0.51134  0.27773  1.0000
  C   C480      1.0  0.46830  0.57790  0.11101  1.0000
  C   C481      1.0  0.61655  0.77338  0.36556  1.0000
  C   C482      1.0  0.47085  0.56106  0.14843  1.0000
  H   H796      1.0  0.65358  0.56375  0.21311  1.0000
  H   H797      1.0  0.49179  0.65857  0.35305  1.0000
  H   H798      1.0  0.51663  0.64473  0.31749  1.0000
  H   H799      1.0  0.51189  0.71365  0.09929  1.0000
  H   H800      1.0  0.60914  0.58272  0.20108  1.0000
  Fe  Fe69      1.0  0.47527  0.64593  0.45873  1.0000
  H   H801      1.0  0.46403  0.51161  0.11810  1.0000
  C   C483      1.0  0.51700  0.98255  0.00304  1.0000
  H   H802      1.0  0.45884  0.98596  0.08046  1.0000
  H   H803      1.0  0.66058  0.69738  0.34564  1.0000
  H   H804      1.0  0.65824  0.81641  0.30600  1.0000
  H   H805      1.0  0.65381  0.51468  0.21453  1.0000
  H   H806      1.0  0.65767  0.77511  0.43979  1.0000
  C   C484      1.0  0.64633  0.77644  0.31912  1.0000
  C   C485      1.0  0.62778  0.88613  0.46601  1.0000
  C   C486      1.0  0.48593  0.53856  0.22003  1.0000
  C   C487      1.0  0.48260  0.49910  0.99285  1.0000
  H   H807      1.0  0.45592  0.73425  0.03608  1.0000
  C   C488      1.0  0.66181  0.72038  0.34174  1.0000
  C   C489      1.0  0.45866  0.67985  0.13260  1.0000
  H   H808      1.0  0.65687  0.76890  0.30231  1.0000
  C   C490      1.0  0.40358  0.62617  0.46870  1.0000
  C   C491      1.0  0.50814  0.70788  0.46635  1.0000
  S   S146      1.0  0.64732  0.84391  0.43532  1.0000
  H   H809      1.0  0.52350  0.72669  0.03387  1.0000
  H   H810      1.0  0.50961  0.94090  0.98491  1.0000
  H   H811      1.0  0.53440  0.66443  0.39144  1.0000
  H   H812      1.0  0.46405  0.68291  0.16161  1.0000
  H   H813      1.0  0.47526  0.68956  0.39148  1.0000
  H   H814      1.0  0.66246  0.80133  0.37899  1.0000
  C   C492      1.0  0.47155  0.99324  0.08249  1.0000
  H   H815      1.0  0.52165  0.75182  0.32883  1.0000
  H   H816      1.0  0.51559  0.98588  0.43976  1.0000
  C   C493      1.0  0.60417  0.56162  0.19494  1.0000
  H   H817      1.0  0.47494  0.57662  0.17035  1.0000
  H   H818      1.0  0.52241  0.70715  0.38816  1.0000
  H   H819      1.0  0.48925  0.69590  0.14593  1.0000
  C   C494      1.0  0.50601  0.96256  0.98806  1.0000
  C   C495      1.0  0.65226  0.97982  0.24959  1.0000
  H   H820      1.0  0.65883  0.54724  0.15342  1.0000
  H   H821      1.0  0.48912  0.54095  0.01207  1.0000
  N   N33       1.0  0.64743  0.76665  0.36031  1.0000
  N   N34       1.0  0.48245  0.53671  0.14603  1.0000
  H   H822      1.0  0.48116  0.95159  0.45426  1.0000
  C   C496      1.0  0.52515  0.98947  0.41798  1.0000
  H   H823      1.0  0.63637  0.72694  0.34524  1.0000
  H   H824      1.0  0.47923  0.97504  0.07475  1.0000
  H   H825      1.0  0.54285  0.97753  0.46251  1.0000
  C   C497      1.0  0.52068  0.72793  0.46616  1.0000
  H   H826      1.0  0.51284  0.72284  0.14917  1.0000
  H   H827      1.0  0.51065  0.68624  0.45937  1.0000
  H   H828      1.0  0.52262  0.52957  0.12521  1.0000
  H   H829      1.0  0.46371  0.66064  0.11939  1.0000
  C   C498      1.0  0.64721  0.73504  0.36060  1.0000
  C   C499      1.0  0.49866  0.50681  0.46910  1.0000
  C   C500      1.0  0.51603  0.73345  0.01009  1.0000
  H   H830      1.0  0.63751  0.90059  0.45995  1.0000
  C   C501      1.0  0.48869  0.96325  0.47413  1.0000
  Fe  Fe70      1.0  0.48334  0.58370  0.47485  1.0000
  H   H831      1.0  0.49579  0.69384  0.05460  1.0000
  C   C502      1.0  0.52099  0.71043  0.35659  1.0000
  H   H832      1.0  0.47007  0.75950  0.01918  1.0000
  H   H833      1.0  0.50150  0.74203  0.34330  1.0000
  H   H834      1.0  0.51111  0.70917  0.24276  1.0000
  C   C503      1.0  0.52269  0.66183  0.33390  1.0000
  H   H835      1.0  0.53928  0.63398  0.36359  1.0000
  H   H836      1.0  0.63588  0.76679  0.30381  1.0000
  C   C504      1.0  0.63337  0.77695  0.38400  1.0000
  H   H837      1.0  0.48666  0.52440  0.24535  1.0000
  H   H838      1.0  0.49442  0.52000  0.44590  1.0000
  C   C505      1.0  0.63579  0.57922  0.25336  1.0000
  C   C506      1.0  0.51440  0.74047  0.35077  1.0000
  H   H839      1.0  0.44845  0.51879  0.42264  1.0000
  C   C507      1.0  0.48474  0.69941  0.37341  1.0000
  H   H840      1.0  0.53343  0.66768  0.31643  1.0000
  H   H841      1.0  0.47860  0.70695  0.34707  1.0000
  C   C508      1.0  0.49790  0.67754  0.36502  1.0000
  H   H842      1.0  0.61749  0.81757  0.45649  1.0000
  H   H843      1.0  0.50617  0.74834  0.11519  1.0000
  C   C509      1.0  0.48824  0.71563  0.12903  1.0000
  H   H844      1.0  0.47424  0.75587  0.08804  1.0000
  N   N35       1.0  0.63217  0.53878  0.20306  1.0000
  H   H845      1.0  0.51601  0.75249  0.37806  1.0000
  H   H846      1.0  0.52003  0.53774  0.17460  1.0000
  C   C510      1.0  0.51735  0.70025  0.26829  1.0000
  H   H847      1.0  0.48950  0.71711  0.39079  1.0000
  H   H848      1.0  0.63754  0.58237  0.19180  1.0000
  H   H849      1.0  0.46076  0.56621  0.08993  1.0000
  C   C511      1.0  0.50574  0.72567  0.12226  1.0000
  C   C512      1.0  0.51364  0.52912  0.14900  1.0000
  H   H850      1.0  0.52005  0.63587  0.38580  1.0000
  C   C513      1.0  0.38833  0.63753  0.47802  1.0000
  C   C514      1.0  0.40602  0.59717  0.46976  1.0000
  H   H851      1.0  0.45870  0.55390  0.15813  1.0000
  H   H852      1.0  0.48033  0.66743  0.01489  1.0000
  H   H853      1.0  0.52636  0.71583  0.27831  1.0000
  H   H854      1.0  0.64704  0.58455  0.26926  1.0000
  H   H855      1.0  0.47017  0.65073  0.05328  1.0000
  H   H856      1.0  0.45644  0.72431  0.12333  1.0000
  H   H857      1.0  0.50100  0.56813  0.15389  1.0000
  H   H858      1.0  0.55086  0.97710  0.41362  1.0000
  H   H859      1.0  0.49104  0.74313  0.06166  1.0000
  H   H860      1.0  0.42985  0.51569  0.44743  1.0000
  H   H861      1.0  0.60904  0.51771  0.20383  1.0000
  H   H862      1.0  0.45242  0.70375  0.08255  1.0000
  S   S147      1.0  0.53414  0.77984  0.47858  1.0000
  C   C515      1.0  0.48496  0.68692  0.07081  1.0000
  C   C516      1.0  0.49915  0.54801  0.13808  1.0000
  C   C517      1.0  0.46099  0.70587  0.10683  1.0000
  H   H863      1.0  0.48251  0.73116  0.14877  1.0000
  C   C518      1.0  0.47362  0.67166  0.04200  1.0000
  C   C519      1.0  0.51776  0.75594  0.47675  1.0000
  H   H864      1.0  0.47986  0.58400  0.09757  1.0000
  C   C520      1.0  0.52939  0.64865  0.37119  1.0000
  H   H865      1.0  0.53351  0.71072  0.34485  1.0000
  H   H866      1.0  0.52360  0.68104  0.25812  1.0000
  C   C521      1.0  0.61445  0.53807  0.21297  1.0000
  H   H867      1.0  0.47670  0.55457  0.22709  1.0000
  C   C522      1.0  0.50476  0.69328  0.29959  1.0000
  H   H868      1.0  0.62599  0.51663  0.15011  1.0000
  H   H869      1.0  0.46177  0.59758  0.11796  1.0000
  H   H870      1.0  0.49746  0.67528  0.28858  1.0000
  N   N36       1.0  0.47802  0.71115  0.09335  1.0000
  C   C523      1.0  0.44262  0.50898  0.44807  1.0000
  H   H871      1.0  0.50252  0.67139  0.39385  1.0000
  C   C524      1.0  0.51274  0.76230  0.00485  1.0000
  C   C525      1.0  0.48644  0.99241  0.47830  1.0000
  H   H872      1.0  0.62864  0.56595  0.27291  1.0000
  H   H873      1.0  0.48944  0.67047  0.09084  1.0000
  C   C526      1.0  0.64022  0.56609  0.21382  1.0000
  C   C527      1.0  0.47850  0.73789  0.07021  1.0000
  H   H874      1.0  0.49616  0.71093  0.30037  1.0000
  H   H875      1.0  0.53742  0.95025  0.43018  1.0000
  H   H876      1.0  0.44556  0.67616  0.13703  1.0000
  C   C528      1.0  0.47686  0.51785  0.11364  1.0000
  N   N37       1.0  0.51151  0.68656  0.33892  1.0000
  H   H877      1.0  0.62823  0.55337  0.14446  1.0000
  S   S148      1.0  0.54092  0.86292  0.47715  1.0000
  H   H878      1.0  0.64154  0.82045  0.33833  1.0000
  H   H879      1.0  0.46266  0.68314  0.03352  1.0000
  C   C529      1.0  0.64597  0.80852  0.31310  1.0000
  C   C530      1.0  0.50890  0.51235  0.01911  1.0000
  H   H880      1.0  0.46875  0.51343  0.18837  1.0000
  C   C531      1.0  0.65039  0.53089  0.14317  1.0000
  H   H881      1.0  0.47729  0.52904  0.08554  1.0000
  H   H882      1.0  0.63295  0.76611  0.41238  1.0000
  H   H883      1.0  0.50044  0.55339  0.10697  1.0000
  H   H884      1.0  0.47421  0.72365  0.01068  1.0000
  H   H885      1.0  0.64699  0.53028  0.27949  1.0000
  H   H886      1.0  0.65034  0.97262  0.27971  1.0000
  H   H887      1.0  0.50256  0.97874  0.13195  1.0000
  C   C532      1.0  0.46896  0.73828  0.03213  1.0000
  S   S149      1.0  0.42463  0.58132  0.45550  1.0000
  C   C533      1.0  0.62935  0.85786  0.45601  1.0000
  H   H888      1.0  0.48875  0.50217  0.18441  1.0000
  H   H889      1.0  0.60724  0.77986  0.38684  1.0000
  H   H890      1.0  0.56923  0.49876  0.46055  1.0000
  H   H891      1.0  0.61399  0.75135  0.35749  1.0000
  H   H892      1.0  0.63470  0.79942  0.39163  1.0000
  C   C534      1.0  0.49250  0.71579  0.47678  1.0000
  H   H893      1.0  0.52904  0.97600  0.01101  1.0000
  H   H894      1.0  0.59182  0.56094  0.20732  1.0000
  C   C535      1.0  0.64071  0.51440  0.22169  1.0000
  H   H895      1.0  0.64380  0.96801  0.23085  1.0000
  H   H896      1.0  0.51767  0.77740  0.02499  1.0000
  H   H897      1.0  0.41331  0.63979  0.45967  1.0000
  C   C536      1.0  0.48128  0.52131  0.18390  1.0000
  H   H898      1.0  0.47460  0.98501  0.14315  1.0000
  C   C537      1.0  0.64022  0.51275  0.26602  1.0000
  C   C538      1.0  0.50994  0.71354  0.98411  1.0000
  S   S150      1.0  0.47640  0.69133  0.47969  1.0000
  H   H899      1.0  0.63542  0.99207  0.17655  1.0000
  H   H900      1.0  0.60277  0.55898  0.16330  1.0000
  H   H901      1.0  0.64610  0.72686  0.39051  1.0000
  C   C539      1.0  0.66280  0.77805  0.37755  1.0000
  C   C540      1.0  0.54011  0.97307  0.43175  1.0000
  H   H902      1.0  0.51087  0.50683  0.15396  1.0000
  H   H903      1.0  0.66225  0.72397  0.31020  1.0000
  S   S151      1.0  0.51360  0.67667  0.98919  1.0000
  H   H904      1.0  0.38650  0.65990  0.47601  1.0000
  H   H905      1.0  0.53952  0.49702  0.47580  1.0000
  H   H906      1.0  0.50349  0.99497  0.08593  1.0000
  H   H907      1.0  0.47048  0.50502  0.98468  1.0000
  H   H908      1.0  0.52994  0.99510  0.11037  1.0000
  H   H909      1.0  0.64985  0.53274  0.11125  1.0000
  H   H910      1.0  0.65526  0.50982  0.14976  1.0000
  H   H911      1.0  0.46432  0.51589  0.48100  1.0000
  C   C541      1.0  0.39311  0.57987  0.48136  1.0000
  S   S152      1.0  0.36527  0.89047  0.79578  1.0000
  H   H912      1.0  0.52300  0.77410  0.55932  1.0000
  Fe  Fe71      1.0  0.47703  0.90257  0.93054  1.0000
  S   S153      1.0  0.49932  0.88003  0.91071  1.0000
  C   C542      1.0  0.37041  0.87399  0.94859  1.0000
  Fe  Fe72      1.0  0.45446  0.85845  0.89074  1.0000
  S   S154      1.0  0.47566  0.83306  0.86916  1.0000
  S   S155      1.0  0.42929  0.84128  0.87485  1.0000
  Fe  Fe73      1.0  0.48652  0.83978  0.92834  1.0000
  H   H913      1.0  0.48455  0.99322  0.88949  1.0000
  Fe  Fe74      1.0  0.48667  0.87473  0.85345  1.0000
  S   S156      1.0  0.49531  0.89232  0.79572  1.0000
  S   S157      1.0  0.46466  0.86291  0.95102  1.0000
  S   S158      1.0  0.46499  0.89947  0.87231  1.0000
  Fe  Fe75      1.0  0.55824  0.87073  0.52603  1.0000
  H   H914      1.0  0.36812  0.57762  0.49971  1.0000
  Fe  Fe76      1.0  0.53299  0.85206  0.58703  1.0000
  S   S159      1.0  0.51420  0.84296  0.54171  1.0000
  S   S160      1.0  0.52880  0.83634  0.64869  1.0000
  H   H915      1.0  0.33425  0.70256  0.54105  1.0000
  H   H916      1.0  0.37462  0.83349  0.81973  1.0000
  Fe  Fe77      1.0  0.52233  0.88387  0.51495  1.0000
  C   C543      1.0  0.51864  0.99065  0.88908  1.0000
  S   S161      1.0  0.55272  0.82957  0.55454  1.0000
  S   S162      1.0  0.53992  0.89419  0.56249  1.0000
  H   H917      1.0  0.46383  0.55388  0.58703  1.0000
  H   H918      1.0  0.36932  0.89516  0.93621  1.0000
  C   C544      1.0  0.51038  0.96444  0.52073  1.0000
  H   H919      1.0  0.52391  0.70843  0.58011  1.0000
  H   H920      1.0  0.39477  0.55742  0.48216  1.0000
  C   C545      1.0  0.34112  0.87446  0.88281  1.0000
  H   H921      1.0  0.55019  0.52357  0.50140  1.0000
  H   H922      1.0  0.65288  0.80244  0.51130  1.0000
  H   H923      1.0  0.39631  0.65500  0.61298  1.0000
  H   H924      1.0  0.37782  0.68468  0.54744  1.0000
  H   H925      1.0  0.51674  0.94403  0.78395  1.0000
  C   C546      1.0  0.34511  0.80889  0.88021  1.0000
  H   H926      1.0  0.53905  0.91499  0.89677  1.0000
  H   H927      1.0  0.52692  0.98943  0.81282  1.0000
  H   H928      1.0  0.33973  0.68890  0.60608  1.0000
  H   H929      1.0  0.49426  0.76483  0.56610  1.0000
  H   H930      1.0  0.48232  0.79756  0.61002  1.0000
  H   H931      1.0  0.39954  0.81552  0.85113  1.0000
  H   H932      1.0  0.51299  0.72752  0.54531  1.0000
  H   H933      1.0  0.49663  0.69402  0.61083  1.0000
  H   H934      1.0  0.50813  0.51271  0.92757  1.0000
  C   C547      1.0  0.45641  0.51722  0.55410  1.0000
  C   C548      1.0  0.50588  0.50038  0.53600  1.0000
  C   C549      1.0  0.50442  0.87607  0.75509  1.0000
  C   C550      1.0  0.50935  0.84809  0.75544  1.0000
  C   C551      1.0  0.51672  0.83632  0.72253  1.0000
  C   C552      1.0  0.51907  0.85221  0.68881  1.0000
  C   C553      1.0  0.51384  0.88003  0.68826  1.0000
  C   C554      1.0  0.50665  0.89191  0.72131  1.0000
  H   H935      1.0  0.50779  0.83568  0.78124  1.0000
  H   H936      1.0  0.52084  0.81485  0.72343  1.0000
  H   H937      1.0  0.51559  0.89252  0.66258  1.0000
  H   H938      1.0  0.50285  0.91356  0.72065  1.0000
  C   C555      1.0  0.51458  0.98195  0.82031  1.0000
  H   H939      1.0  0.48656  0.74701  0.60718  1.0000
  H   H940      1.0  0.51923  0.78014  0.66610  1.0000
  H   H941      1.0  0.46006  0.56133  0.53778  1.0000
  C   C556      1.0  0.39514  0.66858  0.58726  1.0000
  H   H942      1.0  0.36301  0.83165  0.94220  1.0000
  H   H943      1.0  0.40199  0.65820  0.56365  1.0000
  H   H944      1.0  0.36735  0.64282  0.62955  1.0000
  Fe  Fe78      1.0  0.33978  0.87521  0.77877  1.0000
  C   C557      1.0  0.38283  0.87622  0.81818  1.0000
  C   C558      1.0  0.39577  0.89428  0.82727  1.0000
  C   C559      1.0  0.40997  0.88414  0.84494  1.0000
  C   C560      1.0  0.41147  0.85566  0.85371  1.0000
  C   C561      1.0  0.39851  0.83761  0.84470  1.0000
  C   C562      1.0  0.38433  0.84775  0.82694  1.0000
  H   H945      1.0  0.39479  0.91635  0.82067  1.0000
  H   H946      1.0  0.41973  0.89838  0.85186  1.0000
  H   H947      1.0  0.53953  0.94995  0.91526  1.0000
  C   C563      1.0  0.65537  0.88299  0.58401  1.0000
  H   H948      1.0  0.33712  0.79134  0.87109  1.0000
  C   C564      1.0  0.35151  0.66589  0.66564  1.0000
  H   H949      1.0  0.34888  0.72648  0.55963  1.0000
  C   C565      1.0  0.50332  0.77186  0.97365  1.0000
  C   C566      1.0  0.34650  0.90531  0.88608  1.0000
  C   C567      1.0  0.36623  0.66522  0.63847  1.0000
  H   H950      1.0  0.50716  0.50874  0.56487  1.0000
  H   H951      1.0  0.34892  0.82002  0.85380  1.0000
  H   H952      1.0  0.36099  0.97805  0.61493  1.0000
  C   C568      1.0  0.37793  0.59128  0.49133  1.0000
  C   C569      1.0  0.48954  0.74391  0.48667  1.0000
  C   C570      1.0  0.33535  0.86757  0.95303  1.0000
  C   C571      1.0  0.34695  0.70434  0.55109  1.0000
  S   S163      1.0  0.58326  0.89061  0.51628  1.0000
  H   H953      1.0  0.38334  0.71231  0.62923  1.0000
  C   C572      1.0  0.66244  0.81632  0.52331  1.0000
  H   H954      1.0  0.47259  0.96473  0.87314  1.0000
  C   C573      1.0  0.33585  0.82793  0.90871  1.0000
  C   C574      1.0  0.60063  0.87740  0.49202  1.0000
  C   C575      1.0  0.45115  0.51928  0.48491  1.0000
  H   H955      1.0  0.36207  0.75352  0.63247  1.0000
  H   H956      1.0  0.64237  0.90661  0.53871  1.0000
  N   N38       1.0  0.51456  0.96852  0.85957  1.0000
  H   H957      1.0  0.45378  0.50617  0.58169  1.0000
  H   H958      1.0  0.36334  0.72788  0.67050  1.0000
  S   S164      1.0  0.49946  0.80871  0.96919  1.0000
  H   H959      1.0  0.54449  0.99109  0.87118  1.0000
  H   H960      1.0  0.34751  0.72690  0.63489  1.0000
  H   H961      1.0  0.35935  0.90774  0.87767  1.0000
  H   H962      1.0  0.52136  0.92919  0.91860  1.0000
  H   H963      1.0  0.63044  0.87957  0.56163  1.0000
  C   C576      1.0  0.50908  0.96296  0.78672  1.0000
  H   H964      1.0  0.66059  0.87974  0.49962  1.0000
  C   C577      1.0  0.49853  0.70036  0.58045  1.0000
  C   C578      1.0  0.51504  0.73661  0.64317  1.0000
  H   H965      1.0  0.50347  0.72866  0.65530  1.0000
  H   H966      1.0  0.34639  0.66276  0.57440  1.0000
  H   H967      1.0  0.49588  0.70805  0.93231  1.0000
  H   H968      1.0  0.36656  0.87427  0.97924  1.0000
  H   H969      1.0  0.54597  0.74051  0.61224  1.0000
  H   H970      1.0  0.48723  0.70909  0.56820  1.0000
  H   H971      1.0  0.52709  0.78462  0.60670  1.0000
  Fe  Fe79      1.0  0.33318  0.61846  0.52744  1.0000
  S   S165      1.0  0.49517  0.55320  0.51701  1.0000
  C   C579      1.0  0.49658  0.76071  0.59723  1.0000
  H   H972      1.0  0.49536  0.93820  0.85020  1.0000
  H   H973      1.0  0.35589  0.79941  0.89392  1.0000
  C   C580      1.0  0.49033  0.97052  0.97785  1.0000
  S   S166      1.0  0.47568  0.94616  0.95978  1.0000
  N   N39       1.0  0.51267  0.74639  0.60214  1.0000
  N   N40       1.0  0.45085  0.86150  0.74877  1.0000
  C   C581      1.0  0.46141  0.87516  0.71871  1.0000
  C   C582      1.0  0.46024  0.83966  0.77099  1.0000
  C   C583      1.0  0.44637  0.88395  0.77759  1.0000
  C   C584      1.0  0.43595  0.84966  0.72995  1.0000
  C   C585      1.0  0.47016  0.85548  0.69050  1.0000
  C   C586      1.0  0.46006  0.80937  0.75519  1.0000
  C   C587      1.0  0.43641  0.90878  0.76213  1.0000
  C   C588      1.0  0.42293  0.83869  0.75802  1.0000
  H   H974      1.0  0.45426  0.88974  0.70051  1.0000
  H   H975      1.0  0.47092  0.88829  0.73264  1.0000
  H   H976      1.0  0.45566  0.83769  0.80108  1.0000
  H   H977      1.0  0.47304  0.84632  0.77456  1.0000
  H   H978      1.0  0.43948  0.87502  0.80223  1.0000
  H   H979      1.0  0.45750  0.89293  0.79087  1.0000
  H   H980      1.0  0.43012  0.86556  0.71114  1.0000
  H   H981      1.0  0.43887  0.83268  0.70918  1.0000
  H   H982      1.0  0.47648  0.86833  0.66846  1.0000
  H   H983      1.0  0.47968  0.84325  0.70530  1.0000
  H   H984      1.0  0.46169  0.84151  0.67487  1.0000
  H   H985      1.0  0.44814  0.79931  0.75982  1.0000
  H   H986      1.0  0.46324  0.80773  0.72437  1.0000
  H   H987      1.0  0.46902  0.79682  0.77154  1.0000
  H   H988      1.0  0.44311  0.92106  0.74025  1.0000
  H   H989      1.0  0.43386  0.92328  0.78648  1.0000
  H   H990      1.0  0.42455  0.90207  0.75056  1.0000
  H   H991      1.0  0.41387  0.85517  0.76440  1.0000
  H   H992      1.0  0.42810  0.83136  0.78570  1.0000
  H   H993      1.0  0.41666  0.82030  0.74523  1.0000
  H   H994      1.0  0.34777  0.68719  0.67421  1.0000
  H   H995      1.0  0.52180  0.92626  0.84412  1.0000
  H   H996      1.0  0.35443  0.65432  0.69250  1.0000
  H   H997      1.0  0.63481  0.91132  0.58650  1.0000
  C   C589      1.0  0.51276  0.72101  0.57597  1.0000
  H   H998      1.0  0.55199  0.76948  0.58281  1.0000
  H   H999      1.0  0.34080  0.88758  0.96275  1.0000
  C   C590      1.0  0.34939  0.68404  0.58515  1.0000
  C   C591      1.0  0.49417  0.78868  0.61859  1.0000
  H   H1000     1.0  0.49827  0.94755  0.89867  1.0000
  H   H1001     1.0  0.49001  0.75877  0.92349  1.0000
  H   H1002     1.0  0.49368  0.78574  0.65025  1.0000
  H   H1003     1.0  0.52353  0.71856  0.64376  1.0000
  C   C592      1.0  0.52592  0.76571  0.58847  1.0000
  H   H1004     1.0  0.34448  0.91476  0.91472  1.0000
  H   H1005     1.0  0.37702  0.66970  0.65661  1.0000
  H   H1006     1.0  0.51726  0.75357  0.70134  1.0000
  C   C593      1.0  0.50059  0.72310  0.95281  1.0000
  H   H1007     1.0  0.37330  0.65069  0.56508  1.0000
  C   C594      1.0  0.45564  0.54897  0.56254  1.0000
  H   H1008     1.0  0.49626  0.95660  0.78950  1.0000
  H   H1009     1.0  0.34110  0.65480  0.65244  1.0000
  C   C595      1.0  0.53181  0.93440  0.90012  1.0000
  C   C596      1.0  0.52664  0.94488  0.85989  1.0000
  H   H1010     1.0  0.54395  0.73900  0.56009  1.0000
  S   S167      1.0  0.33311  0.61102  0.59144  1.0000
  N   N41       1.0  0.36592  0.68411  0.60348  1.0000
  Fe  Fe80      1.0  0.53418  0.82296  0.50786  1.0000
  C   C597      1.0  0.50076  0.94913  0.49504  1.0000
  H   H1011     1.0  0.53539  0.75565  0.67468  1.0000
  C   C598      1.0  0.36127  0.85131  0.92543  1.0000
  C   C599      1.0  0.37536  0.62020  0.48917  1.0000
  C   C600      1.0  0.54287  0.75257  0.58603  1.0000
  H   H1012     1.0  0.50330  0.80460  0.61070  1.0000
  H   H1013     1.0  0.51739  0.98260  0.91897  1.0000
  S   S168      1.0  0.35619  0.63582  0.49891  1.0000
  H   H1014     1.0  0.33913  0.91816  0.86606  1.0000
  C   C601      1.0  0.52210  0.75808  0.67214  1.0000
  H   H1015     1.0  0.40105  0.68910  0.59247  1.0000
  H   H1016     1.0  0.51967  0.95388  0.53705  1.0000
  H   H1017     1.0  0.64879  0.83059  0.57218  1.0000
  C   C602      1.0  0.63995  0.89566  0.56622  1.0000
  C   C603      1.0  0.49824  0.95636  0.86910  1.0000
  H   H1018     1.0  0.51016  0.97469  0.75921  1.0000
  H   H1019     1.0  0.59237  0.83480  0.48757  1.0000
  H   H1020     1.0  0.33964  0.98212  0.61693  1.0000
  H   H1021     1.0  0.37449  0.72555  0.58729  1.0000
  C   C604      1.0  0.50025  0.51788  0.50628  1.0000
  C   C605      1.0  0.36047  0.73099  0.63951  1.0000
  H   H1022     1.0  0.35457  0.69893  0.52593  1.0000
  C   C606      1.0  0.49723  0.75195  0.94767  1.0000
  H   H1023     1.0  0.33417  0.81544  0.93555  1.0000
  H   H1024     1.0  0.50112  0.68110  0.56349  1.0000
  H   H1025     1.0  0.53782  0.95048  0.84387  1.0000
  H   H1026     1.0  0.65161  0.87096  0.61004  1.0000
  C   C607      1.0  0.50799  0.99352  0.52526  1.0000
  C   C608      1.0  0.37162  0.71320  0.61365  1.0000
  H   H1027     1.0  0.44341  0.55621  0.57072  1.0000
  C   C609      1.0  0.37744  0.67191  0.57418  1.0000
  H   H1028     1.0  0.42654  0.51753  0.56318  1.0000
  H   H1029     1.0  0.33707  0.85301  0.97779  1.0000
  H   H1030     1.0  0.38349  0.86881  0.94846  1.0000
  H   H1031     1.0  0.36797  0.84830  0.89791  1.0000
  C   C610      1.0  0.65441  0.84027  0.54619  1.0000
  H   H1032     1.0  0.64417  0.84748  0.52802  1.0000
  H   H1033     1.0  0.46928  0.51285  0.54745  1.0000
  S   S169      1.0  0.33254  0.87261  0.71623  1.0000
  H   H1034     1.0  0.52889  0.51989  0.91912  1.0000
  H   H1035     1.0  0.34774  0.86583  0.85768  1.0000
  H   H1036     1.0  0.49965  0.78542  0.49456  1.0000
  N   N42       1.0  0.34353  0.85603  0.91759  1.0000
  H   H1037     1.0  0.48233  0.98611  0.83814  1.0000
  S   S170      1.0  0.46410  0.61297  0.49670  1.0000
  N   N43       1.0  0.44548  0.50664  0.52232  1.0000
  H   H1038     1.0  0.44958  0.54238  0.48534  1.0000
  C   C611      1.0  0.48382  0.97668  0.86706  1.0000
  H   H1039     1.0  0.48758  0.50747  0.85783  1.0000
  C   C612      1.0  0.42841  0.51587  0.53142  1.0000
  H   H1040     1.0  0.51550  0.51550  0.85715  1.0000
  H   H1041     1.0  0.47747  0.75024  0.49466  1.0000
  H   H1042     1.0  0.42610  0.53734  0.52003  1.0000
  C   C613      1.0  0.51939  0.50358  0.91583  1.0000
  H   H1043     1.0  0.61251  0.91760  0.49200  1.0000
  H   H1044     1.0  0.40284  0.50812  0.52165  1.0000
  C   C614      1.0  0.50208  0.76389  0.48667  1.0000
  C   C615      1.0  0.61356  0.89574  0.48412  1.0000
  S   S171      1.0  0.50364  0.91270  0.48701  1.0000
  H   H1045     1.0  0.50780  0.50856  0.79591  1.0000
  C   C616      1.0  0.41444  0.49689  0.51746  1.0000
  H   H1046     1.0  0.66244  0.90066  0.59592  1.0000
  C   C617      1.0  0.54883  0.50051  0.49829  1.0000
  C   C618      1.0  0.35127  0.99376  0.61826  1.0000
  C   C619      1.0  0.60215  0.84920  0.48159  1.0000
  Fe  Fe81      1.0  0.98467  0.09798  0.01303  1.0000
  S   S172      1.0  0.96191  0.08450  0.04271  1.0000
  C   C620      1.0  0.96491  0.38667  0.02753  1.0000
  Fe  Fe82      1.0  0.97953  0.15984  0.03609  1.0000
  S   S173      1.0  0.95600  0.15046  0.06627  1.0000
  H   H1047     1.0  0.71198  0.22491  0.45175  1.0000
  Fe  Fe83      1.0  0.96955  0.11364  0.09089  1.0000
  S   S174      1.0  0.96742  0.10059  0.15393  1.0000
  Fe  Fe84      1.0  0.95021  0.12223  0.01555  1.0000
  H   H1048     1.0  0.99364  0.20817  0.44046  1.0000
  Fe  Fe85      1.0  0.70810  0.12026  0.15855  1.0000
  S   S175      1.0  0.70829  0.12757  0.22361  1.0000
  S   S176      1.0  0.73272  0.12002  0.12622  1.0000
  H   H1049     1.0  0.77925  0.01822  0.99425  1.0000
  H   H1050     1.0  0.90870  0.14677  0.03038  1.0000
  Fe  Fe86      1.0  0.68704  0.15635  0.21406  1.0000
  H   H1051     1.0  0.75170  0.36952  0.48132  1.0000
  Fe  Fe87      1.0  0.69032  0.09171  0.22709  1.0000
  S   S177      1.0  0.68784  0.05935  0.27658  1.0000
  S   S178      1.0  0.68772  0.15085  0.14914  1.0000
  S   S179      1.0  0.69130  0.08290  0.16327  1.0000
  H   H1052     1.0  0.71189  0.39618  0.27114  1.0000
  S   S180      1.0  0.67571  0.36460  0.36262  1.0000
  Fe  Fe88      1.0  0.70284  0.37317  0.45472  1.0000
  S   S181      1.0  0.71260  0.37012  0.39426  1.0000
  N   N44       1.0  0.98100  0.34151  0.01162  1.0000
  Fe  Fe89      1.0  0.69279  0.40015  0.37639  1.0000
  S   S182      1.0  0.69894  0.43229  0.32845  1.0000
  Fe  Fe90      1.0  0.69466  0.33503  0.38435  1.0000
  S   S183      1.0  0.70443  0.29395  0.35754  1.0000
  S   S184      1.0  0.68379  0.40537  0.43758  1.0000
  S   S185      1.0  0.68562  0.33659  0.44568  1.0000
  C   C621      1.0  0.69116  0.02295  0.28674  1.0000
  H   H1053     1.0  0.69956  0.37340  0.29914  1.0000
  H   H1054     1.0  0.73547  0.12445  0.98261  1.0000
  C   C622      1.0  0.69338  0.46695  0.31319  1.0000
  H   H1055     1.0  0.96925  0.20303  0.23395  1.0000
  H   H1056     1.0  0.97724  0.16867  0.24478  1.0000
  H   H1057     1.0  0.99553  0.30904  0.98463  1.0000
  C   C623      1.0  0.73732  0.37379  0.30419  1.0000
  C   C624      1.0  0.70036  0.47807  0.27938  1.0000
  C   C625      1.0  0.97308  0.17168  0.36692  1.0000
  C   C626      1.0  0.68637  0.22503  0.27259  1.0000
  C   C627      1.0  0.70122  0.22266  0.29162  1.0000
  C   C628      1.0  0.70634  0.24364  0.31789  1.0000
  C   C629      1.0  0.69672  0.26730  0.32584  1.0000
  C   C630      1.0  0.68182  0.26958  0.30706  1.0000
  Fe  Fe91      1.0  0.67090  0.11412  0.15810  1.0000
  H   H1058     1.0  0.70883  0.20474  0.28585  1.0000
  H   H1059     1.0  0.71793  0.24157  0.33193  1.0000
  H   H1060     1.0  0.97482  0.40070  0.03738  1.0000
  H   H1061     1.0  0.72333  0.30054  0.22384  1.0000
  C   C631      1.0  0.75932  0.12276  0.00739  1.0000
  C   C632      1.0  0.76785  0.12127  0.04223  1.0000
  C   C633      1.0  0.75951  0.12044  0.07793  1.0000
  C   C634      1.0  0.74250  0.12108  0.07975  1.0000
  C   C635      1.0  0.73397  0.12253  0.04485  1.0000
  C   C636      1.0  0.74231  0.12335  0.00912  1.0000
  H   H1062     1.0  0.78090  0.12080  0.04180  1.0000
  H   H1063     1.0  0.76634  0.11933  0.10450  1.0000
  H   H1064     1.0  0.72093  0.12299  0.04540  1.0000
  H   H1065     1.0  0.96914  0.27795  0.01924  1.0000
  C   C637      1.0  0.96066  0.99710  0.03298  1.0000
  H   H1066     1.0  0.74691  0.02210  0.39484  1.0000
  H   H1067     1.0  0.70890  0.46554  0.26335  1.0000
  C   C638      1.0  0.98037  0.19095  0.23976  1.0000
  C   C639      1.0  0.96060  0.01810  0.99911  1.0000
  H   H1068     1.0  0.87939  0.15796  0.03075  1.0000
  C   C640      1.0  0.70477  0.37643  0.26982  1.0000
  H   H1069     1.0  0.68068  0.02610  0.34347  1.0000
  H   H1070     1.0  0.97765  0.45823  0.99057  1.0000
  H   H1071     1.0  0.72797  0.00475  0.38985  1.0000
  C   C641      1.0  0.98172  0.11070  0.18958  1.0000
  C   C642      1.0  0.98009  0.10068  0.22756  1.0000
  H   H1072     1.0  0.98876  0.28788  0.03730  1.0000
  H   H1073     1.0  0.97022  0.08671  0.23445  1.0000
  H   H1074     1.0  0.98978  0.10066  0.28565  1.0000
  C   C643      1.0  0.69806  0.00444  0.26010  1.0000
  H   H1075     1.0  0.72138  0.33358  0.17035  1.0000
  C   C644      1.0  0.96634  0.21884  0.30973  1.0000
  H   H1076     1.0  0.99590  0.13673  0.15204  1.0000
  Fe  Fe92      1.0  0.66741  0.36834  0.42474  1.0000
  H   H1077     1.0  0.72180  0.29171  0.27448  1.0000
  H   H1078     1.0  0.95383  0.25636  0.29092  1.0000
  H   H1079     1.0  0.74068  0.22837  0.46298  1.0000
  C   C645      1.0  0.67675  0.24869  0.28060  1.0000
  H   H1080     1.0  0.96130  0.00908  0.06047  1.0000
  H   H1081     1.0  0.70327  0.35136  0.18524  1.0000
  H   H1082     1.0  0.73143  0.31255  0.41047  1.0000
  C   C646      1.0  0.90094  0.13881  0.00774  1.0000
  H   H1083     1.0  0.96885  0.33146  0.06517  1.0000
  C   C647      1.0  0.99118  0.10850  0.25662  1.0000
  C   C648      1.0  0.88429  0.14513  0.00785  1.0000
  H   H1084     1.0  0.99132  0.16269  0.32432  1.0000
  H   H1085     1.0  0.95744  0.20574  0.29370  1.0000
  H   H1086     1.0  0.97140  0.16341  0.30645  1.0000
  C   C649      1.0  0.99462  0.35354  0.03543  1.0000
  H   H1087     1.0  0.73422  0.33807  0.44871  1.0000
  H   H1088     1.0  0.98681  0.22490  0.36720  1.0000
  H   H1089     1.0  0.97515  0.24704  0.45880  1.0000
  H   H1090     1.0  0.99472  0.22459  0.26402  1.0000
  C   C650      1.0  0.71499  0.29853  0.24860  1.0000
  C   C651      1.0  0.69062  0.38299  0.24259  1.0000
  S   S186      1.0  0.67935  0.19974  0.23798  1.0000
  S   S187      1.0  0.66907  0.12118  0.22175  1.0000
  H   H1091     1.0  0.75062  0.28052  0.44576  1.0000
  H   H1092     1.0  0.67639  0.02078  0.13208  1.0000
  C   C652      1.0  0.97036  0.32263  0.03564  1.0000
  H   H1093     1.0  0.95927  0.37610  0.05255  1.0000
  H   H1094     1.0  0.96111  0.22157  0.33903  1.0000
  C   C653      1.0  0.74105  0.00245  0.38475  1.0000
  H   H1095     1.0  0.95801  0.32168  0.02297  1.0000
  H   H1096     1.0  0.98765  0.19144  0.21286  1.0000
  S   S188      1.0  0.97285  0.13465  0.98372  1.0000
  C   C654      1.0  0.72710  0.34800  0.29262  1.0000
  C   C655      1.0  0.99313  0.22068  0.33945  1.0000
  H   H1097     1.0  0.82173  0.39809  0.47045  1.0000
  H   H1098     1.0  0.95054  0.03289  0.00510  1.0000
  H   H1099     1.0  0.72577  0.26170  0.42593  1.0000
  C   C656      1.0  0.68238  0.48366  0.33346  1.0000
  C   C657      1.0  0.68613  0.01213  0.32263  1.0000
  H   H1100     1.0  0.97189  0.03068  0.00171  1.0000
  C   C658      1.0  0.70699  0.24523  0.46175  1.0000
  C   C659      1.0  0.74340  0.29580  0.46270  1.0000
  C   C660      1.0  0.97098  0.36568  0.99693  1.0000
  H   H1101     1.0  0.74642  0.36732  0.32596  1.0000
  S   S189      1.0  0.99321  0.12417  0.06310  1.0000
  N   N45       1.0  0.98248  0.20444  0.31199  1.0000
  C   C661      1.0  0.97990  0.17482  0.32574  1.0000
  H   H1102     1.0  0.70637  0.28134  0.24173  1.0000
  H   H1103     1.0  0.97217  0.28402  0.06895  1.0000
  H   H1104     1.0  0.72934  0.38024  0.22354  1.0000
  C   C662      1.0  0.73949  0.31959  0.43412  1.0000
  N   N46       1.0  0.71547  0.35204  0.25948  1.0000
  C   C663      1.0  0.98897  0.46951  0.98908  1.0000
  C   C664      1.0  0.71833  0.26966  0.45038  1.0000
  H   H1105     1.0  0.72989  0.39024  0.31821  1.0000
  H   H1106     1.0  0.98137  0.18030  0.38904  1.0000
  H   H1107     1.0  0.71948  0.37026  0.16429  1.0000
  H   H1108     1.0  0.72054  0.34108  0.31900  1.0000
  H   H1109     1.0  0.97352  0.26347  0.30911  1.0000
  H   H1110     1.0  0.69491  0.39068  0.21428  1.0000
  H   H1111     1.0  0.68207  0.36529  0.23936  1.0000
  H   H1112     1.0  0.79440  0.04474  0.99936  1.0000
  C   C665      1.0  0.98777  0.24821  0.46656  1.0000
  C   C666      1.0  0.71654  0.35280  0.18426  1.0000
  H   H1113     1.0  0.98994  0.36549  0.06057  1.0000
  H   H1114     1.0  0.67423  0.28754  0.31267  1.0000
  H   H1115     1.0  0.67423  0.02413  0.20108  1.0000
  H   H1116     1.0  0.67690  0.47567  0.35952  1.0000
  C   C667      1.0  0.97570  0.29168  0.03991  1.0000
  H   H1117     1.0  0.69847  0.32251  0.28365  1.0000
  H   H1118     1.0  0.73588  0.33104  0.28616  1.0000
  H   H1119     1.0  0.73621  0.34512  0.22298  1.0000
  H   H1120     1.0  0.69610  0.32695  0.23393  1.0000
  C   C668      1.0  0.72505  0.35810  0.22342  1.0000
  C   C669      1.0  0.70546  0.32568  0.25654  1.0000
  H   H1121     1.0  0.74397  0.38281  0.27943  1.0000
  H   H1122     1.0  0.95568  0.40048  0.01429  1.0000
  C   C670      1.0  0.99055  0.20342  0.27303  1.0000
  H   H1123     1.0  0.68359  0.40050  0.25546  1.0000
  H   H1124     1.0  0.96105  0.18141  0.37014  1.0000
  H   H1125     1.0  0.97160  0.14902  0.37334  1.0000
  H   H1126     1.0  0.69540  0.24766  0.44592  1.0000
  H   H1127     1.0  0.70207  0.01223  0.23245  1.0000
  H   H1128     1.0  0.66523  0.25085  0.26626  1.0000
  C   C671      1.0  0.99453  0.12875  0.18101  1.0000
  H   H1129     1.0  0.97993  0.48691  0.29390  1.0000
  H   H1130     1.0  0.75088  0.32692  0.42057  1.0000
  S   S190      1.0  0.99180  0.20249  0.04242  1.0000
  H   H1131     1.0  0.71065  0.28648  0.43790  1.0000
  C   C672      1.0  0.66429  0.02621  0.14364  1.0000
  H   H1132     1.0  0.74313  0.00125  0.35320  1.0000
  C   C673      1.0  0.96641  0.24837  0.29164  1.0000
  H   H1133     1.0  0.97082  0.24839  0.26149  1.0000
  N   N47       1.0  0.72910  0.28165  0.48151  1.0000
  H   H1134     1.0  0.96004  0.35794  0.98159  1.0000
  H   H1135     1.0  0.99602  0.24170  0.32754  1.0000
  H   H1136     1.0  0.75162  0.03165  0.98547  1.0000
  H   H1137     1.0  0.78904  0.19706  0.87581  1.0000
  H   H1138     1.0  0.82315  0.32693  0.52494  1.0000
  Fe  Fe93      1.0  0.81332  0.34410  0.73151  1.0000
  S   S191      1.0  0.81923  0.33298  0.66993  1.0000
  S   S192      1.0  0.80843  0.31377  0.78250  1.0000
  Fe  Fe94      1.0  0.81751  0.40769  0.71652  1.0000
  S   S193      1.0  0.82386  0.39969  0.65387  1.0000
  S   S194      1.0  0.81888  0.45474  0.73340  1.0000
  Fe  Fe95      1.0  0.80298  0.36897  0.65206  1.0000
  S   S195      1.0  0.78845  0.36593  0.59407  1.0000
  Fe  Fe96      1.0  0.83956  0.36460  0.67507  1.0000
  S   S196      1.0  0.86464  0.35008  0.65375  1.0000
  S   S197      1.0  0.79581  0.37864  0.71384  1.0000
  S   S198      1.0  0.83444  0.37398  0.73758  1.0000
  Fe  Fe97      1.0  0.83251  0.13037  0.94028  1.0000
  S   S199      1.0  0.83553  0.12148  0.87719  1.0000
  H   H1139     1.0  0.85140  0.22545  0.85775  1.0000
  Fe  Fe98      1.0  0.79525  0.12374  0.93705  1.0000
  S   S200      1.0  0.79632  0.11503  0.87276  1.0000
  H   H1140     1.0  0.89796  0.16632  0.90801  1.0000
  Fe  Fe99      1.0  0.81732  0.08677  0.88560  1.0000
  S   S201      1.0  0.82158  0.04094  0.86654  1.0000
  Fe  Fe100     1.0  0.81435  0.15066  0.86924  1.0000
  S   S202      1.0  0.81519  0.18195  0.81862  1.0000
  S   S203      1.0  0.81561  0.09396  0.95016  1.0000
  S   S204      1.0  0.81198  0.16102  0.93220  1.0000
  C   C674      1.0  0.77370  0.03760  0.87567  1.0000
  S   S205      1.0  0.96830  0.37924  0.51182  1.0000
  H   H1141     1.0  0.78570  0.04307  0.86326  1.0000
  Fe  Fe101     1.0  0.98691  0.36953  0.61383  1.0000
  S   S206      1.0  0.96621  0.34333  0.59113  1.0000
  H   H1142     1.0  0.82170  0.37086  0.57110  1.0000
  Fe  Fe102     1.0  0.98023  0.34017  0.53549  1.0000
  C   C675      1.0  0.75222  0.36979  0.51242  1.0000
  Fe  Fe103     1.0  0.95585  0.38366  0.56960  1.0000
  S   S207      1.0  0.92993  0.39982  0.58030  1.0000
  S   S208      1.0  0.97598  0.41032  0.59432  1.0000
  H   H1143     1.0  0.92823  0.32748  0.72644  1.0000
  H   H1144     1.0  0.80743  0.48323  0.86878  1.0000
  C   C676      1.0  0.81244  0.47030  0.81024  1.0000
  H   H1145     1.0  0.74765  0.18267  0.83529  1.0000
  C   C677      1.0  0.81618  0.01738  0.82835  1.0000
  H   H1146     1.0  0.86972  0.17680  0.79895  1.0000
  C   C678      1.0  0.80275  0.00593  0.76763  1.0000
  H   H1147     1.0  0.81039  0.44830  0.81587  1.0000
  C   C679      1.0  0.75982  0.18096  0.84867  1.0000
  H   H1148     1.0  0.80284  0.04704  0.79444  1.0000
  H   H1149     1.0  0.75706  0.18448  0.95275  1.0000
  C   C680      1.0  0.81134  0.27718  0.79196  1.0000
  C   C681      1.0  0.81431  0.25756  0.76274  1.0000
  C   C682      1.0  0.81560  0.22870  0.77159  1.0000
  C   C683      1.0  0.81416  0.21891  0.80975  1.0000
  C   C684      1.0  0.81163  0.23860  0.83913  1.0000
  C   C685      1.0  0.81004  0.26739  0.83021  1.0000
  H   H1150     1.0  0.81531  0.26458  0.73319  1.0000
  H   H1151     1.0  0.81761  0.21383  0.74850  1.0000
  H   H1152     1.0  0.81072  0.23170  0.86865  1.0000
  H   H1153     1.0  0.80781  0.28229  0.85314  1.0000
  C   C686      1.0  0.88284  0.36469  0.63444  1.0000
  C   C687      1.0  0.89554  0.34651  0.62433  1.0000
  C   C688      1.0  0.91005  0.35678  0.60811  1.0000
  C   C689      1.0  0.91201  0.38547  0.60127  1.0000
  C   C690      1.0  0.89929  0.40364  0.61126  1.0000
  C   C691      1.0  0.88490  0.39343  0.62810  1.0000
  H   H1154     1.0  0.89413  0.32423  0.62893  1.0000
  H   H1155     1.0  0.91962  0.34245  0.60037  1.0000
  H   H1156     1.0  0.90066  0.42589  0.60628  1.0000
  H   H1157     1.0  0.87543  0.40784  0.63614  1.0000
  C   C692      1.0  0.76872  0.36892  0.57197  1.0000
  C   C693      1.0  0.75445  0.37229  0.59320  1.0000
  C   C694      1.0  0.73928  0.37424  0.57425  1.0000
  C   C695      1.0  0.73793  0.37309  0.53366  1.0000
  H   H1158     1.0  0.77766  0.23316  0.83783  1.0000
  C   C696      1.0  0.76737  0.36757  0.53137  1.0000
  H   H1159     1.0  0.75509  0.37343  0.62433  1.0000
  C   C697      1.0  0.74947  0.20944  0.90199  1.0000
  H   H1160     1.0  0.95619  0.40036  0.77411  1.0000
  H   H1161     1.0  0.83600  0.42921  0.53034  1.0000
  C   C698      1.0  0.73568  0.25981  0.50863  1.0000
  C   C699      1.0  0.81075  0.49027  0.84026  1.0000
  H   H1162     1.0  0.81527  0.32289  0.57263  1.0000
  C   C700      1.0  0.87024  0.17557  0.86236  1.0000
  H   H1163     1.0  0.69557  0.28748  0.50889  1.0000
  H   H1164     1.0  0.75846  0.24473  0.48351  1.0000
  H   H1165     1.0  0.75909  0.16128  0.86573  1.0000
  H   H1166     1.0  0.88149  0.37646  0.54176  1.0000
  N   N48       1.0  0.77581  0.02263  0.91363  1.0000
  C   C701      1.0  0.80685  0.02556  0.79669  1.0000
  H   H1167     1.0  0.77821  0.36522  0.51434  1.0000
  H   H1168     1.0  0.99192  0.44320  0.88717  1.0000
  H   H1169     1.0  0.85129  0.18939  0.82088  1.0000
  H   H1170     1.0  0.75162  0.00621  0.90670  1.0000
  H   H1171     1.0  0.87280  0.02184  0.73962  1.0000
  C   C702      1.0  0.99330  0.22376  0.96811  1.0000
  H   H1172     1.0  0.97317  0.37818  0.78035  1.0000
  H   H1173     1.0  0.99420  0.24219  0.91134  1.0000
  H   H1174     1.0  0.73795  0.21122  0.88570  1.0000
  H   H1175     1.0  0.86417  0.16112  0.88300  1.0000
  H   H1176     1.0  0.73601  0.19100  0.94955  1.0000
  H   H1177     1.0  0.90696  0.36992  0.69974  1.0000
  C   C703      1.0  0.95540  0.35996  0.74190  1.0000
  H   H1178     1.0  0.98657  0.40927  0.83750  1.0000
  H   H1179     1.0  0.91741  0.40097  0.68290  1.0000
  N   N49       1.0  0.94183  0.36546  0.71391  1.0000
  C   C704      1.0  0.93482  0.33743  0.70201  1.0000
  C   C705      1.0  0.92851  0.38126  0.73406  1.0000
  H   H1180     1.0  0.94423  0.42314  0.65827  1.0000
  C   C706      1.0  0.94787  0.38008  0.67817  1.0000
  C   C707      1.0  0.94688  0.31536  0.68694  1.0000
  C   C708      1.0  0.91386  0.38877  0.70869  1.0000
  H   H1181     1.0  0.94843  0.42192  0.70875  1.0000
  C   C709      1.0  0.95121  0.41197  0.68088  1.0000
  H   H1182     1.0  0.96417  0.41614  0.67495  1.0000
  H   H1183     1.0  0.92570  0.34007  0.67873  1.0000
  H   H1184     1.0  0.93274  0.40104  0.74718  1.0000
  H   H1185     1.0  0.92391  0.36897  0.75905  1.0000
  H   H1186     1.0  0.75349  0.05796  0.94854  1.0000
  H   H1187     1.0  0.95915  0.37017  0.66783  1.0000
  H   H1188     1.0  0.93930  0.37697  0.65382  1.0000
  H   H1189     1.0  0.94013  0.29808  0.67263  1.0000
  H   H1190     1.0  0.90541  0.40203  0.72554  1.0000
  H   H1191     1.0  0.86978  0.22507  0.80195  1.0000
  H   H1192     1.0  0.88153  0.48666  0.89186  1.0000
  H   H1193     1.0  0.95384  0.30584  0.71091  1.0000
  H   H1194     1.0  0.72847  0.37686  0.59133  1.0000
  C   C710      1.0  0.83814  0.42155  0.56008  1.0000
  H   H1195     1.0  0.85423  0.39425  0.59107  1.0000
  N   N50       1.0  0.87286  0.20421  0.87975  1.0000
  C   C711      1.0  0.77230  0.17499  0.81656  1.0000
  C   C712      1.0  0.85050  0.39752  0.56053  1.0000
  N   N51       1.0  0.84521  0.37007  0.54286  1.0000
  C   C713      1.0  0.78539  0.04110  0.94062  1.0000
  C   C714      1.0  0.77879  0.19943  0.89626  1.0000
  H   H1196     1.0  0.75058  0.22953  0.91818  1.0000
  H   H1197     1.0  0.95536  0.32400  0.66542  1.0000
  H   H1198     1.0  0.76606  0.16646  0.79070  1.0000
  C   C715      1.0  0.83239  0.35726  0.56819  1.0000
  N   N52       1.0  0.76345  0.20553  0.87467  1.0000
  C   C716      1.0  0.96424  0.38564  0.75879  1.0000
  C   C717      1.0  0.86011  0.01836  0.73065  1.0000
  C   C718      1.0  0.81668  0.47883  0.77295  1.0000
  H   H1199     1.0  0.79695  0.04725  0.92668  1.0000
  Fe  Fe104     1.0  0.98915  0.40325  0.53807  1.0000
  H   H1200     1.0  0.90650  0.20128  0.90472  1.0000
  H   H1201     1.0  0.76561  0.25082  0.87154  1.0000
  H   H1202     1.0  0.95330  0.06654  0.96025  1.0000
  H   H1203     1.0  0.84313  0.43949  0.57677  1.0000
  C   C719      1.0  0.70559  0.29420  0.52800  1.0000
  C   C720      1.0  0.76563  0.23226  0.85202  1.0000
  H   H1204     1.0  0.77891  0.19373  0.80649  1.0000
  H   H1205     1.0  0.76803  0.08037  0.89682  1.0000
  H   H1206     1.0  0.87273  0.11040  0.92671  1.0000
  H   H1207     1.0  0.95095  0.34720  0.76659  1.0000
  C   C721      1.0  0.75975  0.01374  0.93014  1.0000
  H   H1208     1.0  0.75513  0.25900  0.80810  1.0000
  C   C722      1.0  0.85948  0.35037  0.54346  1.0000
  C   C723      1.0  0.75279  0.23803  0.82086  1.0000
  H   H1209     1.0  0.75347  0.22269  0.79685  1.0000
  H   H1210     1.0  0.86277  0.34476  0.57354  1.0000
  H   H1211     1.0  0.83694  0.35519  0.59829  1.0000
  H   H1212     1.0  0.77805  0.17884  0.91123  1.0000
  H   H1213     1.0  0.95507  0.06953  0.90947  1.0000
  H   H1214     1.0  0.77934  0.06125  0.94678  1.0000
  H   H1215     1.0  0.90207  0.09947  0.92613  1.0000
  H   H1216     1.0  0.70101  0.31259  0.54439  1.0000
  C   C724      1.0  0.82633  0.32801  0.55590  1.0000
  C   C725      1.0  0.76350  0.06449  0.87619  1.0000
  H   H1217     1.0  0.74043  0.23834  0.83293  1.0000
  C   C726      1.0  0.87728  0.23797  0.82149  1.0000
  C   C727      1.0  0.99419  0.45045  0.85704  1.0000
  S   S209      1.0  0.71816  0.37528  0.51147  1.0000
  H   H1218     1.0  0.81616  0.39361  0.51937  1.0000
  H   H1219     1.0  0.97139  0.39663  0.73642  1.0000
  H   H1220     1.0  0.96508  0.34741  0.72802  1.0000
  H   H1221     1.0  0.88199  0.16507  0.85707  1.0000
  S   S210      1.0  0.76911  0.12397  0.96099  1.0000
  S   S211      1.0  0.92847  0.11432  0.97563  1.0000
  H   H1222     1.0  0.78637  0.24234  0.91244  1.0000
  C   C728      1.0  0.86125  0.17419  0.82346  1.0000
  C   C729      1.0  0.72036  0.30369  0.50456  1.0000
  C   C730      1.0  0.75037  0.03584  0.95410  1.0000
  H   H1223     1.0  0.81457  0.36498  0.48565  1.0000
  H   H1224     1.0  0.85528  0.15344  0.82055  1.0000
  C   C731      1.0  0.74688  0.18605  0.93211  1.0000
  H   H1225     1.0  0.75062  0.05978  0.88191  1.0000
  C   C732      1.0  0.83983  0.37388  0.50158  1.0000
  H   H1226     1.0  0.71567  0.32026  0.48529  1.0000
  H   H1227     1.0  0.98867  0.48381  0.53593  1.0000
  H   H1228     1.0  0.78135  0.15950  0.82643  1.0000
  H   H1229     1.0  0.85294  0.03575  0.74331  1.0000
  H   H1230     1.0  0.86484  0.47964  0.85961  1.0000
  C   C733      1.0  0.98790  0.32698  0.97670  1.0000
  H   H1231     1.0  0.84795  0.20113  0.93943  1.0000
  H   H1232     1.0  0.88730  0.24671  0.80394  1.0000
  H   H1233     1.0  0.79559  0.01261  0.74323  1.0000
  C   C734      1.0  0.87506  0.36077  0.52368  1.0000
  C   C735      1.0  0.89715  0.11222  0.94908  1.0000
  C   C736      1.0  0.88037  0.20030  0.91913  1.0000
  H   H1234     1.0  0.87009  0.25611  0.83186  1.0000
  C   C737      1.0  0.88443  0.22130  0.85557  1.0000
  H   H1235     1.0  0.89070  0.23729  0.87374  1.0000
  C   C738      1.0  0.97543  0.31606  0.94718  1.0000
  C   C739      1.0  0.85727  0.21997  0.88547  1.0000
  H   H1236     1.0  0.77485  0.22436  0.94939  1.0000
  H   H1237     1.0  0.85966  0.24049  0.89979  1.0000
  H   H1238     1.0  0.99625  0.42911  0.80081  1.0000
  S   S212      1.0  0.85318  0.14453  0.97962  1.0000
  H   H1239     1.0  0.97025  0.33350  0.93011  1.0000
  H   H1240     1.0  0.83534  0.31163  0.56288  1.0000
  H   H1241     1.0  0.97541  0.03644  0.93511  1.0000
  H   H1242     1.0  0.72881  0.31432  0.52499  1.0000
  H   H1243     1.0  0.70389  0.24392  0.49263  1.0000
  C   C740      1.0  0.78389  0.22181  0.92613  1.0000
  H   H1244     1.0  0.70849  0.27794  0.54960  1.0000
  H   H1245     1.0  0.89415  0.20774  0.84360  1.0000
  H   H1246     1.0  0.86121  0.40623  0.54553  1.0000
  H   H1247     1.0  0.82655  0.41596  0.57388  1.0000
  C   C741      1.0  0.84425  0.20469  0.90911  1.0000
  H   H1248     1.0  0.99408  0.16374  0.92976  1.0000
  H   H1249     1.0  0.79846  0.00259  0.89825  1.0000
  C   C742      1.0  0.95172  0.05479  0.93288  1.0000
  H   H1250     1.0  0.98421  0.20843  0.96045  1.0000
  H   H1251     1.0  0.74469  0.16529  0.91869  1.0000
  H   H1252     1.0  0.85906  0.02014  0.69891  1.0000
  S   S213      1.0  0.97943  0.29894  0.49999  1.0000
  H   H1253     1.0  0.85639  0.33013  0.52924  1.0000
  C   C743      1.0  0.89759  0.18789  0.91982  1.0000
  H   H1254     1.0  0.79528  0.21517  0.94021  1.0000
  H   H1255     1.0  0.96563  0.30386  0.96090  1.0000
  H   H1256     1.0  0.84078  0.18461  0.89536  1.0000
  C   C744      1.0  0.82211  0.38307  0.49486  1.0000
  H   H1257     1.0  0.76404  0.07428  0.84717  1.0000
  H   H1258     1.0  0.72601  0.24892  0.52468  1.0000
  H   H1259     1.0  0.88352  0.34288  0.52046  1.0000
  H   H1260     1.0  0.87281  0.36938  0.49453  1.0000
  H   H1261     1.0  0.73727  0.03371  0.94787  1.0000
  H   H1262     1.0  0.76769  0.02389  0.85405  1.0000
  H   H1263     1.0  0.98268  0.45964  0.84672  1.0000
  C   C745      1.0  0.88049  0.11840  0.94931  1.0000
  C   C746      1.0  0.78588  0.99677  0.90626  1.0000
  H   H1264     1.0  0.74315  0.26998  0.53153  1.0000
  H   H1265     1.0  0.83325  0.21785  0.91019  1.0000
  C   C747      1.0  0.99645  0.49082  0.51282  1.0000
  H   H1266     1.0  0.99234  0.14238  0.88759  1.0000
  H   H1267     1.0  0.84125  0.35386  0.48536  1.0000
  H   H1268     1.0  0.90165  0.18635  0.95030  1.0000
  C   C748      1.0  0.99665  0.42411  0.83202  1.0000
  H   H1269     1.0  0.87294  0.18610  0.93724  1.0000
  H   H1270     1.0  0.98157  0.30199  0.92629  1.0000
  S   S214      1.0  0.99187  0.35845  0.67723  1.0000
  H   H1271     1.0  0.88089  0.22058  0.93509  1.0000
  H   H1272     1.0  0.84779  0.38929  0.48675  1.0000
  C   C749      1.0  0.96280  0.02890  0.93085  1.0000
  H   H1273     1.0  0.93298  0.01050  0.96367  1.0000
  H   H1274     1.0  0.99625  0.34127  0.96095  1.0000
  C   C750      1.0  0.99338  0.27168  0.48754  1.0000
  H   H1275     1.0  0.99316  0.03355  0.52787  1.0000
  H   H1276     1.0  0.74755  0.21915  0.51027  1.0000
  C   C751      1.0  0.90749  0.12233  0.97828  1.0000
  H   H1277     1.0  0.99616  0.34058  0.75505  1.0000
  C   C752      1.0  0.74613  0.23684  0.48978  1.0000
  H   H1278     1.0  0.75172  0.30465  0.48499  1.0000
  H   H1279     1.0  0.93883  0.04936  0.92875  1.0000
  H   H1280     1.0  0.79959  0.01241  0.97681  1.0000
  H   H1281     1.0  0.97780  0.37797  0.97505  1.0000
  C   C753      1.0  0.87395  0.13489  0.97878  1.0000
  H   H1282     1.0  0.96250  0.02155  0.90057  1.0000
  C   C754      1.0  0.99617  0.01806  0.50624  1.0000
  N   N53       1.0  0.95909  0.00576  0.95908  1.0000
  C   C755      1.0  0.78976  0.02801  0.97989  1.0000
  Fe  Fe105     1.0  0.98640  0.58439  0.01465  1.0000
  S   S215      1.0  0.96302  0.58368  0.04826  1.0000
  H   H1283     1.0  0.74979  0.73428  0.15816  1.0000
  Fe  Fe106     1.0  0.98567  0.64890  0.00515  1.0000
  S   S216      1.0  0.96245  0.65281  0.03802  1.0000
  H   H1284     1.0  0.76335  0.92919  0.38487  1.0000
  Fe  Fe107     1.0  0.97345  0.62151  0.07941  1.0000
  S   S217      1.0  0.97123  0.63181  0.14370  1.0000
  Fe  Fe108     1.0  0.95363  0.61514  0.00469  1.0000
  H   H1285     1.0  0.74273  0.65055  0.25313  1.0000
  Fe  Fe109     1.0  0.70617  0.61404  0.15544  1.0000
  S   S218      1.0  0.70629  0.62231  0.22014  1.0000
  S   S219      1.0  0.73118  0.60873  0.12594  1.0000
  H   H1286     1.0  0.99027  0.58869  0.32493  1.0000
  H   H1287     1.0  0.93946  0.73958  0.01914  1.0000
  Fe  Fe110     1.0  0.68672  0.65387  0.20788  1.0000
  H   H1288     1.0  0.67764  0.75843  0.23853  1.0000
  Fe  Fe111     1.0  0.68648  0.58946  0.22421  1.0000
  S   S220      1.0  0.68054  0.55718  0.27214  1.0000
  S   S221      1.0  0.68731  0.64683  0.14321  1.0000
  S   S222      1.0  0.68758  0.57940  0.16085  1.0000
  H   H1289     1.0  0.71080  0.71033  0.12024  1.0000
  C   C756      1.0  0.75894  0.67889  0.12089  1.0000
  Fe  Fe112     1.0  0.70711  0.87381  0.44179  1.0000
  S   S223      1.0  0.71634  0.86979  0.38080  1.0000
  H   H1290     1.0  0.93848  0.87875  0.47842  1.0000
  Fe  Fe113     1.0  0.69445  0.89528  0.36318  1.0000
  S   S224      1.0  0.69754  0.92830  0.31486  1.0000
  Fe  Fe114     1.0  0.70016  0.83170  0.37475  1.0000
  S   S225      1.0  0.70829  0.78790  0.35476  1.0000
  S   S226      1.0  0.68587  0.90116  0.42447  1.0000
  S   S227      1.0  0.69250  0.83429  0.43698  1.0000
  C   C757      1.0  0.68577  0.52225  0.28684  1.0000
  H   H1291     1.0  0.70531  0.96175  0.24841  1.0000
  H   H1292     1.0  0.98155  0.77373  0.01898  1.0000
  C   C758      1.0  0.69484  0.96491  0.30516  1.0000
  H   H1293     1.0  0.75491  0.96085  0.32983  1.0000
  H   H1294     1.0  0.74964  0.52874  0.00243  1.0000
  C   C759      1.0  0.74327  0.66963  0.19654  1.0000
  H   H1295     1.0  0.97691  0.50439  0.35453  1.0000
  H   H1296     1.0  0.77174  0.91008  0.44430  1.0000
  N   N54       1.0  0.94136  0.93686  0.45685  1.0000
  C   C760      1.0  0.69119  0.72403  0.26222  1.0000
  C   C761      1.0  0.70199  0.71622  0.29131  1.0000
  C   C762      1.0  0.70726  0.73613  0.31888  1.0000
  C   C763      1.0  0.70174  0.76404  0.31807  1.0000
  C   C764      1.0  0.74149  0.68743  0.13095  1.0000
  H   H1297     1.0  0.75102  0.92372  0.32479  1.0000
  H   H1298     1.0  0.70609  0.69477  0.29297  1.0000
  H   H1299     1.0  0.71550  0.72975  0.34140  1.0000
  C   C765      1.0  0.76129  0.92459  0.44584  1.0000
  C   C766      1.0  0.88583  0.62230  0.01105  1.0000
  C   C767      1.0  0.76031  0.63035  0.01473  1.0000
  C   C768      1.0  0.76739  0.61594  0.04555  1.0000
  C   C769      1.0  0.75823  0.60923  0.07880  1.0000
  C   C770      1.0  0.74187  0.61697  0.08222  1.0000
  C   C771      1.0  0.73480  0.63148  0.05147  1.0000
  C   C772      1.0  0.74394  0.63802  0.01811  1.0000
  H   H1300     1.0  0.77997  0.61013  0.04396  1.0000
  H   H1301     1.0  0.76395  0.59819  0.10232  1.0000
  H   H1302     1.0  0.72229  0.63771  0.05335  1.0000
  H   H1303     1.0  0.68376  0.97559  0.35927  1.0000
  H   H1304     1.0  0.97804  0.50988  0.00083  1.0000
  H   H1305     1.0  0.72632  0.92563  0.35987  1.0000
  S   S228      1.0  0.68348  0.69982  0.22735  1.0000
  H   H1306     1.0  0.72018  0.73933  0.14553  1.0000
  H   H1307     1.0  0.73866  0.94838  0.29994  1.0000
  H   H1308     1.0  0.92823  0.86841  0.43564  1.0000
  H   H1309     1.0  0.73291  0.94583  0.46048  1.0000
  H   H1310     1.0  0.66451  0.99321  0.18399  1.0000
  H   H1311     1.0  0.73188  0.54975  0.00220  1.0000
  H   H1312     1.0  0.96477  0.52321  0.40816  1.0000
  C   C773      1.0  0.75327  0.92638  0.40569  1.0000
  C   C774      1.0  0.74865  0.97734  0.40619  1.0000
  H   H1313     1.0  0.85952  0.55138  0.98756  1.0000
  H   H1314     1.0  0.96013  0.56119  0.28788  1.0000
  C   C775      1.0  0.71326  0.96387  0.43039  1.0000
  C   C776      1.0  0.74534  0.94470  0.32729  1.0000
  H   H1315     1.0  0.76588  0.94514  0.45602  1.0000
  C   C777      1.0  0.93090  0.91358  0.44100  1.0000
  H   H1316     1.0  0.73339  0.67011  0.12125  1.0000
  C   C778      1.0  0.99460  0.63101  0.24740  1.0000
  H   H1317     1.0  0.99094  0.75832  0.41840  1.0000
  C   C779      1.0  0.97123  0.56192  0.37617  1.0000
  C   C780      1.0  0.68591  0.75205  0.26100  1.0000
  H   H1318     1.0  0.90941  0.95800  0.44098  1.0000
  C   C781      1.0  0.73335  0.94546  0.36127  1.0000
  H   H1319     1.0  0.99311  0.64100  0.27521  1.0000
  C   C782      1.0  0.95884  0.93288  0.44647  1.0000
  C   C783      1.0  0.98384  0.63709  0.21698  1.0000
  H   H1320     1.0  0.94952  0.98430  0.03409  1.0000
  H   H1321     1.0  0.67031  0.52371  0.33678  1.0000
  H   H1322     1.0  0.99145  0.51712  0.28252  1.0000
  C   C784      1.0  0.71278  0.72015  0.14894  1.0000
  H   H1323     1.0  0.66492  0.97431  0.24239  1.0000
  C   C785      1.0  0.90276  0.61984  0.00770  1.0000
  C   C786      1.0  0.69660  0.50540  0.26627  1.0000
  H   H1324     1.0  0.91017  0.61833  0.03331  1.0000
  H   H1325     1.0  0.76022  0.67790  0.08898  1.0000
  H   H1326     1.0  0.71725  0.70603  0.20669  1.0000
  H   H1327     1.0  0.67330  0.77336  0.35884  1.0000
  C   C787      1.0  0.72042  0.69904  0.17717  1.0000
  H   H1328     1.0  0.77120  0.55820  0.01369  1.0000
  H   H1329     1.0  0.72753  0.67632  0.24755  1.0000
  C   C788      1.0  0.96840  0.57885  0.29421  1.0000
  C   C789      1.0  0.74810  0.72027  0.18352  1.0000
  H   H1330     1.0  0.76151  0.97684  0.39679  1.0000
  H   H1331     1.0  0.71387  0.67885  0.17346  1.0000
  H   H1332     1.0  0.98579  0.79405  0.46929  1.0000
  C   C790      1.0  0.98554  0.62434  0.18053  1.0000
  H   H1333     1.0  0.98187  0.72159  0.01881  1.0000
  S   S229      1.0  0.66693  0.62214  0.21685  1.0000
  C   C791      1.0  0.67865  0.51102  0.32041  1.0000
  H   H1334     1.0  0.67856  0.77701  0.42746  1.0000
  H   H1335     1.0  0.95899  0.56575  0.36412  1.0000
  C   C792      1.0  0.97451  0.52131  0.33319  1.0000
  H   H1336     1.0  0.96113  0.52351  0.33211  1.0000
  H   H1337     1.0  0.73825  0.64923  0.99468  1.0000
  H   H1338     1.0  0.73832  0.72785  0.24260  1.0000
  H   H1339     1.0  0.88038  0.62266  0.03940  1.0000
  H   H1340     1.0  0.94872  0.87965  0.43223  1.0000
  H   H1341     1.0  0.72310  0.92234  0.42830  1.0000
  H   H1342     1.0  0.93618  0.96338  0.40790  1.0000
  C   C793      1.0  0.96275  0.93112  0.40298  1.0000
  H   H1343     1.0  0.96525  0.95229  0.39109  1.0000
  C   C794      1.0  0.93868  0.71646  0.01585  1.0000
  C   C795      1.0  0.96852  0.54515  0.41367  1.0000
  H   H1344     1.0  0.76796  0.69415  0.13182  1.0000
  Fe  Fe115     1.0  0.66863  0.61310  0.15362  1.0000
  C   C796      1.0  0.97952  0.51016  0.29294  1.0000
  H   H1345     1.0  0.97936  0.54552  0.43239  1.0000
  C   C797      1.0  0.68791  0.98341  0.33177  1.0000
  H   H1346     1.0  0.71663  0.98519  0.44021  1.0000
  H   H1347     1.0  0.66819  0.74485  0.42016  1.0000
  Fe  Fe116     1.0  0.67193  0.86089  0.41589  1.0000
  C   C798      1.0  0.98413  0.56942  0.31412  1.0000
  H   H1348     1.0  0.74914  0.98296  0.43738  1.0000
  C   C799      1.0  0.74021  0.67139  0.24025  1.0000
  H   H1349     1.0  0.76177  0.65759  0.13166  1.0000
  H   H1350     1.0  0.70072  0.72648  0.15990  1.0000
  C   C800      1.0  0.69109  0.77190  0.28871  1.0000
  H   H1351     1.0  0.70223  0.51353  0.24048  1.0000
  C   C801      1.0  0.72788  0.94410  0.43082  1.0000
  C   C802      1.0  0.66679  0.76789  0.41862  1.0000
  C   C803      1.0  0.99226  0.77510  0.47634  1.0000
  H   H1352     1.0  0.75297  0.91559  0.46758  1.0000
  H   H1353     1.0  0.70426  0.95602  0.45152  1.0000
  N   N55       1.0  0.73833  0.69463  0.17274  1.0000
  C   C804      1.0  0.69990  0.97573  0.26931  1.0000
  H   H1354     1.0  0.97596  0.58293  0.38479  1.0000
  C   C805      1.0  0.99521  0.75470  0.44744  1.0000
  H   H1355     1.0  0.73044  0.75083  0.20624  1.0000
  H   H1356     1.0  0.97410  0.65175  0.22169  1.0000
  H   H1357     1.0  0.74798  0.90535  0.39931  1.0000
  H   H1358     1.0  0.74862  0.68632  0.25431  1.0000
  H   H1359     1.0  0.91867  0.91420  0.45426  1.0000
  H   H1360     1.0  0.92868  0.91615  0.40957  1.0000
  H   H1361     1.0  0.70707  0.96444  0.40211  1.0000
  C   C806      1.0  0.74131  0.73927  0.21586  1.0000
  H   H1362     1.0  0.99221  0.56171  0.29106  1.0000
  H   H1363     1.0  0.95080  0.70736  0.02011  1.0000
  H   H1364     1.0  0.96420  0.91446  0.46131  1.0000
  H   H1365     1.0  0.75051  0.75531  0.22356  1.0000
  N   N56       1.0  0.74072  0.94904  0.40075  1.0000
  H   H1366     1.0  0.96617  0.95074  0.45744  1.0000
  H   H1367     1.0  0.73867  0.70548  0.11186  1.0000
  H   H1368     1.0  0.97360  0.91781  0.39886  1.0000
  C   C807      1.0  0.93717  0.88357  0.44739  1.0000
  S   S230      1.0  0.67903  0.85658  0.35334  1.0000
  H   H1369     1.0  0.95310  0.92116  0.38567  1.0000
  H   H1370     1.0  0.93080  0.70861  0.03941  1.0000
  H   H1371     1.0  0.94425  0.98159  0.44775  1.0000
  H   H1372     1.0  0.96202  0.59479  0.31186  1.0000
  H   H1373     1.0  0.76055  0.71418  0.19221  1.0000
  H   H1374     1.0  0.75640  0.66542  0.19366  1.0000
  C   C808      1.0  0.78038  0.55838  0.99050  1.0000
  H   H1375     1.0  0.95875  0.55525  0.43062  1.0000
  H   H1376     1.0  0.68686  0.79329  0.28731  1.0000
  N   N57       1.0  0.98208  0.54852  0.34638  1.0000
  C   C809      1.0  0.98939  0.73313  0.99888  1.0000
  H   H1377     1.0  0.73706  0.65038  0.18583  1.0000
  H   H1378     1.0  0.97137  0.58898  0.26627  1.0000
  C   C810      1.0  0.98913  0.49878  0.99490  1.0000
  H   H1379     1.0  0.79183  0.55079  0.00341  1.0000
  C   C811      1.0  0.93582  0.96425  0.43999  1.0000
  H   H1380     1.0  0.72443  0.96209  0.35482  1.0000
  H   H1381     1.0  0.67348  0.72646  0.35501  1.0000
  H   H1382     1.0  0.97140  0.98326  0.03249  1.0000
  C   C812      1.0  0.91858  0.97329  0.45110  1.0000
  S   S231      1.0  0.85453  0.62618  0.98442  1.0000
  C   C813      1.0  0.98926  0.76266  0.99895  1.0000
  H   H1383     1.0  0.97020  0.51531  0.27105  1.0000
  H   H1384     1.0  0.91586  0.99359  0.43693  1.0000
  C   C814      1.0  0.74063  0.53866  0.98330  1.0000
  C   C815      1.0  0.74948  0.85713  0.50939  1.0000
  H   H1385     1.0  0.95817  0.81251  0.72291  1.0000
  Fe  Fe117     1.0  0.81005  0.84467  0.72376  1.0000
  S   S232      1.0  0.82009  0.83739  0.66429  1.0000
  S   S233      1.0  0.80210  0.81085  0.76754  1.0000
  Fe  Fe118     1.0  0.80883  0.90934  0.71129  1.0000
  S   S234      1.0  0.81840  0.90521  0.65038  1.0000
  S   S235      1.0  0.80241  0.95421  0.73156  1.0000
  Fe  Fe119     1.0  0.80120  0.86855  0.64360  1.0000
  S   S236      1.0  0.78621  0.85600  0.58940  1.0000
  Fe  Fe120     1.0  0.83632  0.87472  0.67544  1.0000
  S   S237      1.0  0.86411  0.87828  0.67322  1.0000
  S   S238      1.0  0.79060  0.87438  0.70281  1.0000
  S   S239      1.0  0.82722  0.88020  0.73664  1.0000
  Fe  Fe121     1.0  0.83338  0.62825  0.94148  1.0000
  S   S240      1.0  0.83469  0.61986  0.87786  1.0000
  C   C816      1.0  0.76826  0.57317  0.90681  1.0000
  Fe  Fe122     1.0  0.79590  0.63290  0.94077  1.0000
  S   S241      1.0  0.79525  0.62520  0.87612  1.0000
  H   H1386     1.0  0.92373  0.72491  0.90436  1.0000
  Fe  Fe123     1.0  0.81344  0.59072  0.88602  1.0000
  S   S242      1.0  0.81066  0.54325  0.87298  1.0000
  Fe  Fe124     1.0  0.81642  0.65517  0.87225  1.0000
  S   S243      1.0  0.82170  0.68654  0.82291  1.0000
  S   S244      1.0  0.81311  0.59737  0.95047  1.0000
  S   S245      1.0  0.81616  0.66483  0.93610  1.0000
  Fe  Fe125     1.0  0.98401  0.90334  0.54176  1.0000
  S   S246      1.0  0.96898  0.86753  0.51815  1.0000
  H   H1387     1.0  0.77946  0.56708  0.89133  1.0000
  Fe  Fe126     1.0  0.97941  0.88246  0.62502  1.0000
  S   S247      1.0  0.96402  0.84592  0.60615  1.0000
  H   H1388     1.0  0.85403  0.92004  0.72844  1.0000
  Fe  Fe127     1.0  0.98254  0.83948  0.55896  1.0000
  C   C817      1.0  0.93126  0.70843  0.97649  1.0000
  Fe  Fe128     1.0  0.95166  0.87663  0.56729  1.0000
  S   S248      1.0  0.92429  0.87964  0.55584  1.0000
  S   S249      1.0  0.96599  0.91380  0.58826  1.0000
  H   H1389     1.0  0.96450  0.69238  0.96630  1.0000
  C   C818      1.0  0.80787  0.97782  0.76964  1.0000
  H   H1390     1.0  0.96678  0.96285  0.96907  1.0000
  C   C819      1.0  0.96284  0.74347  0.90960  1.0000
  C   C820      1.0  0.81324  0.51911  0.83368  1.0000
  C   C821      1.0  0.81759  0.52765  0.79650  1.0000
  C   C822      1.0  0.86064  0.51445  0.89885  1.0000
  H   H1391     1.0  0.82086  0.94800  0.80404  1.0000
  H   H1392     1.0  0.86677  0.97880  0.67131  1.0000
  H   H1393     1.0  0.81952  0.54965  0.79067  1.0000
  H   H1394     1.0  0.96900  0.83286  0.68890  1.0000
  C   C823      1.0  0.80850  0.77698  0.78400  1.0000
  C   C824      1.0  0.79966  0.76363  0.81351  1.0000
  C   C825      1.0  0.80369  0.73639  0.82643  1.0000
  C   C826      1.0  0.81655  0.72178  0.80968  1.0000
  C   C827      1.0  0.82539  0.73514  0.78018  1.0000
  C   C828      1.0  0.82154  0.76257  0.76771  1.0000
  H   H1395     1.0  0.78957  0.77442  0.82649  1.0000
  H   H1396     1.0  0.79672  0.72657  0.84904  1.0000
  H   H1397     1.0  0.83538  0.72420  0.76696  1.0000
  H   H1398     1.0  0.82863  0.77243  0.74537  1.0000
  C   C829      1.0  0.88056  0.87812  0.63970  1.0000
  C   C830      1.0  0.89647  0.87835  0.65410  1.0000
  C   C831      1.0  0.90994  0.87859  0.62905  1.0000
  C   C832      1.0  0.90772  0.87879  0.58902  1.0000
  C   C833      1.0  0.89180  0.87876  0.57459  1.0000
  C   C834      1.0  0.87832  0.87834  0.59966  1.0000
  H   H1399     1.0  0.89843  0.87808  0.68493  1.0000
  H   H1400     1.0  0.92205  0.87863  0.64076  1.0000
  H   H1401     1.0  0.88987  0.87887  0.54375  1.0000
  H   H1402     1.0  0.86622  0.87818  0.58798  1.0000
  C   C835      1.0  0.76787  0.86518  0.56449  1.0000
  C   C836      1.0  0.75733  0.88605  0.57761  1.0000
  C   C837      1.0  0.74305  0.89237  0.55680  1.0000
  C   C838      1.0  0.73896  0.87800  0.52251  1.0000
  S   S250      1.0  0.72078  0.88747  0.49718  1.0000
  C   C839      1.0  0.76376  0.85082  0.53021  1.0000
  H   H1403     1.0  0.76021  0.89741  0.60377  1.0000
  H   H1404     1.0  0.92612  0.68697  0.98014  1.0000
  H   H1405     1.0  0.77173  0.83465  0.51954  1.0000
  H   H1406     1.0  0.77931  0.71394  0.60281  1.0000
  H   H1407     1.0  0.90670  0.54400  0.93194  1.0000
  H   H1408     1.0  0.93932  0.70780  0.87965  1.0000
  H   H1409     1.0  0.85273  0.53531  0.82760  1.0000
  H   H1410     1.0  0.94148  0.75481  0.94146  1.0000
  H   H1411     1.0  0.85533  0.99088  0.77787  1.0000
  C   C840      1.0  0.81708  0.96959  0.80150  1.0000
  C   C841      1.0  0.87588  0.62421  0.97819  1.0000
  C   C842      1.0  0.82125  0.98924  0.83047  1.0000
  H   H1412     1.0  0.83236  0.95517  0.68440  1.0000
  C   C843      1.0  0.93990  0.93676  0.50020  1.0000
  C   C844      1.0  0.67055  0.87946  0.52118  1.0000
  H   H1413     1.0  0.87765  0.50808  0.84992  1.0000
  H   H1414     1.0  0.70136  0.86269  0.61059  1.0000
  H   H1415     1.0  0.88081  0.96632  0.76910  1.0000
  S   S251      1.0  0.93125  0.61487  0.96494  1.0000
  H   H1416     1.0  0.82256  0.51465  0.73789  1.0000
  N   N58       1.0  0.94250  0.70948  0.94215  1.0000
  H   H1417     1.0  0.77292  0.51815  0.96862  1.0000
  C   C845      1.0  0.87837  0.96333  0.73777  1.0000
  C   C846      1.0  0.97639  0.78876  0.69176  1.0000
  C   C847      1.0  0.85202  0.55883  0.92693  1.0000
  H   H1418     1.0  0.98567  0.52894  0.89410  1.0000
  C   C848      1.0  0.85401  0.55716  0.83817  1.0000
  H   H1419     1.0  0.89937  0.56467  0.89321  1.0000
  N   N59       1.0  0.86060  0.96417  0.72880  1.0000
  H   H1420     1.0  0.88466  0.98137  0.72414  1.0000
  C   C849      1.0  0.85188  0.93930  0.74570  1.0000
  H   H1421     1.0  0.68047  0.86759  0.50698  1.0000
  C   C850      1.0  0.67633  0.91024  0.52540  1.0000
  H   H1422     1.0  0.94348  0.98210  0.51254  1.0000
  C   C851      1.0  0.85591  0.93230  0.78805  1.0000
  C   C852      1.0  0.81929  0.50767  0.76650  1.0000
  C   C853      1.0  0.74812  0.56003  0.95514  1.0000
  H   H1423     1.0  0.97693  0.73455  0.67029  1.0000
  S   S252      1.0  0.77110  0.63906  0.97130  1.0000
  C   C854      1.0  0.84890  0.54850  0.96849  1.0000
  H   H1424     1.0  0.83859  0.94232  0.74430  1.0000
  H   H1425     1.0  0.97812  0.82372  0.73439  1.0000
  H   H1426     1.0  0.78200  0.98492  0.84540  1.0000
  H   H1427     1.0  0.97362  0.72987  0.91234  1.0000
  H   H1428     1.0  0.77124  0.53033  0.85391  1.0000
  C   C855      1.0  0.98984  0.73511  0.66203  1.0000
  H   H1429     1.0  0.82835  0.98251  0.85493  1.0000
  H   H1430     1.0  0.77989  0.50760  0.88996  1.0000
  H   H1431     1.0  0.99144  0.81782  0.63368  1.0000
  H   H1432     1.0  0.85369  0.95018  0.80772  1.0000
  H   H1433     1.0  0.84797  0.91487  0.79765  1.0000
  C   C856      1.0  0.94805  0.96138  0.52167  1.0000
  H   H1434     1.0  0.76674  0.97136  0.87817  1.0000
  H   H1435     1.0  0.86850  0.92486  0.79130  1.0000
  H   H1436     1.0  0.95743  0.74163  0.88051  1.0000
  H   H1437     1.0  0.74495  0.53108  0.89089  1.0000
  H   H1438     1.0  0.83762  0.99119  0.67528  1.0000
  H   H1439     1.0  0.78655  0.95657  0.87652  1.0000
  C   C857      1.0  0.75638  0.58507  0.87670  1.0000
  H   H1440     1.0  0.94534  0.95949  0.55293  1.0000
  C   C858      1.0  0.99290  0.88522  0.76375  1.0000
  H   H1441     1.0  0.96320  0.69041  0.88439  1.0000
  N   N60       1.0  0.66516  0.86462  0.55740  1.0000
  H   H1442     1.0  0.96734  0.76534  0.91250  1.0000
  C   C859      1.0  0.88315  0.62381  0.94176  1.0000
  N   N61       1.0  0.76202  0.54944  0.93125  1.0000
  H   H1443     1.0  0.78706  0.98402  0.93294  1.0000
  H   H1444     1.0  0.88052  0.52969  0.95249  1.0000
  H   H1445     1.0  0.79013  0.71248  0.64647  1.0000
  C   C860      1.0  0.85345  0.99036  0.74612  1.0000
  H   H1446     1.0  0.74610  0.59597  0.89056  1.0000
  C   C861      1.0  0.88752  0.93717  0.72327  1.0000
  S   S253      1.0  0.98101  0.88956  0.69017  1.0000
  C   C862      1.0  0.97038  0.81608  0.71068  1.0000
  H   H1447     1.0  0.96828  0.78540  0.66643  1.0000
  H   H1448     1.0  0.86221  0.94274  0.67379  1.0000
  H   H1449     1.0  0.99622  0.83314  0.67821  1.0000
  H   H1450     1.0  0.67014  0.80313  0.54209  1.0000
  H   H1451     1.0  0.75296  0.50713  0.92457  1.0000
  C   C863      1.0  0.95471  0.68618  0.94601  1.0000
  H   H1452     1.0  0.92703  0.93602  0.50943  1.0000
  C   C864      1.0  0.67945  0.85295  0.57900  1.0000
  H   H1453     1.0  0.91630  0.67836  0.87489  1.0000
  H   H1454     1.0  0.86965  0.58294  0.87364  1.0000
  H   H1455     1.0  0.85678  0.57037  0.81268  1.0000
  H   H1456     1.0  0.89832  0.52671  0.89074  1.0000
  C   C865      1.0  0.86779  0.56016  0.86788  1.0000
  H   H1457     1.0  0.75195  0.56897  0.85621  1.0000
  C   C866      1.0  0.69201  0.87419  0.59399  1.0000
  N   N62       1.0  0.78423  0.76677  0.67025  1.0000
  C   C867      1.0  0.78233  0.79796  0.66425  1.0000
  C   C868      1.0  0.80212  0.76108  0.67230  1.0000
  C   C869      1.0  0.77616  0.75950  0.70805  1.0000
  C   C870      1.0  0.77619  0.75194  0.63694  1.0000
  C   C871      1.0  0.76491  0.80935  0.66469  1.0000
  C   C872      1.0  0.81153  0.76462  0.63418  1.0000
  C   C873      1.0  0.78085  0.73164  0.72753  1.0000
  C   C874      1.0  0.77872  0.71999  0.63375  1.0000
  H   H1458     1.0  0.78907  0.80983  0.68682  1.0000
  H   H1459     1.0  0.78753  0.80463  0.63623  1.0000
  H   H1460     1.0  0.80484  0.73960  0.68228  1.0000
  H   H1461     1.0  0.80787  0.77496  0.69427  1.0000
  H   H1462     1.0  0.77865  0.77601  0.73007  1.0000
  H   H1463     1.0  0.76281  0.75908  0.70464  1.0000
  H   H1464     1.0  0.76291  0.75504  0.63797  1.0000
  H   H1465     1.0  0.77974  0.76153  0.60887  1.0000
  H   H1466     1.0  0.76538  0.83238  0.65997  1.0000
  H   H1467     1.0  0.75749  0.80058  0.64095  1.0000
  H   H1468     1.0  0.75892  0.80608  0.69290  1.0000
  H   H1469     1.0  0.80766  0.74915  0.61212  1.0000
  H   H1470     1.0  0.81061  0.78598  0.62208  1.0000
  H   H1471     1.0  0.82454  0.76084  0.63985  1.0000
  H   H1472     1.0  0.77314  0.72863  0.75341  1.0000
  H   H1473     1.0  0.79342  0.73205  0.73845  1.0000
  H   H1474     1.0  0.77901  0.71315  0.70892  1.0000
  H   H1475     1.0  0.76849  0.70850  0.64716  1.0000
  H   H1476     1.0  0.85434  0.58176  0.92892  1.0000
  H   H1477     1.0  0.98050  0.88830  0.77247  1.0000
  C   C875      1.0  0.88053  0.54642  0.93015  1.0000
  H   H1478     1.0  0.88047  0.91759  0.72598  1.0000
  H   H1479     1.0  0.84228  0.56439  0.84942  1.0000
  C   C876      1.0  0.84133  0.96914  0.67074  1.0000
  H   H1480     1.0  0.73514  0.90864  0.56740  1.0000
  H   H1481     1.0  0.87881  0.55354  0.85234  1.0000
  C   C877      1.0  0.98662  0.51016  0.87518  1.0000
  H   H1482     1.0  0.95702  0.65551  0.89885  1.0000
  C   C878      1.0  0.90006  0.62090  0.93840  1.0000
  C   C879      1.0  0.75624  0.52547  0.90642  1.0000
  H   H1483     1.0  0.76275  0.60110  0.85920  1.0000
  H   H1484     1.0  0.89843  0.93383  0.74129  1.0000
  C   C880      1.0  0.76848  0.51453  0.87638  1.0000
  C   C881      1.0  0.96275  0.67540  0.90849  1.0000
  C   C882      1.0  0.89703  0.54517  0.90974  1.0000
  H   H1485     1.0  0.68651  0.83847  0.56034  1.0000
  C   C883      1.0  0.97129  0.98242  0.95527  1.0000
  H   H1486     1.0  0.98585  0.51750  0.84495  1.0000
  H   H1487     1.0  0.73802  0.56700  0.93638  1.0000
  H   H1488     1.0  0.84037  0.55663  0.91144  1.0000
  C   C884      1.0  0.85856  0.96354  0.68559  1.0000
  H   H1489     1.0  0.97546  0.66976  0.91490  1.0000
  H   H1490     1.0  0.92898  0.66079  0.90879  1.0000
  H   H1491     1.0  0.88077  0.56648  0.94664  1.0000
  C   C885      1.0  0.99368  0.98934  0.51433  1.0000
  H   H1492     1.0  0.96136  0.96073  0.51883  1.0000
  H   H1493     1.0  0.87573  0.62559  0.91622  1.0000
  H   H1494     1.0  0.84088  0.96502  0.63920  1.0000
  S   S254      1.0  0.97645  0.61306  0.96933  1.0000
  H   H1495     1.0  0.94895  0.66740  0.95912  1.0000
  C   C886      1.0  0.91000  0.61893  0.97131  1.0000
  H   H1496     1.0  0.92067  0.72244  0.97207  1.0000
  H   H1497     1.0  0.78682  0.53620  0.93907  1.0000
  H   H1498     1.0  0.68685  0.88993  0.61392  1.0000
  H   H1499     1.0  0.84472  0.52645  0.96918  1.0000
  N   N63       1.0  0.86552  0.54452  0.90533  1.0000
  H   H1500     1.0  0.69851  0.88450  0.56991  1.0000
  H   H1501     1.0  0.94530  0.91737  0.51227  1.0000
  H   H1502     1.0  0.68780  0.91303  0.50934  1.0000
  H   H1503     1.0  0.90549  0.62027  0.91007  1.0000
  H   H1504     1.0  0.89118  0.93953  0.69261  1.0000
  C   C887      1.0  0.77565  0.53918  0.95643  1.0000
  C   C888      1.0  0.93216  0.70680  0.90649  1.0000
  S   S255      1.0  0.99552  0.93219  0.49580  1.0000
  H   H1505     1.0  0.97610  0.49671  0.88229  1.0000
  H   H1506     1.0  0.91165  0.68047  0.92497  1.0000
  H   H1507     1.0  0.84819  0.51281  0.88668  1.0000
  C   C889      1.0  0.92178  0.67997  0.90406  1.0000
  H   H1508     1.0  0.98817  0.76997  0.62337  1.0000
  H   H1509     1.0  0.67882  0.91748  0.55503  1.0000
  H   H1510     1.0  0.77193  0.59111  0.92514  1.0000
  C   C890      1.0  0.77970  0.97651  0.87474  1.0000
  C   C891      1.0  0.95067  0.73779  0.94216  1.0000
  H   H1511     1.0  0.97358  0.77154  0.71229  1.0000
  H   H1512     1.0  0.66953  0.82417  0.49861  1.0000
  H   H1513     1.0  0.67528  0.84032  0.60412  1.0000
  H   H1514     1.0  0.66754  0.92470  0.51173  1.0000
  H   H1515     1.0  0.95770  0.74110  0.96908  1.0000
  H   H1516     1.0  0.85964  0.50323  0.92681  1.0000
  C   C892      1.0  0.93724  0.98303  0.91496  1.0000
  H   H1517     1.0  0.98880  0.98302  0.54190  1.0000
  S   S256      1.0  0.99421  0.79570  0.55235  1.0000
  H   H1518     1.0  0.84011  0.99067  0.74236  1.0000
  H   H1519     1.0  0.99118  0.72066  0.63705  1.0000
  N   N64       1.0  0.99388  0.78757  0.67947  1.0000
  H   H1520     1.0  0.99159  0.53475  0.52244  1.0000
  C   C893      1.0  0.99535  0.76465  0.64952  1.0000
  H   H1521     1.0  0.74668  0.84581  0.48316  1.0000
  H   H1522     1.0  0.73382  0.52217  0.96760  1.0000
  H   H1523     1.0  0.94228  0.99488  0.89046  1.0000
  H   H1524     1.0  0.75165  0.57908  0.97182  1.0000
  H   H1525     1.0  0.96703  0.96943  0.89444  1.0000
  H   H1526     1.0  0.98253  0.98792  0.97105  1.0000
  H   H1527     1.0  0.92395  0.98493  0.91156  1.0000
  C   C894      1.0  0.97701  0.97464  0.91429  1.0000
  H   H1528     1.0  0.98487  0.95584  0.91617  1.0000
  H   H1529     1.0  0.76326  0.49607  0.86126  1.0000
  H   H1530     1.0  0.94056  0.96058  0.91226  1.0000
  C   C895      1.0  0.94213  0.99469  0.95478  1.0000
  H   H1531     1.0  0.98457  0.99155  0.90172  1.0000
  C   C896      1.0  0.87200  0.49645  0.87389  1.0000
  H   H1532     1.0  0.91726  0.97662  0.48259  1.0000
  H   H1533     1.0  0.83912  0.56133  0.98138  1.0000
  H   H1534     1.0  0.78240  0.58027  0.98140  1.0000
  H   H1535     1.0  0.76141  0.99547  0.94970  1.0000
  H   H1536     1.0  0.94002  0.97720  0.97530  1.0000
