data_image0
_chemical_formula_structural       H3SH2C2SH2FeH2C2HNHCHSCH3SHSH3C2SCHC3S2HCH2CH2C2H3CHCFeC3HFeC2SCHNHSH3CHCH2FeH3CHCHCH5SHSC3H3C2HC2HSHCHFeHSH2SHFeCH4CHC3NC2HCHCH4C2HC2H2CHFeCS2HCNH2CH5SCFeCSH2CFeSFeH2CH4CH4CH2CH5FeCHCH4CH2FeHC3HNH4S2CHCH4SH2SH3SHCH5SHFeH2C2H3C2H2CH4C2H2SCHCHC4HCH2CFeC2HNH3CHCFeH2NC2H4CFeCHC2SCFeH2C2H2CSHCH2C2H2CHCHCSHC4HSH2NH2SC2H4SHCFeHSH4CH2FeHC4H3SH2SCH2FeH5CHC2H2CH3C3HSHCFeH2CFeH3SFeCH2FeH2SCH4CHCH2CSHFeCH4CH2CHSCHCH3CSCHC2H3C3FeHSNSNC2H2CH4C2H4SH3C2HNC2H3CHCH2SC2H2CHCH3CHCH3C2HC2HCH3CH4CNCH3S2H3C2HCH5CHCH5C3HC2HCSH3CH3C3HCH2CH6NH7SH2CH2CFeCHC2H2SHC3HCHSC4H2CHCSHFe2SCH2CSC2HSC2HC2H2CHCHFeH2SH2CHNHC3HC2H3NH3C2H7C2H2C2H2CH4SC3H6CH3CH2SH4CH2CHCSHCH2CH4C5H3C2HSHCH2NHCH2CH2SH2CHC2HCSC2H3CH2CHNH2CH2CHC4H2FeC2HCH3CH2SH4CH2CH6CH2CNH2SH3SHC2HCH3C2H2SH3C2H3FeSC2HCSFeH3FeCH3C2HCH2FeH4CH4CH3NHSHC2HS2FeC2H3SC2H2CSHC3H3C2HCHCSC3H2SC3HCH2CHCHCH2C2H2SH3CHCHCH2C2NH4SHFeSCH3C2SCHFeSHC2H2FeHSH3CH4CSH4NHC2H3C2HSH2CHCH3SFeSH3SNH2FeH4C3HC2HSH3C2HSFeCNHSHFeC2HCH3CH3CHCFeC2SHC3SHCH2FeH7C2HSHCHCHCH3C3H2C2HCNS3HSHCHFeCSFeH2CHCH2CH5C3SCH2N2H8CH2FeH7SCSNSC4H3CHCH2SC2HCH3SHCH3CHSH2FeCH2C2H4SHNCHCHCH2SH2NCHC5HCHFeH6CHFeHCHSCHCFeHFeSHCSC2H2FeH2CH5C3HSHCHCHC3NHC3H2NHS2HFeHS2C2H8SH3C3H8SH3CHFeH4SNHC2FeSHC2H2C2H2CSHCHFeH4CHSCHFe2H2C2SFeCHSCHFeH3C2HFeHC2H4CSHSH3SFeSCHSC2HC5HCH2C2H7
_chemical_formula_sum              "H768 S128 C448 Fe64 N32"
_cell_length_a       28.8436
_cell_length_b       29.1486
_cell_length_c       21.7841
_cell_angle_alpha    86.7769
_cell_angle_beta     91.9765
_cell_angle_gamma    91.387

_space_group_name_H-M_alt    "P 1"
_space_group_IT_number       1

loop_
  _space_group_symop_operation_xyz
  'x, y, z'

loop_
  _atom_site_type_symbol
  _atom_site_label
  _atom_site_symmetry_multiplicity
  _atom_site_fract_x
  _atom_site_fract_y
  _atom_site_fract_z
  _atom_site_occupancy
  H   H1        1.0  0.32080  0.08857  0.99148  1.0000
  H   H2        1.0  0.11641  0.44827  0.86232  1.0000
  H   H3        1.0  0.35638  0.50511  0.06816  1.0000
  S   S1        1.0  0.22655  0.21988  0.04798  1.0000
  H   H4        1.0  0.60087  0.07488  0.98353  1.0000
  H   H5        1.0  0.29228  0.08136  0.91809  1.0000
  C   C1        1.0  0.19459  0.12647  0.92691  1.0000
  C   C2        1.0  0.29914  0.36840  0.91244  1.0000
  S   S2        1.0  0.21430  0.44819  0.96521  1.0000
  H   H6        1.0  0.28051  0.27555  0.92382  1.0000
  H   H7        1.0  0.37276  0.25673  0.99687  1.0000
  Fe  Fe1       1.0  0.49756  0.47822  0.01163  1.0000
  H   H8        1.0  0.39068  0.37815  0.93112  1.0000
  H   H9        1.0  0.32105  0.22225  0.99919  1.0000
  C   C3        1.0  0.25834  0.53078  0.94575  1.0000
  C   C4        1.0  0.28947  0.09757  0.96258  1.0000
  H   H10       1.0  0.51039  0.25273  0.07707  1.0000
  N   N1        1.0  0.33332  0.32983  0.91913  1.0000
  H   H11       1.0  0.28322  0.37369  0.95717  1.0000
  C   C5        1.0  0.18676  0.18282  0.08535  1.0000
  H   H12       1.0  0.59416  0.27561  0.89063  1.0000
  S   S3        1.0  0.43586  0.21245  0.87907  1.0000
  C   C6        1.0  0.16059  0.06943  0.99902  1.0000
  H   H13       1.0  0.55106  0.41858  0.08610  1.0000
  H   H14       1.0  0.12698  0.21695  0.04405  1.0000
  H   H15       1.0  0.14616  0.51116  0.92170  1.0000
  S   S4        1.0  0.15443  0.33486  0.01055  1.0000
  H   H16       1.0  0.22021  0.06065  0.86788  1.0000
  S   S5        1.0  0.44648  0.07923  0.07066  1.0000
  H   H17       1.0  0.23482  0.39126  0.86647  1.0000
  H   H18       1.0  0.35001  0.22970  0.92885  1.0000
  H   H19       1.0  0.29015  0.13556  0.95508  1.0000
  C   C7        1.0  0.36861  0.35733  0.02137  1.0000
  C   C8        1.0  0.56825  0.25814  0.86299  1.0000
  S   S6        1.0  0.25294  0.34676  0.08566  1.0000
  C   C9        1.0  0.52397  0.24859  0.88572  1.0000
  H   H20       1.0  0.40202  0.37022  0.04131  1.0000
  C   C10       1.0  0.54237  0.38249  0.08371  1.0000
  C   C11       1.0  0.29305  0.47980  0.02519  1.0000
  C   C12       1.0  0.50190  0.32042  0.03363  1.0000
  S   S7        1.0  0.56496  0.51354  0.03680  1.0000
  S   S8        1.0  0.47409  0.53596  0.94735  1.0000
  H   H21       1.0  0.51553  0.25924  0.93063  1.0000
  C   C13       1.0  0.51952  0.28886  0.07891  1.0000
  H   H22       1.0  0.35786  0.32650  0.04996  1.0000
  H   H23       1.0  0.12860  0.06100  0.97139  1.0000
  C   C14       1.0  0.32903  0.51232  0.03412  1.0000
  H   H24       1.0  0.56386  0.50782  0.88725  1.0000
  H   H25       1.0  0.47921  0.30853  0.99709  1.0000
  C   C15       1.0  0.37589  0.34624  0.95416  1.0000
  C   C16       1.0  0.47708  0.09786  0.91602  1.0000
  H   H26       1.0  0.49884  0.10055  0.95854  1.0000
  H   H27       1.0  0.23154  0.53762  0.91060  1.0000
  H   H28       1.0  0.34329  0.38498  0.02454  1.0000
  C   C17       1.0  0.13912  0.18909  0.07499  1.0000
  H   H29       1.0  0.19817  0.15355  0.96091  1.0000
  C   C18       1.0  0.25809  0.48888  0.98033  1.0000
  Fe  Fe2       1.0  0.20113  0.39306  0.03787  1.0000
  C   C19       1.0  0.14761  0.13366  0.89191  1.0000
  C   C20       1.0  0.31005  0.28910  0.95224  1.0000
  C   C21       1.0  0.24571  0.08139  0.99690  1.0000
  H   H30       1.0  0.29268  0.44756  0.05221  1.0000
  Fe  Fe3       1.0  0.20253  0.28952  0.06673  1.0000
  C   C22       1.0  0.39413  0.05025  0.08731  1.0000
  C   C23       1.0  0.59328  0.49241  0.86484  1.0000
  S   S9        1.0  0.45953  0.50217  0.09160  1.0000
  C   C24       1.0  0.51299  0.36725  0.03631  1.0000
  H   H31       1.0  0.40416  0.32098  0.95374  1.0000
  N   N2        1.0  0.20137  0.07935  0.95816  1.0000
  H   H32       1.0  0.59593  0.33489  0.96574  1.0000
  S   S10       1.0  0.48982  0.40648  0.98047  1.0000
  H   H33       1.0  0.55597  0.06558  0.89287  1.0000
  H   H34       1.0  0.24200  0.10503  0.03462  1.0000
  H   H35       1.0  0.15225  0.10068  0.02309  1.0000
  C   C25       1.0  0.60752  0.44780  0.90208  1.0000
  H   H36       1.0  0.29420  0.29916  0.99492  1.0000
  C   C26       1.0  0.34092  0.24763  0.96997  1.0000
  H   H37       1.0  0.31645  0.40204  0.90012  1.0000
  H   H38       1.0  0.22196  0.13490  0.89301  1.0000
  Fe  Fe4       1.0  0.11877  0.34505  0.09831  1.0000
  H   H39       1.0  0.23740  0.33035  0.87743  1.0000
  H   H40       1.0  0.55381  0.36796  0.89287  1.0000
  H   H41       1.0  0.58029  0.43955  0.93627  1.0000
  C   C27       1.0  0.34815  0.31538  0.85768  1.0000
  H   H42       1.0  0.44489  0.11692  0.92263  1.0000
  C   C28       1.0  0.25842  0.36178  0.86592  1.0000
  H   H43       1.0  0.11583  0.44973  0.97674  1.0000
  C   C29       1.0  0.12103  0.53921  0.92078  1.0000
  H   H44       1.0  0.14882  0.16728  0.86520  1.0000
  H   H45       1.0  0.49487  0.11571  0.87670  1.0000
  H   H46       1.0  0.37361  0.28740  0.86400  1.0000
  H   H47       1.0  0.11869  0.13511  0.92407  1.0000
  H   H48       1.0  0.13987  0.10674  0.85896  1.0000
  S   S11       1.0  0.16323  0.29428  0.15267  1.0000
  H   H49       1.0  0.43020  0.29640  0.13802  1.0000
  S   S12       1.0  0.56789  0.05862  0.31987  1.0000
  C   C30       1.0  0.44901  0.31597  0.23023  1.0000
  C   C31       1.0  0.58539  0.50570  0.24458  1.0000
  C   C32       1.0  0.54908  0.30411  0.12608  1.0000
  H   H50       1.0  0.24862  0.18581  0.23769  1.0000
  H   H51       1.0  0.44171  0.35622  0.14113  1.0000
  H   H52       1.0  0.17552  0.30498  0.34984  1.0000
  C   C33       1.0  0.56109  0.35080  0.12795  1.0000
  C   C34       1.0  0.34510  0.23270  0.30224  1.0000
  H   H53       1.0  0.57731  0.52825  0.33609  1.0000
  C   C35       1.0  0.11456  0.15465  0.30795  1.0000
  C   C36       1.0  0.32696  0.25722  0.34864  1.0000
  H   H54       1.0  0.49772  0.46590  0.25948  1.0000
  S   S13       1.0  0.44687  0.19576  0.16586  1.0000
  H   H55       1.0  0.39587  0.44056  0.25501  1.0000
  C   C37       1.0  0.42577  0.32627  0.16653  1.0000
  H   H56       1.0  0.29329  0.52847  0.18897  1.0000
  Fe  Fe5       1.0  0.52535  0.54180  0.11268  1.0000
  H   H57       1.0  0.48445  0.30362  0.22279  1.0000
  S   S14       1.0  0.56910  0.26569  0.18497  1.0000
  H   H58       1.0  0.26008  0.44547  0.35210  1.0000
  H   H59       1.0  0.23925  0.14281  0.13467  1.0000
  S   S15       1.0  0.25187  0.35575  0.25807  1.0000
  H   H60       1.0  0.46183  0.44061  0.31812  1.0000
  Fe  Fe6       1.0  0.52137  0.20468  0.19783  1.0000
  C   C38       1.0  0.29975  0.29556  0.33384  1.0000
  H   H61       1.0  0.52221  0.42635  0.31695  1.0000
  H   H62       1.0  0.21473  0.14044  0.27335  1.0000
  H   H63       1.0  0.13033  0.15964  0.26242  1.0000
  H   H64       1.0  0.26483  0.16486  0.31362  1.0000
  C   C39       1.0  0.17565  0.53604  0.33343  1.0000
  H   H65       1.0  0.58408  0.36255  0.16442  1.0000
  C   C40       1.0  0.12375  0.47628  0.28840  1.0000
  C   C41       1.0  0.20240  0.14730  0.12607  1.0000
  C   C42       1.0  0.25696  0.47165  0.31337  1.0000
  N   N3        1.0  0.45142  0.35468  0.27348  1.0000
  C   C43       1.0  0.23455  0.17251  0.28227  1.0000
  C   C44       1.0  0.36242  0.06882  0.12583  1.0000
  H   H66       1.0  0.59482  0.25757  0.32648  1.0000
  C   C45       1.0  0.33456  0.24574  0.24055  1.0000
  H   H67       1.0  0.29624  0.29209  0.17844  1.0000
  C   C46       1.0  0.47948  0.39422  0.24518  1.0000
  H   H68       1.0  0.34767  0.22626  0.20429  1.0000
  H   H69       1.0  0.14114  0.50099  0.19356  1.0000
  H   H70       1.0  0.51384  0.32922  0.32109  1.0000
  H   H71       1.0  0.40320  0.38023  0.33750  1.0000
  C   C47       1.0  0.11454  0.50550  0.22809  1.0000
  C   C48       1.0  0.12280  0.12288  0.14381  1.0000
  H   H72       1.0  0.34301  0.40817  0.26155  1.0000
  C   C49       1.0  0.60504  0.47259  0.20984  1.0000
  C   C50       1.0  0.28812  0.30838  0.27282  1.0000
  H   H73       1.0  0.37956  0.33780  0.29080  1.0000
  H   H74       1.0  0.59860  0.47307  0.16067  1.0000
  C   C51       1.0  0.30523  0.28306  0.22588  1.0000
  H   H75       1.0  0.29614  0.05933  0.16859  1.0000
  Fe  Fe7       1.0  0.52381  0.11061  0.26685  1.0000
  C   C52       1.0  0.49064  0.43385  0.28777  1.0000
  S   S16       1.0  0.50896  0.18104  0.29547  1.0000
  S   S17       1.0  0.44968  0.09466  0.24247  1.0000
  H   H76       1.0  0.51324  0.38198  0.22965  1.0000
  C   C53       1.0  0.37971  0.40624  0.24837  1.0000
  N   N4        1.0  0.16933  0.48567  0.32194  1.0000
  H   H77       1.0  0.37918  0.39967  0.19894  1.0000
  H   H78       1.0  0.20081  0.43692  0.26544  1.0000
  C   C54       1.0  0.20798  0.47170  0.28262  1.0000
  H   H79       1.0  0.28218  0.46245  0.27899  1.0000
  H   H80       1.0  0.18252  0.08974  0.18671  1.0000
  H   H81       1.0  0.42933  0.28581  0.25026  1.0000
  H   H82       1.0  0.26779  0.50580  0.32927  1.0000
  H   H83       1.0  0.36928  0.10226  0.14382  1.0000
  S   S18       1.0  0.54193  0.13560  0.17133  1.0000
  C   C55       1.0  0.17038  0.11759  0.15580  1.0000
  Fe  Fe8       1.0  0.43575  0.16758  0.26217  1.0000
  C   C56       1.0  0.59297  0.50379  0.30842  1.0000
  S   S19       1.0  0.37910  0.18504  0.32399  1.0000
  H   H84       1.0  0.22641  0.24047  0.31159  1.0000
  H   H85       1.0  0.17805  0.22014  0.26998  1.0000
  C   C57       1.0  0.47737  0.33737  0.33131  1.0000
  Fe  Fe9       1.0  0.46652  0.12354  0.14824  1.0000
  S   S20       1.0  0.16334  0.40591  0.12311  1.0000
  Fe  Fe10      1.0  0.21166  0.35378  0.16893  1.0000
  H   H86       1.0  0.12090  0.43980  0.27585  1.0000
  H   H87       1.0  0.12515  0.24369  0.34388  1.0000
  C   C58       1.0  0.40337  0.36826  0.28987  1.0000
  H   H88       1.0  0.46017  0.26301  0.34069  1.0000
  H   H89       1.0  0.38782  0.32996  0.16986  1.0000
  H   H90       1.0  0.46210  0.40954  0.20295  1.0000
  H   H91       1.0  0.21028  0.49486  0.24046  1.0000
  C   C59       1.0  0.20391  0.20951  0.30685  1.0000
  H   H92       1.0  0.41778  0.54746  0.32867  1.0000
  H   H93       1.0  0.59534  0.19660  0.39358  1.0000
  H   H94       1.0  0.47998  0.36435  0.36553  1.0000
  H   H95       1.0  0.18830  0.21707  0.49672  1.0000
  C   C60       1.0  0.50116  0.46619  0.57228  1.0000
  H   H96       1.0  0.37430  0.09597  0.54722  1.0000
  H   H97       1.0  0.20101  0.46837  0.41201  1.0000
  C   C61       1.0  0.51780  0.22982  0.55581  1.0000
  H   H98       1.0  0.46445  0.26494  0.59695  1.0000
  H   H99       1.0  0.23471  0.15376  0.40924  1.0000
  H   H100      1.0  0.16927  0.39019  0.42799  1.0000
  H   H101      1.0  0.52313  0.37315  0.57131  1.0000
  H   H102      1.0  0.59538  0.28191  0.58959  1.0000
  Fe  Fe11      1.0  0.42105  0.45484  0.46865  1.0000
  C   C62       1.0  0.17570  0.41486  0.58986  1.0000
  H   H103      1.0  0.13987  0.46703  0.41027  1.0000
  C   C63       1.0  0.55196  0.33319  0.50379  1.0000
  H   H104      1.0  0.34236  0.05206  0.51114  1.0000
  H   H105      1.0  0.24673  0.21269  0.41389  1.0000
  H   H106      1.0  0.48064  0.10190  0.38544  1.0000
  H   H107      1.0  0.50371  0.14370  0.43545  1.0000
  C   C64       1.0  0.20049  0.18354  0.48268  1.0000
  H   H108      1.0  0.49891  0.19615  0.55996  1.0000
  H   H109      1.0  0.15174  0.27977  0.58917  1.0000
  Fe  Fe12      1.0  0.34076  0.51941  0.44333  1.0000
  H   H110      1.0  0.22088  0.33032  0.57812  1.0000
  C   C65       1.0  0.31212  0.23598  0.54527  1.0000
  C   C66       1.0  0.39091  0.06355  0.39945  1.0000
  C   C67       1.0  0.17709  0.28204  0.39234  1.0000
  H   H111      1.0  0.55519  0.22210  0.55964  1.0000
  N   N5        1.0  0.40500  0.07402  0.46457  1.0000
  H   H112      1.0  0.16108  0.29947  0.43004  1.0000
  H   H113      1.0  0.30245  0.12590  0.50457  1.0000
  H   H114      1.0  0.17256  0.15720  0.48914  1.0000
  H   H115      1.0  0.21175  0.48187  0.59561  1.0000
  S   S21       1.0  0.36110  0.45506  0.40042  1.0000
  S   S22       1.0  0.29747  0.48332  0.51577  1.0000
  C   C68       1.0  0.28479  0.27229  0.52186  1.0000
  H   H116      1.0  0.18865  0.41140  0.54269  1.0000
  C   C69       1.0  0.33040  0.12068  0.47204  1.0000
  H   H117      1.0  0.47403  0.28899  0.41106  1.0000
  H   H118      1.0  0.22965  0.17338  0.51471  1.0000
  H   H119      1.0  0.15285  0.48461  0.56875  1.0000
  H   H120      1.0  0.24778  0.27074  0.52751  1.0000
  S   S23       1.0  0.49544  0.44131  0.45310  1.0000
  H   H121      1.0  0.28629  0.31471  0.36962  1.0000
  H   H122      1.0  0.42142  0.05351  0.37388  1.0000
  S   S24       1.0  0.39434  0.19526  0.57583  1.0000
  H   H123      1.0  0.13880  0.40456  0.58633  1.0000
  H   H124      1.0  0.26348  0.40313  0.58442  1.0000
  H   H125      1.0  0.29602  0.20651  0.56843  1.0000
  S   S25       1.0  0.38339  0.41351  0.54113  1.0000
  H   H126      1.0  0.53283  0.34336  0.46026  1.0000
  C   C70       1.0  0.15073  0.15390  0.36154  1.0000
  H   H127      1.0  0.56539  0.29861  0.49816  1.0000
  H   H128      1.0  0.58830  0.11686  0.43560  1.0000
  H   H129      1.0  0.37760  0.09463  0.37348  1.0000
  H   H130      1.0  0.50583  0.08446  0.46010  1.0000
  H   H131      1.0  0.47901  0.06566  0.55916  1.0000
  S   S26       1.0  0.27247  0.35947  0.47265  1.0000
  H   H132      1.0  0.42016  0.14530  0.43724  1.0000
  Fe  Fe13      1.0  0.36318  0.48079  0.57411  1.0000
  H   H133      1.0  0.50815  0.24533  0.50966  1.0000
  H   H134      1.0  0.36942  0.34127  0.45935  1.0000
  C   C71       1.0  0.30569  0.31125  0.49356  1.0000
  C   C72       1.0  0.36334  0.08391  0.50123  1.0000
  H   H135      1.0  0.41858  0.29883  0.37444  1.0000
  H   H136      1.0  0.41779  0.27659  0.50058  1.0000
  H   H137      1.0  0.44348  0.12792  0.51044  1.0000
  C   C73       1.0  0.43680  0.11588  0.46328  1.0000
  C   C74       1.0  0.15108  0.23592  0.38175  1.0000
  H   H138      1.0  0.33427  0.24669  0.39627  1.0000
  H   H139      1.0  0.12620  0.09475  0.54238  1.0000
  C   C75       1.0  0.17009  0.45867  0.38310  1.0000
  H   H140      1.0  0.13937  0.33326  0.54998  1.0000
  H   H141      1.0  0.13247  0.54223  0.41468  1.0000
  H   H142      1.0  0.13080  0.14693  0.40399  1.0000
  H   H143      1.0  0.21394  0.27856  0.40667  1.0000
  C   C76       1.0  0.45582  0.29463  0.36567  1.0000
  C   C77       1.0  0.35353  0.31227  0.48429  1.0000
  H   H144      1.0  0.31353  0.11016  0.42845  1.0000
  H   H145      1.0  0.34821  0.15446  0.46383  1.0000
  S   S27       1.0  0.40415  0.52230  0.50529  1.0000
  C   C78       1.0  0.21771  0.18686  0.41621  1.0000
  H   H146      1.0  0.46432  0.46004  0.57337  1.0000
  C   C79       1.0  0.59698  0.48139  0.57253  1.0000
  H   H147      1.0  0.48275  0.33345  0.53955  1.0000
  C   C80       1.0  0.51911  0.33707  0.55793  1.0000
  C   C81       1.0  0.57378  0.46450  0.52050  1.0000
  C   C82       1.0  0.52555  0.45851  0.51953  1.0000
  C   C83       1.0  0.36017  0.23795  0.53902  1.0000
  H   H148      1.0  0.59303  0.45704  0.48082  1.0000
  C   C84       1.0  0.38080  0.27543  0.50677  1.0000
  H   H149      1.0  0.12916  0.22674  0.42188  1.0000
  H   H150      1.0  0.58115  0.35864  0.50672  1.0000
  C   C85       1.0  0.48425  0.11039  0.43430  1.0000
  Fe  Fe14      1.0  0.32162  0.41927  0.47693  1.0000
  C   C86       1.0  0.16893  0.40587  0.38031  1.0000
  C   C87       1.0  0.14986  0.31718  0.59559  1.0000
  H   H151      1.0  0.17203  0.12292  0.35772  1.0000
  N   N6        1.0  0.18089  0.19661  0.36657  1.0000
  H   H152      1.0  0.45821  0.52507  0.38492  1.0000
  H   H153      1.0  0.19961  0.39287  0.35818  1.0000
  H   H154      1.0  0.13692  0.39295  0.35693  1.0000
  C   C88       1.0  0.17679  0.46630  0.60232  1.0000
  H   H155      1.0  0.20783  0.54219  0.36174  1.0000
  C   C89       1.0  0.24670  0.52872  0.69744  1.0000
  Fe  Fe15      1.0  0.29167  0.21670  0.75192  1.0000
  H   H156      1.0  0.15541  0.28026  0.83412  1.0000
  H   H157      1.0  0.12599  0.34647  0.72703  1.0000
  N   N7        1.0  0.20227  0.38411  0.63578  1.0000
  C   C90       1.0  0.13534  0.38276  0.71382  1.0000
  C   C91       1.0  0.27131  0.48638  0.79116  1.0000
  H   H158      1.0  0.32310  0.38334  0.66489  1.0000
  H   H159      1.0  0.35879  0.38764  0.82186  1.0000
  H   H160      1.0  0.12271  0.32165  0.62910  1.0000
  H   H161      1.0  0.45404  0.54609  0.69456  1.0000
  C   C92       1.0  0.57190  0.49161  0.62373  1.0000
  Fe  Fe16      1.0  0.59150  0.09642  0.70998  1.0000
  C   C93       1.0  0.57808  0.29688  0.62808  1.0000
  H   H162      1.0  0.54654  0.42252  0.76785  1.0000
  C   C94       1.0  0.19814  0.33506  0.61717  1.0000
  C   C95       1.0  0.28812  0.36653  0.66627  1.0000
  S   S28       1.0  0.59853  0.51950  0.68491  1.0000
  C   C96       1.0  0.57945  0.24309  0.80572  1.0000
  Fe  Fe17      1.0  0.31684  0.11604  0.76031  1.0000
  H   H163      1.0  0.44311  0.35230  0.62410  1.0000
  H   H164      1.0  0.29044  0.33366  0.64327  1.0000
  C   C97       1.0  0.54662  0.21816  0.77162  1.0000
  C   C98       1.0  0.37192  0.35297  0.81613  1.0000
  H   H165      1.0  0.31912  0.29920  0.83141  1.0000
  H   H166      1.0  0.47690  0.19040  0.76674  1.0000
  C   C99       1.0  0.14717  0.26053  0.79436  1.0000
  S   S29       1.0  0.37632  0.48684  0.67496  1.0000
  H   H167      1.0  0.24720  0.05936  0.65023  1.0000
  C   C100      1.0  0.31550  0.48224  0.76778  1.0000
  H   H168      1.0  0.60133  0.34836  0.69319  1.0000
  H   H169      1.0  0.44643  0.35524  0.70576  1.0000
  C   C101      1.0  0.32430  0.49910  0.70795  1.0000
  C   C102      1.0  0.18755  0.38806  0.70106  1.0000
  H   H170      1.0  0.55552  0.20484  0.72854  1.0000
  H   H171      1.0  0.22042  0.54687  0.67028  1.0000
  C   C103      1.0  0.18240  0.24866  0.75614  1.0000
  H   H172      1.0  0.58184  0.48820  0.81668  1.0000
  C   C104      1.0  0.60739  0.33959  0.64522  1.0000
  H   H173      1.0  0.29766  0.53760  0.62764  1.0000
  C   C105      1.0  0.57147  0.38089  0.85062  1.0000
  S   S30       1.0  0.36400  0.23978  0.73119  1.0000
  H   H174      1.0  0.26371  0.47161  0.83651  1.0000
  C   C106      1.0  0.23660  0.50865  0.75533  1.0000
  C   C107      1.0  0.29041  0.52336  0.67327  1.0000
  C   C108      1.0  0.53426  0.40823  0.81275  1.0000
  C   C109      1.0  0.45524  0.33389  0.66731  1.0000
  H   H175      1.0  0.21080  0.31101  0.65502  1.0000
  S   S31       1.0  0.39195  0.13110  0.74143  1.0000
  H   H176      1.0  0.50504  0.48857  0.66469  1.0000
  H   H177      1.0  0.12749  0.40408  0.75276  1.0000
  N   N8        1.0  0.52727  0.30508  0.61401  1.0000
  H   H178      1.0  0.27060  0.36131  0.81848  1.0000
  H   H179      1.0  0.50448  0.38463  0.80263  1.0000
  S   S32       1.0  0.23899  0.26836  0.77094  1.0000
  C   C110      1.0  0.50208  0.20969  0.79344  1.0000
  C   C111      1.0  0.50808  0.32647  0.66926  1.0000
  H   H180      1.0  0.14233  0.07065  0.76095  1.0000
  H   H181      1.0  0.50391  0.23823  0.65088  1.0000
  H   H182      1.0  0.41007  0.35362  0.82538  1.0000
  H   H183      1.0  0.11729  0.19233  0.64990  1.0000
  S   S33       1.0  0.31346  0.16880  0.83042  1.0000
  H   H184      1.0  0.51665  0.30541  0.71236  1.0000
  C   C112      1.0  0.52434  0.48210  0.62453  1.0000
  Fe  Fe18      1.0  0.36392  0.18143  0.66860  1.0000
  H   H185      1.0  0.43562  0.30092  0.67398  1.0000
  S   S34       1.0  0.17994  0.50732  0.78104  1.0000
  H   H186      1.0  0.19904  0.21457  0.67479  1.0000
  H   H187      1.0  0.25860  0.43315  0.65233  1.0000
  H   H188      1.0  0.57875  0.35005  0.82489  1.0000
  H   H189      1.0  0.36463  0.34596  0.76713  1.0000
  C   C113      1.0  0.17184  0.22321  0.70475  1.0000
  H   H190      1.0  0.34220  0.46461  0.79518  1.0000
  H   H191      1.0  0.58227  0.27066  0.66676  1.0000
  Fe  Fe19      1.0  0.38616  0.18832  0.80555  1.0000
  H   H192      1.0  0.20487  0.36176  0.73223  1.0000
  C   C114      1.0  0.49084  0.22462  0.85068  1.0000
  C   C115      1.0  0.12479  0.07090  0.63899  1.0000
  C   C116      1.0  0.12562  0.21103  0.69040  1.0000
  C   C117      1.0  0.25275  0.39898  0.63290  1.0000
  H   H193      1.0  0.52021  0.43572  0.83954  1.0000
  H   H194      1.0  0.16488  0.47248  0.64893  1.0000
  H   H195      1.0  0.28028  0.35938  0.71513  1.0000
  S   S35       1.0  0.28904  0.16239  0.68320  1.0000
  H   H196      1.0  0.52417  0.36107  0.67562  1.0000
  H   H197      1.0  0.20018  0.42098  0.71990  1.0000
  S   S36       1.0  0.51856  0.06958  0.69823  1.0000
  C   C118      1.0  0.50200  0.25967  0.60695  1.0000
  H   H198      1.0  0.14700  0.09975  0.65594  1.0000
  H   H199      1.0  0.47160  0.54482  0.80810  1.0000
  Fe  Fe20      1.0  0.12934  0.54629  0.71989  1.0000
  H   H200      1.0  0.60055  0.36994  0.61349  1.0000
  H   H201      1.0  0.52153  0.53744  0.76468  1.0000
  H   H202      1.0  0.44784  0.04936  0.85457  1.0000
  H   H203      1.0  0.40880  0.99270  0.03384  1.0000
  H   H204      1.0  0.48515  0.87103  0.01668  1.0000
  C   C119      1.0  0.51477  0.00497  0.97581  1.0000
  H   H205      1.0  0.29720  0.66482  0.06498  1.0000
  C   C120      1.0  0.38471  0.00738  0.06351  1.0000
  C   C121      1.0  0.59297  0.83582  0.89603  1.0000
  H   H206      1.0  0.21669  0.69622  0.07527  1.0000
  H   H207      1.0  0.16754  0.62834  0.05037  1.0000
  C   C122      1.0  0.16574  0.03096  0.05002  1.0000
  H   H208      1.0  0.13211  0.56457  0.88403  1.0000
  H   H209      1.0  0.58072  0.97637  0.01163  1.0000
  H   H210      1.0  0.43312  0.91414  0.88703  1.0000
  C   C123      1.0  0.20276  0.04483  0.90898  1.0000
  C   C124      1.0  0.31646  0.69169  0.09014  1.0000
  C   C125      1.0  0.22894  0.00001  0.92559  1.0000
  H   H211      1.0  0.51042  0.73839  0.00027  1.0000
  S   S37       1.0  0.37278  0.59589  0.01089  1.0000
  H   H212      1.0  0.14961  0.70284  0.92437  1.0000
  C   C126      1.0  0.48413  0.73109  0.96352  1.0000
  Fe  Fe21      1.0  0.24228  0.80177  0.10276  1.0000
  H   H213      1.0  0.15491  0.76097  0.02840  1.0000
  H   H214      1.0  0.58831  0.76446  0.92641  1.0000
  C   C127      1.0  0.47671  0.84284  0.04895  1.0000
  Fe  Fe22      1.0  0.25951  0.90488  0.08510  1.0000
  H   H215      1.0  0.15596  0.76225  0.92577  1.0000
  H   H216      1.0  0.53310  0.70684  0.90289  1.0000
  H   H217      1.0  0.29307  0.59630  0.92954  1.0000
  S   S38       1.0  0.50362  0.60497  0.05613  1.0000
  Fe  Fe23      1.0  0.44124  0.56298  0.02864  1.0000
  C   C128      1.0  0.50544  0.73271  0.89938  1.0000
  H   H218      1.0  0.19376  0.03888  0.08415  1.0000
  H   H219      1.0  0.61081  0.61903  0.10406  1.0000
  Fe  Fe24      1.0  0.21975  0.85083  0.97877  1.0000
  H   H220      1.0  0.47912  0.71900  0.86625  1.0000
  H   H221      1.0  0.16706  0.03505  0.89264  1.0000
  S   S39       1.0  0.26166  0.78855  0.00616  1.0000
  C   C129      1.0  0.58596  0.00329  0.86997  1.0000
  H   H222      1.0  0.41031  0.96771  0.90514  1.0000
  H   H223      1.0  0.53169  0.03604  0.99448  1.0000
  H   H224      1.0  0.43488  0.03753  0.93315  1.0000
  H   H225      1.0  0.15441  0.91960  0.98421  1.0000
  C   C130      1.0  0.29320  0.56387  0.95624  1.0000
  H   H226      1.0  0.26546  0.00334  0.91102  1.0000
  C   C131      1.0  0.48769  0.81494  0.87483  1.0000
  H   H227      1.0  0.22797  0.98778  0.97428  1.0000
  H   H228      1.0  0.60541  0.00011  0.91462  1.0000
  C   C132      1.0  0.13083  0.92497  0.94520  1.0000
  S   S40       1.0  0.39284  0.83946  0.98837  1.0000
  H   H229      1.0  0.37860  0.65402  0.10511  1.0000
  Fe  Fe25      1.0  0.32027  0.83923  0.02182  1.0000
  C   C133      1.0  0.32890  0.55442  0.99969  1.0000
  H   H230      1.0  0.21331  0.97215  0.89831  1.0000
  H   H231      1.0  0.57884  0.66647  0.01342  1.0000
  H   H232      1.0  0.42219  0.77371  0.86882  1.0000
  H   H233      1.0  0.48307  0.00041  0.00316  1.0000
  C   C134      1.0  0.13239  0.73518  0.90749  1.0000
  H   H234      1.0  0.17060  0.99699  0.03163  1.0000
  H   H235      1.0  0.51035  0.94412  0.87630  1.0000
  C   C135      1.0  0.60766  0.67737  0.98539  1.0000
  H   H236      1.0  0.33864  0.94873  0.06270  1.0000
  S   S41       1.0  0.19591  0.86026  0.07418  1.0000
  C   C136      1.0  0.54621  0.96382  0.99464  1.0000
  H   H237      1.0  0.53081  0.94285  0.03316  1.0000
  C   C137      1.0  0.43261  0.82205  0.04681  1.0000
  H   H238      1.0  0.33299  0.71450  0.05426  1.0000
  H   H239      1.0  0.13322  0.02823  0.07599  1.0000
  H   H240      1.0  0.55212  0.94009  0.95821  1.0000
  C   C138      1.0  0.54282  0.03325  0.87321  1.0000
  S   S42       1.0  0.27945  0.90006  0.98746  1.0000
  C   C139      1.0  0.56392  0.79316  0.91854  1.0000
  H   H241      1.0  0.44902  0.93688  0.95932  1.0000
  C   C140      1.0  0.13481  0.89940  0.89326  1.0000
  C   C141      1.0  0.34444  0.98253  0.07934  1.0000
  H   H242      1.0  0.48048  0.82464  0.92210  1.0000
  H   H243      1.0  0.55110  0.80022  0.96465  1.0000
  H   H244      1.0  0.45483  0.75467  0.96555  1.0000
  C   C142      1.0  0.44175  0.94646  0.91006  1.0000
  C   C143      1.0  0.48382  0.97051  0.87904  1.0000
  C   C144      1.0  0.16217  0.64578  0.09205  1.0000
  Fe  Fe26      1.0  0.53801  0.57377  0.97867  1.0000
  H   H245      1.0  0.47008  0.69583  0.97435  1.0000
  S   S43       1.0  0.57788  0.61239  0.90519  1.0000
  N   N9        1.0  0.52444  0.77886  0.87613  1.0000
  S   S44       1.0  0.17678  0.85702  0.89113  1.0000
  N   N10       1.0  0.50222  0.01328  0.90838  1.0000
  C   C145      1.0  0.11757  0.76225  0.03837  1.0000
  C   C146      1.0  0.50980  0.82752  0.09332  1.0000
  H   H246      1.0  0.54268  0.84538  0.09681  1.0000
  H   H247      1.0  0.12376  0.55692  0.96453  1.0000
  C   C147      1.0  0.42137  0.78644  0.08973  1.0000
  H   H248      1.0  0.38702  0.77100  0.08846  1.0000
  H   H249      1.0  0.11424  0.75267  0.08807  1.0000
  H   H250      1.0  0.60423  0.85559  0.93628  1.0000
  H   H251      1.0  0.25373  0.04780  0.02070  1.0000
  C   C148      1.0  0.46369  0.04781  0.90213  1.0000
  C   C149      1.0  0.19018  0.68402  0.10633  1.0000
  H   H252      1.0  0.57439  0.85993  0.86333  1.0000
  H   H253      1.0  0.44470  0.58650  0.22106  1.0000
  H   H254      1.0  0.54104  0.59465  0.33045  1.0000
  H   H255      1.0  0.51800  0.69739  0.31908  1.0000
  S   S45       1.0  0.21800  0.75396  0.18013  1.0000
  H   H256      1.0  0.14288  0.70800  0.24149  1.0000
  H   H257      1.0  0.48433  0.98715  0.12437  1.0000
  H   H258      1.0  0.56179  0.89277  0.30560  1.0000
  C   C150      1.0  0.47698  0.95167  0.14341  1.0000
  C   C151      1.0  0.40302  0.83310  0.24032  1.0000
  H   H259      1.0  0.48817  0.65296  0.27624  1.0000
  N   N11       1.0  0.45216  0.90881  0.24429  1.0000
  C   C152      1.0  0.12565  0.63165  0.12993  1.0000
  C   C153      1.0  0.14702  0.93559  0.23507  1.0000
  H   H260      1.0  0.29795  0.64163  0.26833  1.0000
  H   H261      1.0  0.29243  0.71284  0.11439  1.0000
  H   H262      1.0  0.47839  0.55190  0.31359  1.0000
  C   C154      1.0  0.18329  0.70647  0.16031  1.0000
  H   H263      1.0  0.33283  0.58209  0.12726  1.0000
  C   C155      1.0  0.45525  0.76988  0.13269  1.0000
  H   H264      1.0  0.37980  0.83752  0.27900  1.0000
  H   H265      1.0  0.17574  0.94527  0.20382  1.0000
  S   S46       1.0  0.30451  0.84737  0.12045  1.0000
  C   C156      1.0  0.49980  0.78993  0.13373  1.0000
  C   C157      1.0  0.52051  0.66267  0.30156  1.0000
  H   H266      1.0  0.43319  0.81222  0.25627  1.0000
  H   H267      1.0  0.43829  0.62571  0.34465  1.0000
  C   C158      1.0  0.57092  0.02744  0.20450  1.0000
  H   H268      1.0  0.38275  0.81280  0.20668  1.0000
  C   C159      1.0  0.11700  0.89732  0.20629  1.0000
  H   H269      1.0  0.39644  0.93189  0.29814  1.0000
  H   H270      1.0  0.42604  0.88336  0.33227  1.0000
  H   H271      1.0  0.38530  0.89904  0.19696  1.0000
  C   C160      1.0  0.11870  0.65417  0.18372  1.0000
  H   H272      1.0  0.37148  0.61111  0.27103  1.0000
  C   C161      1.0  0.49707  0.88324  0.25256  1.0000
  H   H273      1.0  0.50993  0.93290  0.14426  1.0000
  H   H274      1.0  0.50437  0.86586  0.20991  1.0000
  H   H275      1.0  0.45152  0.93592  0.11109  1.0000
  C   C162      1.0  0.45739  0.95423  0.20808  1.0000
  C   C163      1.0  0.41769  0.87976  0.20866  1.0000
  H   H276      1.0  0.46708  0.98185  0.32975  1.0000
  C   C164      1.0  0.59244  0.00739  0.15648  1.0000
  C   C165      1.0  0.45964  0.94671  0.34950  1.0000
  H   H277      1.0  0.29973  0.72240  0.28298  1.0000
  C   C166      1.0  0.14815  0.69088  0.19956  1.0000
  H   H278      1.0  0.42325  0.97147  0.20228  1.0000
  H   H279      1.0  0.55188  0.79080  0.32961  1.0000
  H   H280      1.0  0.32645  0.73714  0.21199  1.0000
  C   C167      1.0  0.43139  0.91653  0.30540  1.0000
  H   H281      1.0  0.61314  0.73297  0.34274  1.0000
  H   H282      1.0  0.54829  0.66515  0.26729  1.0000
  H   H283      1.0  0.34594  0.02124  0.34248  1.0000
  H   H284      1.0  0.35880  0.70715  0.27439  1.0000
  C   C168      1.0  0.45273  0.55370  0.34996  1.0000
  N   N12       1.0  0.33841  0.63980  0.18657  1.0000
  C   C169      1.0  0.38081  0.62492  0.22434  1.0000
  H   H285      1.0  0.57665  0.00968  0.11076  1.0000
  H   H286      1.0  0.31736  0.55876  0.25101  1.0000
  H   H287      1.0  0.44729  0.74140  0.16480  1.0000
  S   S47       1.0  0.54254  0.76791  0.18566  1.0000
  S   S48       1.0  0.26055  0.97090  0.13300  1.0000
  H   H288      1.0  0.16363  0.92335  0.27952  1.0000
  H   H289      1.0  0.39387  0.55425  0.19904  1.0000
  H   H290      1.0  0.53600  0.94624  0.28392  1.0000
  C   C170      1.0  0.30635  0.66388  0.22673  1.0000
  C   C171      1.0  0.59189  0.02668  0.26334  1.0000
  H   H291      1.0  0.14062  0.86762  0.20489  1.0000
  C   C172      1.0  0.54155  0.91159  0.26827  1.0000
  H   H292      1.0  0.49394  0.85490  0.28854  1.0000
  H   H293      1.0  0.43176  0.87139  0.16387  1.0000
  H   H294      1.0  0.12801  0.96736  0.24097  1.0000
  H   H295      1.0  0.56440  0.91467  0.22820  1.0000
  H   H296      1.0  0.47992  0.97902  0.23241  1.0000
  C   C173      1.0  0.32460  0.71020  0.24993  1.0000
  H   H297      1.0  0.40419  0.65500  0.23294  1.0000
  C   C174      1.0  0.29454  0.56262  0.20931  1.0000
  H   H298      1.0  0.25927  0.57105  0.22359  1.0000
  H   H299      1.0  0.27227  0.67000  0.20260  1.0000
  H   H300      1.0  0.41850  0.59788  0.14710  1.0000
  H   H301      1.0  0.18064  0.55682  0.28956  1.0000
  H   H302      1.0  0.37553  0.70070  0.15148  1.0000
  C   C175      1.0  0.31220  0.00129  0.11665  1.0000
  C   C176      1.0  0.41075  0.58888  0.19576  1.0000
  C   C177      1.0  0.35455  0.67149  0.13409  1.0000
  H   H303      1.0  0.28086  0.61054  0.13418  1.0000
  C   C178      1.0  0.31237  0.59924  0.16122  1.0000
  C   C179      1.0  0.32112  0.04455  0.13990  1.0000
  H   H304      1.0  0.53783  0.04336  0.19580  1.0000
  C   C180      1.0  0.53415  0.62672  0.35300  1.0000
  S   S49       1.0  0.55088  0.54962  0.21033  1.0000
  H   H305      1.0  0.45659  0.02115  0.46484  1.0000
  H   H306      1.0  0.29674  0.62958  0.59587  1.0000
  H   H307      1.0  0.32132  0.03131  0.41430  1.0000
  C   C181      1.0  0.33242  0.70137  0.47738  1.0000
  H   H308      1.0  0.42847  0.59788  0.41710  1.0000
  H   H309      1.0  0.26066  0.02038  0.55379  1.0000
  H   H310      1.0  0.46150  0.60814  0.59161  1.0000
  C   C182      1.0  0.35431  0.02450  0.39225  1.0000
  C   C183      1.0  0.55303  0.77429  0.48549  1.0000
  C   C184      1.0  0.42900  0.03277  0.49446  1.0000
  H   H311      1.0  0.24316  0.82399  0.52102  1.0000
  C   C185      1.0  0.57735  0.90352  0.56105  1.0000
  H   H312      1.0  0.41131  0.63629  0.56008  1.0000
  H   H313      1.0  0.53677  0.78603  0.52529  1.0000
  C   C186      1.0  0.55605  0.97294  0.45370  1.0000
  H   H314      1.0  0.27153  0.86259  0.57153  1.0000
  H   H315      1.0  0.59810  0.72788  0.53859  1.0000
  H   H316      1.0  0.34418  0.73629  0.46755  1.0000
  H   H317      1.0  0.57303  0.96222  0.41205  1.0000
  H   H318      1.0  0.48857  0.65157  0.48841  1.0000
  H   H319      1.0  0.49380  0.57052  0.48357  1.0000
  N   N13       1.0  0.50019  0.61773  0.40369  1.0000
  H   H320      1.0  0.45885  0.72520  0.44245  1.0000
  H   H321      1.0  0.14466  0.59477  0.37207  1.0000
  H   H322      1.0  0.55605  0.92131  0.59383  1.0000
  H   H323      1.0  0.40432  0.00307  0.49984  1.0000
  H   H324      1.0  0.56552  0.62633  0.50311  1.0000
  H   H325      1.0  0.36736  0.99082  0.41050  1.0000
  H   H326      1.0  0.52683  0.94935  0.46628  1.0000
  S   S50       1.0  0.49253  0.82919  0.41513  1.0000
  H   H327      1.0  0.45366  0.70220  0.36818  1.0000
  H   H328      1.0  0.43927  0.95040  0.39119  1.0000
  C   C187      1.0  0.59147  0.97897  0.50717  1.0000
  H   H329      1.0  0.55207  0.89207  0.52549  1.0000
  H   H330      1.0  0.58065  0.88629  0.43714  1.0000
  C   C188      1.0  0.27971  0.01023  0.59582  1.0000
  Fe  Fe27      1.0  0.37051  0.88859  0.54855  1.0000
  C   C189      1.0  0.53909  0.79138  0.42650  1.0000
  H   H331      1.0  0.49196  0.92958  0.36589  1.0000
  C   C190      1.0  0.51948  0.58060  0.44791  1.0000
  C   C191      1.0  0.25223  0.82933  0.57011  1.0000
  H   H332      1.0  0.18712  0.79724  0.59763  1.0000
  H   H333      1.0  0.56836  0.63866  0.37199  1.0000
  S   S51       1.0  0.44805  0.89555  0.54949  1.0000
  H   H334      1.0  0.29262  0.57556  0.51309  1.0000
  C   C192      1.0  0.30393  0.61037  0.50279  1.0000
  C   C193      1.0  0.49463  0.66051  0.43889  1.0000
  C   C194      1.0  0.31240  0.97549  0.59584  1.0000
  H   H335      1.0  0.27511  0.80103  0.58637  1.0000
  C   C195      1.0  0.31640  0.62467  0.44320  1.0000
  H   H336      1.0  0.52704  0.68160  0.43854  1.0000
  S   S52       1.0  0.32999  0.72219  0.59878  1.0000
  C   C196      1.0  0.30598  0.64118  0.54970  1.0000
  C   C197      1.0  0.60926  0.72593  0.44149  1.0000
  C   C198      1.0  0.58821  0.74168  0.49308  1.0000
  C   C199      1.0  0.32897  0.67066  0.42991  1.0000
  H   H337      1.0  0.18655  0.85760  0.58380  1.0000
  H   H338      1.0  0.59520  0.59137  0.45120  1.0000
  C   C200      1.0  0.56552  0.59262  0.48207  1.0000
  H   H339      1.0  0.46683  0.00622  0.57589  1.0000
  C   C201      1.0  0.45093  0.03905  0.55901  1.0000
  S   S53       1.0  0.36853  0.82962  0.48678  1.0000
  H   H340      1.0  0.57171  0.56651  0.52024  1.0000
  Fe  Fe28      1.0  0.44637  0.83255  0.49535  1.0000
  Fe  Fe29      1.0  0.37242  0.78511  0.57409  1.0000
  S   S54       1.0  0.44983  0.78305  0.57758  1.0000
  C   C202      1.0  0.32157  0.68633  0.53749  1.0000
  H   H341      1.0  0.42115  0.67703  0.43128  1.0000
  H   H342      1.0  0.54078  0.00683  0.44054  1.0000
  C   C203      1.0  0.56195  0.77741  0.37538  1.0000
  S   S55       1.0  0.32254  0.94777  0.52840  1.0000
  C   C204      1.0  0.59539  0.85935  0.59518  1.0000
  C   C205      1.0  0.45481  0.69280  0.41804  1.0000
  H   H343      1.0  0.33847  0.68197  0.38390  1.0000
  S   S56       1.0  0.32169  0.58378  0.38802  1.0000
  C   C206      1.0  0.13617  0.55772  0.36736  1.0000
  C   C207      1.0  0.59679  0.74466  0.38284  1.0000
  H   H344      1.0  0.57365  0.99683  0.54343  1.0000
  C   C208      1.0  0.45363  0.60076  0.37934  1.0000
  C   C209      1.0  0.43484  0.63322  0.60153  1.0000
  H   H345      1.0  0.42471  0.04743  0.59244  1.0000
  H   H346      1.0  0.52632  0.54879  0.42405  1.0000
  C   C210      1.0  0.20736  0.82942  0.60641  1.0000
  H   H347      1.0  0.58970  0.74264  0.75495  1.0000
  C   C211      1.0  0.46869  0.98909  0.70222  1.0000
  H   H348      1.0  0.16860  0.72460  0.82381  1.0000
  Fe  Fe30      1.0  0.44683  0.84567  0.63153  1.0000
  H   H349      1.0  0.51379  0.59156  0.79621  1.0000
  H   H350      1.0  0.43027  0.92497  0.69916  1.0000
  S   S57       1.0  0.49717  0.85497  0.70978  1.0000
  H   H351      1.0  0.45095  0.66767  0.60743  1.0000
  H   H352      1.0  0.35071  0.65388  0.76695  1.0000
  C   C212      1.0  0.49501  0.56265  0.77476  1.0000
  H   H353      1.0  0.56948  0.70491  0.81563  1.0000
  N   N14       1.0  0.21369  0.83570  0.67446  1.0000
  H   H354      1.0  0.21629  0.90961  0.65385  1.0000
  C   C213      1.0  0.54089  0.77487  0.81172  1.0000
  C   C214      1.0  0.54645  0.93451  0.72600  1.0000
  C   C215      1.0  0.33715  0.96283  0.64998  1.0000
  H   H355      1.0  0.26069  0.72761  0.71582  1.0000
  C   C216      1.0  0.12182  0.04004  0.74616  1.0000
  C   C217      1.0  0.15591  0.00065  0.74245  1.0000
  H   H356      1.0  0.17631  0.99692  0.78659  1.0000
  H   H357      1.0  0.49654  0.59032  0.68195  1.0000
  H   H358      1.0  0.24714  0.80300  0.75558  1.0000
  N   N15       1.0  0.43215  0.61325  0.71857  1.0000
  H   H359      1.0  0.20009  0.90359  0.76690  1.0000
  H   H360      1.0  0.37633  0.64001  0.65743  1.0000
  H   H361      1.0  0.61208  0.75039  0.83064  1.0000
  C   C218      1.0  0.51267  0.00980  0.70831  1.0000
  C   C219      1.0  0.46916  0.57784  0.71401  1.0000
  H   H362      1.0  0.47329  0.97878  0.83012  1.0000
  H   H363      1.0  0.44746  0.73172  0.71954  1.0000
  H   H364      1.0  0.57827  0.96906  0.85221  1.0000
  H   H365      1.0  0.12205  0.97554  0.63204  1.0000
  H   H366      1.0  0.57663  0.91341  0.73440  1.0000
  H   H367      1.0  0.28209  0.80688  0.69044  1.0000
  H   H368      1.0  0.12043  0.86109  0.63078  1.0000
  C   C220      1.0  0.40606  0.61677  0.65726  1.0000
  C   C221      1.0  0.23451  0.88296  0.68362  1.0000
  H   H369      1.0  0.53132  0.04319  0.82521  1.0000
  H   H370      1.0  0.25438  0.87492  0.78292  1.0000
  C   C222      1.0  0.55136  0.98248  0.72175  1.0000
  C   C223      1.0  0.44058  0.80235  0.84356  1.0000
  H   H371      1.0  0.41580  0.60231  0.81509  1.0000
  H   H372      1.0  0.18143  0.00704  0.70599  1.0000
  C   C224      1.0  0.39996  0.59625  0.76877  1.0000
  H   H373      1.0  0.23193  0.74233  0.64428  1.0000
  H   H374      1.0  0.34834  0.97388  0.74641  1.0000
  H   H375      1.0  0.41271  0.70562  0.78006  1.0000
  H   H376      1.0  0.47270  0.65455  0.78107  1.0000
  S   S58       1.0  0.13677  0.58545  0.62850  1.0000
  C   C225      1.0  0.23329  0.74967  0.69368  1.0000
  C   C226      1.0  0.16709  0.82999  0.70339  1.0000
  C   C227      1.0  0.13025  0.86474  0.67990  1.0000
  H   H377      1.0  0.32947  0.60418  0.72743  1.0000
  H   H378      1.0  0.41770  0.83249  0.84347  1.0000
  H   H379      1.0  0.25346  0.93272  0.75175  1.0000
  H   H380      1.0  0.13692  0.96763  0.73728  1.0000
  H   H381      1.0  0.33271  0.60268  0.80907  1.0000
  H   H382      1.0  0.44396  0.79421  0.79498  1.0000
  C   C228      1.0  0.46395  0.94118  0.70515  1.0000
  H   H383      1.0  0.61035  0.02084  0.83746  1.0000
  H   H384      1.0  0.43836  0.01003  0.69411  1.0000
  H   H385      1.0  0.20019  0.73846  0.71472  1.0000
  C   C229      1.0  0.32895  0.98393  0.70456  1.0000
  H   H386      1.0  0.39677  0.70120  0.69992  1.0000
  H   H387      1.0  0.56537  0.83641  0.60723  1.0000
  S   S59       1.0  0.28653  0.04501  0.77305  1.0000
  H   H388      1.0  0.13644  0.77718  0.82129  1.0000
  H   H389      1.0  0.58508  0.99811  0.72844  1.0000
  H   H390      1.0  0.14173  0.90046  0.68703  1.0000
  H   H391      1.0  0.36293  0.93698  0.64953  1.0000
  C   C230      1.0  0.45615  0.65785  0.73420  1.0000
  H   H392      1.0  0.14984  0.04512  0.62649  1.0000
  H   H393      1.0  0.38983  0.58291  0.64689  1.0000
  C   C231      1.0  0.58019  0.74104  0.80405  1.0000
  H   H394      1.0  0.17060  0.83134  0.75424  1.0000
  C   C232      1.0  0.35074  0.61601  0.76718  1.0000
  S   S60       1.0  0.36958  0.84365  0.63573  1.0000
  H   H395      1.0  0.39438  0.55829  0.76786  1.0000
  C   C233      1.0  0.24578  0.80044  0.70478  1.0000
  H   H396      1.0  0.27112  0.88497  0.66893  1.0000
  H   H397      1.0  0.48607  0.66603  0.70413  1.0000
  C   C234      1.0  0.29626  0.01848  0.70479  1.0000
  H   H398      1.0  0.49982  0.84733  0.85049  1.0000
  H   H399      1.0  0.55355  0.80863  0.79218  1.0000
  H   H400      1.0  0.51194  0.76414  0.78047  1.0000
  H   H401      1.0  0.15163  0.79557  0.69542  1.0000
  C   C235      1.0  0.13605  0.74043  0.83713  1.0000
  C   C236      1.0  0.27200  0.03212  0.65025  1.0000
  C   C237      1.0  0.42610  0.70096  0.73368  1.0000
  C   C238      1.0  0.23538  0.89878  0.75020  1.0000
  C   C239      1.0  0.50284  0.91406  0.71573  1.0000
  H   H402      1.0  0.66736  0.22662  0.95163  1.0000
  H   H403      1.0  0.94513  0.26688  0.07517  1.0000
  H   H404      1.0  0.90801  0.21451  0.90002  1.0000
  C   C240      1.0  0.64615  0.37347  0.90572  1.0000
  C   C241      1.0  0.84101  0.51582  0.99814  1.0000
  H   H405      1.0  0.62185  0.51862  0.86561  1.0000
  S   S61       1.0  0.74435  0.39500  0.04794  1.0000
  H   H406      1.0  0.95662  0.50283  0.98612  1.0000
  C   C242      1.0  0.05095  0.50194  0.01236  1.0000
  H   H407      1.0  0.72578  0.54061  0.98186  1.0000
  H   H408      1.0  0.77509  0.10152  0.00021  1.0000
  N   N16       1.0  0.68901  0.14702  0.03643  1.0000
  H   H409      1.0  0.66680  0.51864  0.98825  1.0000
  C   C243      1.0  0.68462  0.19012  0.07116  1.0000
  H   H410      1.0  0.63927  0.45683  0.92976  1.0000
  H   H411      1.0  0.64900  0.04852  0.02569  1.0000
  C   C244      1.0  0.10710  0.15869  0.10360  1.0000
  H   H412      1.0  0.72721  0.06035  0.00591  1.0000
  H   H413      1.0  0.00465  0.44376  0.04378  1.0000
  S   S62       1.0  0.88414  0.14539  0.01626  1.0000
  H   H414      1.0  0.75283  0.13876  0.09065  1.0000
  H   H415      1.0  0.94732  0.37068  0.07356  1.0000
  C   C245      1.0  0.03045  0.46845  0.06227  1.0000
  H   H416      1.0  0.03293  0.53530  0.01228  1.0000
  C   C246      1.0  0.96528  0.50421  0.93681  1.0000
  C   C247      1.0  0.62735  0.35730  0.96920  1.0000
  H   H417      1.0  0.93322  0.49402  0.91073  1.0000
  C   C248      1.0  0.07109  0.52210  0.90577  1.0000
  S   S63       1.0  0.04146  0.34456  0.08257  1.0000
  C   C249      1.0  0.84610  0.49252  0.05566  1.0000
  C   C250      1.0  0.67107  0.19232  0.93302  1.0000
  H   H418      1.0  0.75438  0.44999  0.93581  1.0000
  H   H419      1.0  0.77232  0.06063  0.06390  1.0000
  H   H420      1.0  0.62062  0.38644  0.99799  1.0000
  C   C251      1.0  0.78427  0.43888  0.02713  1.0000
  H   H421      1.0  0.97388  0.54019  0.92147  1.0000
  H   H422      1.0  0.87142  0.50447  0.08928  1.0000
  C   C252      1.0  0.80888  0.49969  0.95433  1.0000
  H   H423      1.0  0.85395  0.15272  0.87985  1.0000
  N   N17       1.0  0.05214  0.48437  0.94875  1.0000
  H   H424      1.0  0.63279  0.11080  0.08283  1.0000
  H   H425      1.0  0.99323  0.43619  0.94368  1.0000
  C   C253      1.0  0.64236  0.12269  0.03538  1.0000
  H   H426      1.0  0.65630  0.08242  0.95422  1.0000
  H   H427      1.0  0.07032  0.16325  0.09490  1.0000
  C   C254      1.0  0.82082  0.04995  0.86044  1.0000
  H   H428      1.0  0.73877  0.18074  0.97595  1.0000
  C   C255      1.0  0.78023  0.46146  0.96899  1.0000
  C   C256      1.0  0.72497  0.11709  0.06997  1.0000
  C   C257      1.0  0.00428  0.47086  0.92474  1.0000
  C   C258      1.0  0.75077  0.08310  0.03208  1.0000
  H   H429      1.0  0.83191  0.22566  0.03151  1.0000
  H   H430      1.0  0.71672  0.21201  0.06729  1.0000
  Fe  Fe31      1.0  0.93524  0.09051  0.04391  1.0000
  C   C259      1.0  0.09352  0.42414  0.88915  1.0000
  C   C260      1.0  0.70476  0.16181  0.97278  1.0000
  H   H431      1.0  0.63649  0.17551  0.92655  1.0000
  C   C261      1.0  0.83010  0.20391  0.07334  1.0000
  H   H432      1.0  0.96221  0.27752  0.87222  1.0000
  H   H433      1.0  0.08670  0.51017  0.02980  1.0000
  H   H434      1.0  0.96502  0.15986  0.90284  1.0000
  C   C262      1.0  0.94744  0.13347  0.87509  1.0000
  H   H435      1.0  0.65322  0.34215  0.88067  1.0000
  H   H436      1.0  0.97303  0.10625  0.86947  1.0000
  S   S64       1.0  0.00967  0.09990  0.01801  1.0000
  H   H437      1.0  0.06996  0.51157  0.85736  1.0000
  H   H438      1.0  0.06595  0.41390  0.97936  1.0000
  H   H439      1.0  0.71072  0.48970  0.06854  1.0000
  H   H440      1.0  0.05843  0.44867  0.08714  1.0000
  C   C263      1.0  0.85220  0.16167  0.07782  1.0000
  H   H441      1.0  0.68536  0.19843  0.88646  1.0000
  H   H442      1.0  0.65417  0.33639  0.99482  1.0000
  C   C264      1.0  0.08237  0.44281  0.95170  1.0000
  H   H443      1.0  0.71168  0.13217  0.94504  1.0000
  H   H444      1.0  0.91876  0.11713  0.90133  1.0000
  H   H445      1.0  0.06170  0.41612  0.86150  1.0000
  H   H446      1.0  0.00409  0.46756  0.87402  1.0000
  H   H447      1.0  0.68069  0.38950  0.91636  1.0000
  H   H448      1.0  0.65593  0.21168  0.05117  1.0000
  C   C265      1.0  0.81805  0.45368  0.06982  1.0000
  H   H449      1.0  0.82061  0.05748  0.90852  1.0000
  H   H450      1.0  0.80532  0.51745  0.90953  1.0000
  C   C266      1.0  0.63771  0.07959  0.99778  1.0000
  N   N18       1.0  0.61622  0.40620  0.86625  1.0000
  H   H451      1.0  0.94597  0.20668  0.09457  1.0000
  H   H452      1.0  0.01199  0.48805  0.09586  1.0000
  S   S65       1.0  0.72607  0.05614  0.85922  1.0000
  H   H453      1.0  0.11291  0.39179  0.89731  1.0000
  H   H454      1.0  0.61389  0.14641  0.02042  1.0000
  H   H455      1.0  0.81152  0.22488  0.86344  1.0000
  S   S66       1.0  0.95285  0.06257  0.13979  1.0000
  H   H456      1.0  0.01162  0.23076  0.30093  1.0000
  C   C267      1.0  0.92264  0.22244  0.27819  1.0000
  C   C268      1.0  0.93895  0.25015  0.17309  1.0000
  H   H457      1.0  0.69048  0.09774  0.34503  1.0000
  C   C269      1.0  0.00555  0.36474  0.13794  1.0000
  H   H458      1.0  0.70951  0.09673  0.10934  1.0000
  H   H459      1.0  0.64929  0.41357  0.21215  1.0000
  H   H460      1.0  0.70981  0.52376  0.31766  1.0000
  C   C270      1.0  0.66633  0.23221  0.32378  1.0000
  C   C271      1.0  0.98156  0.14054  0.26659  1.0000
  H   H461      1.0  0.70235  0.16308  0.16630  1.0000
  H   H462      1.0  0.67660  0.14186  0.28566  1.0000
  S   S67       1.0  0.78920  0.32986  0.31393  1.0000
  H   H463      1.0  0.99655  0.24263  0.10922  1.0000
  H   H464      1.0  0.82371  0.12647  0.22376  1.0000
  H   H465      1.0  0.89348  0.39551  0.15007  1.0000
  C   C272      1.0  0.80512  0.19125  0.17818  1.0000
  C   C273      1.0  0.98995  0.38238  0.24276  1.0000
  H   H466      1.0  0.89111  0.29036  0.25748  1.0000
  H   H467      1.0  0.08830  0.18096  0.31341  1.0000
  H   H468      1.0  0.70081  0.24843  0.31392  1.0000
  Fe  Fe32      1.0  0.75953  0.37210  0.14631  1.0000
  S   S68       1.0  0.77250  0.42084  0.22175  1.0000
  C   C274      1.0  0.63106  0.27110  0.32624  1.0000
  C   C275      1.0  0.04577  0.24287  0.21429  1.0000
  H   H469      1.0  0.79181  0.52926  0.26348  1.0000
  C   C276      1.0  0.96410  0.17327  0.21320  1.0000
  S   S69       1.0  0.71098  0.32568  0.20035  1.0000
  Fe  Fe33      1.0  0.02645  0.06624  0.11094  1.0000
  H   H470      1.0  0.90070  0.24435  0.16769  1.0000
  H   H471      1.0  0.93058  0.15869  0.19541  1.0000
  H   H472      1.0  0.08072  0.49444  0.20705  1.0000
  Fe  Fe34      1.0  0.83197  0.37569  0.25097  1.0000
  C   C277      1.0  0.70132  0.13160  0.32360  1.0000
  H   H473      1.0  0.09573  0.12092  0.30844  1.0000
  H   H474      1.0  0.74834  0.50188  0.13392  1.0000
  H   H475      1.0  0.89051  0.20314  0.26404  1.0000
  C   C278      1.0  0.71180  0.49977  0.11651  1.0000
  C   C279      1.0  0.80647  0.21861  0.12346  1.0000
  H   H476      1.0  0.78887  0.25094  0.11937  1.0000
  C   C280      1.0  0.82550  0.14810  0.18184  1.0000
  H   H477      1.0  0.07722  0.24700  0.24439  1.0000
  H   H478      1.0  0.00134  0.38433  0.29032  1.0000
  Fe  Fe35      1.0  0.77477  0.28779  0.23230  1.0000
  H   H479      1.0  0.05692  0.36279  0.21223  1.0000
  H   H480      1.0  0.63392  0.29412  0.28411  1.0000
  H   H481      1.0  0.98831  0.17025  0.17528  1.0000
  H   H482      1.0  0.04627  0.27139  0.17850  1.0000
  C   C281      1.0  0.00236  0.24442  0.25341  1.0000
  H   H483      1.0  0.11180  0.54255  0.23605  1.0000
  H   H484      1.0  0.93579  0.20447  0.32150  1.0000
  H   H485      1.0  0.94384  0.28756  0.17923  1.0000
  H   H486      1.0  0.99730  0.28154  0.25959  1.0000
  C   C282      1.0  0.90743  0.27011  0.29652  1.0000
  H   H487      1.0  0.82225  0.43561  0.11407  1.0000
  H   H488      1.0  0.73495  0.12572  0.30227  1.0000
  H   H489      1.0  0.95468  0.13309  0.30121  1.0000
  N   N19       1.0  0.95810  0.22253  0.22869  1.0000
  H   H490      1.0  0.99057  0.10714  0.24863  1.0000
  S   S70       1.0  0.67699  0.39651  0.34111  1.0000
  H   H491      1.0  0.61387  0.15676  0.34198  1.0000
  C   C283      1.0  0.94339  0.39031  0.22561  1.0000
  C   C284      1.0  0.84892  0.13323  0.13148  1.0000
  H   H492      1.0  0.01345  0.15407  0.28910  1.0000
  S   S71       1.0  0.08339  0.08393  0.17836  1.0000
  S   S72       1.0  0.90291  0.40095  0.28119  1.0000
  Fe  Fe36      1.0  0.72871  0.37115  0.27770  1.0000
  C   C285      1.0  0.72942  0.54155  0.35480  1.0000
  C   C286      1.0  0.63354  0.43878  0.23899  1.0000
  H   H493      1.0  0.93654  0.29045  0.31663  1.0000
  H   H494      1.0  0.86413  0.09974  0.13412  1.0000
  H   H495      1.0  0.09420  0.48107  0.31849  1.0000
  S   S73       1.0  0.77850  0.21107  0.24214  1.0000
  C   C287      1.0  0.64084  0.43717  0.30298  1.0000
  C   C288      1.0  0.92868  0.38743  0.16422  1.0000
  H   H496      1.0  0.65665  0.21372  0.28181  1.0000
  H   H497      1.0  0.05010  0.20977  0.19310  1.0000
  C   C289      1.0  0.02126  0.36993  0.19874  1.0000
  S   S74       1.0  0.82203  0.33042  0.17182  1.0000
  H   H498      1.0  0.69470  0.47127  0.14373  1.0000
  C   C290      1.0  0.68646  0.54473  0.12495  1.0000
  C   C291      1.0  0.67504  0.18295  0.14045  1.0000
  C   C292      1.0  0.95832  0.24062  0.10999  1.0000
  H   H499      1.0  0.67459  0.21714  0.16065  1.0000
  H   H500      1.0  0.88094  0.26527  0.33231  1.0000
  H   H501      1.0  0.64062  0.16652  0.14849  1.0000
  C   C293      1.0  0.61978  0.46917  0.33747  1.0000
  C   C294      1.0  0.95945  0.37406  0.12071  1.0000
  H   H502      1.0  0.64866  0.53746  0.11776  1.0000
  C   C295      1.0  0.91198  0.46439  0.42195  1.0000
  H   H503      1.0  0.93081  0.53463  0.39277  1.0000
  C   C296      1.0  0.72018  0.25944  0.43597  1.0000
  S   S75       1.0  0.07034  0.33637  0.43922  1.0000
  C   C297      1.0  0.70452  0.53063  0.41545  1.0000
  C   C298      1.0  0.91669  0.51592  0.43417  1.0000
  C   C299      1.0  0.88268  0.38682  0.45005  1.0000
  H   H504      1.0  0.78668  0.48446  0.47011  1.0000
  H   H505      1.0  0.93930  0.46478  0.54237  1.0000
  S   S76       1.0  0.86460  0.27335  0.53209  1.0000
  C   C300      1.0  0.01417  0.07194  0.43717  1.0000
  C   C301      1.0  0.82966  0.18773  0.50924  1.0000
  C   C302      1.0  0.93127  0.43042  0.52447  1.0000
  H   H506      1.0  0.96429  0.41932  0.50605  1.0000
  C   C303      1.0  0.78455  0.23381  0.57343  1.0000
  H   H507      1.0  0.90931  0.36332  0.56894  1.0000
  H   H508      1.0  0.81911  0.46897  0.40729  1.0000
  C   C304      1.0  0.80909  0.45739  0.45423  1.0000
  H   H509      1.0  0.78854  0.42474  0.45163  1.0000
  C   C305      1.0  0.05752  0.39135  0.46045  1.0000
  H   H510      1.0  0.85996  0.18369  0.48227  1.0000
  C   C306      1.0  0.75719  0.15743  0.54977  1.0000
  H   H511      1.0  0.63776  0.29317  0.36546  1.0000
  H   H512      1.0  0.89013  0.46142  0.37929  1.0000
  C   C307      1.0  0.70899  0.16747  0.37303  1.0000
  C   C308      1.0  0.99241  0.05924  0.49207  1.0000
  H   H513      1.0  0.72490  0.54382  0.45496  1.0000
  H   H514      1.0  0.64733  0.24430  0.44924  1.0000
  S   S77       1.0  0.04307  0.53963  0.50930  1.0000
  H   H515      1.0  0.66874  0.54366  0.41442  1.0000
  H   H516      1.0  0.68505  0.20089  0.47768  1.0000
  H   H517      1.0  0.78002  0.26540  0.59612  1.0000
  C   C309      1.0  0.04692  0.48215  0.49199  1.0000
  H   H518      1.0  0.94680  0.45357  0.40871  1.0000
  C   C310      1.0  0.92042  0.39835  0.58118  1.0000
  H   H519      1.0  0.62545  0.14995  0.48413  1.0000
  C   C311      1.0  0.05765  0.40161  0.52238  1.0000
  H   H520      1.0  0.04878  0.41778  0.36682  1.0000
  H   H521      1.0  0.70175  0.49271  0.42378  1.0000
  C   C312      1.0  0.05347  0.44735  0.53820  1.0000
  C   C313      1.0  0.82363  0.22856  0.53850  1.0000
  N   N20       1.0  0.89413  0.43335  0.47416  1.0000
  H   H522      1.0  0.83804  0.42777  0.53763  1.0000
  H   H523      1.0  0.63416  0.48678  0.57283  1.0000
  H   H524      1.0  0.75330  0.24213  0.42929  1.0000
  H   H525      1.0  0.85768  0.48417  0.52303  1.0000
  S   S78       1.0  0.99003  0.28806  0.57672  1.0000
  H   H526      1.0  0.05501  0.45553  0.58594  1.0000
  Fe  Fe37      1.0  0.03310  0.28157  0.49465  1.0000
  S   S79       1.0  0.96120  0.17832  0.56469  1.0000
  C   C314      1.0  0.04359  0.47119  0.43042  1.0000
  H   H527      1.0  0.62475  0.46751  0.38681  1.0000
  H   H528      1.0  0.06239  0.37458  0.55794  1.0000
  H   H529      1.0  0.86201  0.36533  0.48336  1.0000
  C   C315      1.0  0.10028  0.08886  0.57864  1.0000
  C   C316      1.0  0.85088  0.45154  0.49987  1.0000
  S   S80       1.0  0.06656  0.21728  0.53262  1.0000
  C   C317      1.0  0.75157  0.19804  0.57964  1.0000
  H   H530      1.0  0.90327  0.53769  0.57867  1.0000
  Fe  Fe38      1.0  0.93621  0.24678  0.52655  1.0000
  S   S81       1.0  0.71497  0.11366  0.55613  1.0000
  H   H531      1.0  0.98442  0.08501  0.52366  1.0000
  C   C318      1.0  0.92452  0.35858  0.43332  1.0000
  C   C319      1.0  0.79596  0.15234  0.51410  1.0000
  H   H532      1.0  0.80033  0.12083  0.49118  1.0000
  H   H533      1.0  0.94523  0.34674  0.47466  1.0000
  Fe  Fe39      1.0  0.00806  0.18093  0.48400  1.0000
  H   H534      1.0  0.64907  0.10907  0.43476  1.0000
  S   S82       1.0  0.97727  0.24538  0.44164  1.0000
  H   H535      1.0  0.94133  0.52245  0.47299  1.0000
  H   H536      1.0  0.72362  0.27562  0.48088  1.0000
  H   H537      1.0  0.85971  0.39019  0.40793  1.0000
  C   C320      1.0  0.67845  0.22523  0.43740  1.0000
  H   H538      1.0  0.88277  0.53106  0.44233  1.0000
  H   H539      1.0  0.94751  0.37759  0.40057  1.0000
  H   H540      1.0  0.74141  0.18727  0.36213  1.0000
  H   H541      1.0  0.91132  0.32734  0.41101  1.0000
  C   C321      1.0  0.04974  0.42596  0.41462  1.0000
  S   S83       1.0  0.02931  0.12931  0.41865  1.0000
  H   H542      1.0  0.76267  0.52341  0.36046  1.0000
  H   H543      1.0  0.71687  0.14809  0.41754  1.0000
  H   H544      1.0  0.03733  0.49793  0.39481  1.0000
  H   H545      1.0  0.71557  0.28789  0.40054  1.0000
  N   N21       1.0  0.66939  0.19948  0.37990  1.0000
  H   H546      1.0  0.08375  0.12224  0.58422  1.0000
  C   C322      1.0  0.62233  0.13532  0.43822  1.0000
  C   C323      1.0  0.62400  0.17306  0.38561  1.0000
  H   H547      1.0  0.07389  0.06415  0.56157  1.0000
  H   H548      1.0  0.92259  0.22054  0.72587  1.0000
  H   H549      1.0  0.03870  0.10115  0.66353  1.0000
  C   C324      1.0  0.89498  0.54484  0.62509  1.0000
  C   C325      1.0  0.10123  0.24680  0.78135  1.0000
  H   H550      1.0  0.96229  0.16662  0.78708  1.0000
  S   S84       1.0  0.61489  0.15815  0.65231  1.0000
  H   H551      1.0  0.64832  0.38547  0.78412  1.0000
  H   H552      1.0  0.84015  0.13630  0.80440  1.0000
  C   C326      1.0  0.09038  0.22283  0.72878  1.0000
  H   H553      1.0  0.95243  0.39480  0.61076  1.0000
  C   C327      1.0  0.93104  0.15295  0.81085  1.0000
  H   H554      1.0  0.71628  0.41968  0.83372  1.0000
  H   H555      1.0  0.72133  0.20228  0.60654  1.0000
  H   H556      1.0  0.77646  0.17644  0.84373  1.0000
  S   S85       1.0  0.71485  0.15046  0.72925  1.0000
  Fe  Fe40      1.0  0.01759  0.21976  0.61013  1.0000
  S   S86       1.0  0.03261  0.20832  0.71103  1.0000
  H   H557      1.0  0.62072  0.43825  0.77345  1.0000
  H   H558      1.0  0.68720  0.47280  0.84481  1.0000
  H   H559      1.0  0.00196  0.10637  0.75441  1.0000
  S   S87       1.0  0.63544  0.25140  0.77834  1.0000
  N   N22       1.0  0.89428  0.18888  0.80937  1.0000
  H   H560      1.0  0.64482  0.33174  0.64337  1.0000
  H   H561      1.0  0.89388  0.41305  0.60959  1.0000
  Fe  Fe41      1.0  0.68397  0.08957  0.78165  1.0000
  H   H562      1.0  0.69996  0.45695  0.76936  1.0000
  H   H563      1.0  0.91891  0.12291  0.78497  1.0000
  H   H564      1.0  0.86782  0.19361  0.65046  1.0000
  H   H565      1.0  0.83035  0.16685  0.70572  1.0000
  C   C328      1.0  0.68883  0.44321  0.81532  1.0000
  C   C329      1.0  0.03073  0.08193  0.75853  1.0000
  C   C330      1.0  0.64169  0.41754  0.80772  1.0000
  H   H566      1.0  0.08351  0.12267  0.71291  1.0000
  C   C331      1.0  0.84976  0.16653  0.83141  1.0000
  C   C332      1.0  0.86717  0.17596  0.69694  1.0000
  H   H567      1.0  0.95643  0.26839  0.79196  1.0000
  S   S88       1.0  0.61784  0.12404  0.79859  1.0000
  H   H568      1.0  0.96475  0.53510  0.66020  1.0000
  H   H569      1.0  0.04989  0.08771  0.80261  1.0000
  H   H570      1.0  0.86706  0.24014  0.74200  1.0000
  C   C333      1.0  0.06231  0.09131  0.70340  1.0000
  C   C334      1.0  0.93003  0.54402  0.67119  1.0000
  H   H571      1.0  0.79920  0.21337  0.78333  1.0000
  S   S89       1.0  0.65560  0.05673  0.69726  1.0000
  Fe  Fe42      1.0  0.68097  0.12036  0.64577  1.0000
  C   C335      1.0  0.80726  0.19773  0.82990  1.0000
  N   N23       1.0  0.09305  0.05249  0.68870  1.0000
  H   H572      1.0  0.88726  0.14419  0.69463  1.0000
  S   S90       1.0  0.06260  0.51086  0.69241  1.0000
  H   H573      1.0  0.07399  0.25590  0.81106  1.0000
  Fe  Fe43      1.0  0.64645  0.18303  0.74027  1.0000
  C   C336      1.0  0.88844  0.20878  0.74414  1.0000
  C   C337      1.0  0.95568  0.25076  0.83839  1.0000
  H   H574      1.0  0.98491  0.22675  0.84409  1.0000
  C   C338      1.0  0.90815  0.22701  0.85070  1.0000
  H   H575      1.0  0.88238  0.25486  0.84625  1.0000
  H   H576      1.0  0.11205  0.39540  0.67568  1.0000
  H   H577      1.0  0.82927  0.60337  0.87299  1.0000
  C   C339      1.0  0.76802  0.94344  0.00386  1.0000
  H   H578      1.0  0.79430  0.83026  0.01636  1.0000
  H   H579      1.0  0.01678  0.70558  0.92838  1.0000
  H   H580      1.0  0.97621  0.85585  0.97752  1.0000
  C   C340      1.0  0.80305  0.94660  0.95141  1.0000
  H   H581      1.0  0.83945  0.73377  0.99597  1.0000
  C   C341      1.0  0.06677  0.78694  0.92187  1.0000
  Fe  Fe44      1.0  0.69700  0.79336  0.08333  1.0000
  C   C342      1.0  0.67729  0.72469  0.96997  1.0000
  C   C343      1.0  0.68188  0.70653  0.91254  1.0000
  S   S91       1.0  0.87214  0.56668  0.98064  1.0000
  H   H582      1.0  0.09850  0.64933  0.88533  1.0000
  C   C344      1.0  0.73890  0.89967  0.85875  1.0000
  C   C345      1.0  0.84248  0.74091  0.94561  1.0000
  C   C346      1.0  0.84672  0.87402  0.96658  1.0000
  S   S92       1.0  0.63184  0.83297  0.07527  1.0000
  H   H583      1.0  0.75069  0.90965  0.01206  1.0000
  C   C347      1.0  0.06676  0.96640  0.89519  1.0000
  H   H584      1.0  0.75745  0.63524  0.99727  1.0000
  H   H585      1.0  0.86217  0.84600  0.94172  1.0000
  Fe  Fe45      1.0  0.00220  0.02835  0.98591  1.0000
  H   H586      1.0  0.89359  0.96360  0.90532  1.0000
  H   H587      1.0  0.95966  0.92378  0.03502  1.0000
  H   H588      1.0  0.63907  0.58498  0.02759  1.0000
  H   H589      1.0  0.81933  0.87749  0.05910  1.0000
  H   H590      1.0  0.04323  0.79544  0.95865  1.0000
  H   H591      1.0  0.75266  0.86143  0.94334  1.0000
  H   H592      1.0  0.72539  0.93100  0.87788  1.0000
  C   C348      1.0  0.77332  0.87453  0.90408  1.0000
  C   C349      1.0  0.95331  0.80729  0.04903  1.0000
  H   H593      1.0  0.81044  0.62659  0.03875  1.0000
  S   S93       1.0  0.89162  0.66250  0.09195  1.0000
  H   H594      1.0  0.78206  0.70303  0.91597  1.0000
  C   C350      1.0  0.61384  0.65758  0.92922  1.0000
  H   H595      1.0  0.70939  0.71867  0.88299  1.0000
  C   C351      1.0  0.95322  0.88984  0.05586  1.0000
  H   H596      1.0  0.69152  0.66017  0.08574  1.0000
  C   C352      1.0  0.89210  0.93420  0.87538  1.0000
  H   H597      1.0  0.03263  0.83616  0.85772  1.0000
  H   H598      1.0  0.78406  0.84287  0.88243  1.0000
  H   H599      1.0  0.85126  0.82785  0.04767  1.0000
  C   C353      1.0  0.68894  0.54978  0.97968  1.0000
  C   C354      1.0  0.67726  0.58727  0.02325  1.0000
  C   C355      1.0  0.03945  0.79875  0.86126  1.0000
  H   H600      1.0  0.83476  0.96448  0.96944  1.0000
  H   H601      1.0  0.89549  0.04663  0.85822  1.0000
  C   C356      1.0  0.82565  0.85165  0.02518  1.0000
  C   C357      1.0  0.06624  0.65376  0.91031  1.0000
  H   H602      1.0  0.09553  0.81258  0.92528  1.0000
  C   C358      1.0  0.96243  0.85137  0.02314  1.0000
  N   N24       1.0  0.70139  0.58650  0.08572  1.0000
  S   S94       1.0  0.72001  0.76283  0.99754  1.0000
  S   S95       1.0  0.96306  0.76001  0.00621  1.0000
  S   S96       1.0  0.98143  0.63173  0.01973  1.0000
  H   H603      1.0  0.62550  0.82500  0.87565  1.0000
  S   S97       1.0  0.02602  0.00999  0.89375  1.0000
  H   H604      1.0  0.05328  0.72551  0.02113  1.0000
  C   C359      1.0  0.77295  0.63126  0.04434  1.0000
  H   H605      1.0  0.87632  0.89548  0.98331  1.0000
  Fe  Fe46      1.0  0.95876  0.69430  0.06309  1.0000
  C   C360      1.0  0.63935  0.71105  0.00569  1.0000
  S   S98       1.0  0.02524  0.99536  0.07651  1.0000
  Fe  Fe47      1.0  0.91648  0.59808  0.05420  1.0000
  H   H606      1.0  0.78554  0.95270  0.04785  1.0000
  H   H607      1.0  0.09363  0.97803  0.98628  1.0000
  C   C361      1.0  0.05080  0.70413  0.90605  1.0000
  H   H608      1.0  0.90128  0.65895  0.92575  1.0000
  C   C362      1.0  0.75344  0.58882  0.08116  1.0000
  H   H609      1.0  0.76923  0.66340  0.06858  1.0000
  H   H610      1.0  0.73996  0.96851  0.99360  1.0000
  C   C363      1.0  0.65048  0.67279  0.89243  1.0000
  H   H611      1.0  0.82944  0.66866  0.93748  1.0000
  H   H612      1.0  0.78860  0.97124  0.91543  1.0000
  H   H613      1.0  0.63480  0.72580  0.04943  1.0000
  H   H614      1.0  0.07086  0.63968  0.95837  1.0000
  H   H615      1.0  0.68288  0.62075  0.99786  1.0000
  C   C364      1.0  0.90891  0.65821  0.87652  1.0000
  C   C365      1.0  0.82010  0.70095  0.91116  1.0000
  C   C366      1.0  0.08828  0.72782  0.00110  1.0000
  S   S99       1.0  0.92655  0.02103  0.00596  1.0000
  C   C367      1.0  0.09655  0.95821  0.94634  1.0000
  H   H616      1.0  0.87971  0.74586  0.93597  1.0000
  H   H617      1.0  0.82383  0.77311  0.93355  1.0000
  N   N25       1.0  0.81551  0.90253  0.92349  1.0000
  N   N26       1.0  0.08463  0.73860  0.93253  1.0000
  H   H618      1.0  0.76696  0.55835  0.06008  1.0000
  H   H619      1.0  0.91626  0.90735  0.89393  1.0000
  H   H620      1.0  0.03869  0.63252  0.88798  1.0000
  H   H621      1.0  0.77173  0.62065  0.89039  1.0000
  H   H622      1.0  0.00487  0.78113  0.86103  1.0000
  H   H623      1.0  0.68251  0.56309  0.93137  1.0000
  H   H624      1.0  0.04880  0.55261  0.90484  1.0000
  H   H625      1.0  0.94667  0.66640  0.87542  1.0000
  C   C368      1.0  0.84219  0.91473  0.86594  1.0000
  H   H626      1.0  0.90335  0.62312  0.86039  1.0000
  H   H627      1.0  0.10567  0.79803  0.03097  1.0000
  Fe  Fe48      1.0  0.95026  0.99375  0.09968  1.0000
  H   H628      1.0  0.10364  0.69367  0.01187  1.0000
  H   H629      1.0  0.04275  0.71219  0.85676  1.0000
  H   H630      1.0  0.10869  0.85436  0.31944  1.0000
  H   H631      1.0  0.04487  0.79298  0.13962  1.0000
  H   H632      1.0  0.09337  0.83150  0.12932  1.0000
  H   H633      1.0  0.76011  0.96582  0.30072  1.0000
  H   H634      1.0  0.92849  0.76733  0.12805  1.0000
  S   S100      1.0  0.67664  0.75334  0.16953  1.0000
  C   C369      1.0  0.79781  0.75756  0.29339  1.0000
  S   S101      1.0  0.75717  0.79984  0.30309  1.0000
  N   N27       1.0  0.85279  0.93290  0.33727  1.0000
  S   S102      1.0  0.95077  0.57198  0.14314  1.0000
  C   C370      1.0  0.83658  0.70651  0.22851  1.0000
  C   C371      1.0  0.03784  0.86425  0.34433  1.0000
  C   C372      1.0  0.63706  0.62857  0.13956  1.0000
  C   C373      1.0  0.79020  0.97974  0.27478  1.0000
  H   H635      1.0  0.69916  0.68591  0.33186  1.0000
  H   H636      1.0  0.82919  0.56198  0.31418  1.0000
  H   H637      1.0  0.09344  0.91197  0.32468  1.0000
  C   C374      1.0  0.05920  0.83486  0.21808  1.0000
  H   H638      1.0  0.05415  0.96736  0.28408  1.0000
  C   C375      1.0  0.65304  0.97986  0.22781  1.0000
  H   H639      1.0  0.10954  0.90891  0.15736  1.0000
  H   H640      1.0  0.63313  0.60515  0.18098  1.0000
  S   S103      1.0  0.66012  0.95912  0.10696  1.0000
  C   C376      1.0  0.82992  0.94514  0.27536  1.0000
  C   C377      1.0  0.86331  0.68965  0.27931  1.0000
  H   H641      1.0  0.00858  0.88796  0.33538  1.0000
  C   C378      1.0  0.88144  0.85290  0.31213  1.0000
  H   H642      1.0  0.62854  0.66346  0.15310  1.0000
  H   H643      1.0  0.05535  0.98650  0.20455  1.0000
  H   H644      1.0  0.85577  0.95928  0.24218  1.0000
  S   S104      1.0  0.64695  0.85167  0.22165  1.0000
  H   H645      1.0  0.84025  0.69286  0.18417  1.0000
  C   C379      1.0  0.80525  0.56419  0.27348  1.0000
  H   H646      1.0  0.80174  0.01331  0.29210  1.0000
  H   H647      1.0  0.78044  0.63314  0.27499  1.0000
  H   H648      1.0  0.74302  0.59364  0.23778  1.0000
  C   C380      1.0  0.08058  0.87907  0.30660  1.0000
  H   H649      1.0  0.71013  0.66897  0.25540  1.0000
  S   S105      1.0  0.73688  0.84793  0.13287  1.0000
  H   H650      1.0  0.80010  0.87922  0.35429  1.0000
  H   H651      1.0  0.77038  0.58815  0.12793  1.0000
  Fe  Fe49      1.0  0.66954  0.88444  0.13193  1.0000
  C   C381      1.0  0.80375  0.74041  0.23553  1.0000
  H   H652      1.0  0.71060  0.63541  0.15706  1.0000
  H   H653      1.0  0.67030  0.59036  0.28592  1.0000
  C   C382      1.0  0.03697  0.96374  0.23866  1.0000
  C   C383      1.0  0.82459  0.74085  0.34409  1.0000
  H   H654      1.0  0.09073  0.64306  0.21332  1.0000
  H   H655      1.0  0.08345  0.80882  0.23950  1.0000
  H   H656      1.0  0.91070  0.83570  0.18514  1.0000
  H   H657      1.0  0.86662  0.83311  0.35204  1.0000
  S   S106      1.0  0.99624  0.67717  0.15262  1.0000
  H   H658      1.0  0.81506  0.91381  0.25442  1.0000
  N   N28       1.0  0.73647  0.59191  0.33653  1.0000
  C   C384      1.0  0.63368  0.98384  0.16789  1.0000
  H   H659      1.0  0.65220  0.67082  0.28142  1.0000
  C   C385      1.0  0.92563  0.84013  0.14036  1.0000
  H   H660      1.0  0.04165  0.04819  0.35411  1.0000
  C   C386      1.0  0.76523  0.59774  0.27972  1.0000
  H   H661      1.0  0.91363  0.83546  0.30089  1.0000
  H   H662      1.0  0.91462  0.91777  0.28884  1.0000
  S   S107      1.0  0.90265  0.64524  0.27337  1.0000
  H   H663      1.0  0.77743  0.98654  0.22645  1.0000
  H   H664      1.0  0.02401  0.82430  0.23390  1.0000
  N   N29       1.0  0.07266  0.88249  0.23768  1.0000
  C   C387      1.0  0.85720  0.70695  0.33690  1.0000
  H   H665      1.0  0.88603  0.02278  0.28882  1.0000
  C   C388      1.0  0.68727  0.62889  0.11676  1.0000
  C   C389      1.0  0.89356  0.90293  0.32728  1.0000
  C   C390      1.0  0.68910  0.61121  0.32067  1.0000
  C   C391      1.0  0.90329  0.00722  0.33097  1.0000
  C   C392      1.0  0.68837  0.66199  0.29586  1.0000
  H   H666      1.0  0.85707  0.85098  0.27183  1.0000
  C   C393      1.0  0.93401  0.88429  0.11392  1.0000
  H   H667      1.0  0.78326  0.75343  0.19613  1.0000
  Fe  Fe50      1.0  0.71159  0.81091  0.21870  1.0000
  H   H668      1.0  0.93477  0.98926  0.31852  1.0000
  H   H669      1.0  0.03484  0.85239  0.12210  1.0000
  H   H670      1.0  0.64843  0.00045  0.32124  1.0000
  H   H671      1.0  0.68449  0.96085  0.23689  1.0000
  H   H672      1.0  0.00145  0.97691  0.24291  1.0000
  H   H673      1.0  0.99930  0.89909  0.23152  1.0000
  C   C394      1.0  0.03357  0.91402  0.21791  1.0000
  H   H674      1.0  0.82633  0.57636  0.23374  1.0000
  Fe  Fe51      1.0  0.93026  0.63951  0.17879  1.0000
  H   H675      1.0  0.02993  0.91724  0.16697  1.0000
  C   C395      1.0  0.05817  0.82825  0.14817  1.0000
  H   H676      1.0  0.69140  0.55096  0.17471  1.0000
  S   S108      1.0  0.92045  0.93271  0.15288  1.0000
  C   C396      1.0  0.63248  0.00189  0.27553  1.0000
  H   H677      1.0  0.02618  0.82849  0.33633  1.0000
  C   C397      1.0  0.93567  0.80149  0.10805  1.0000
  Fe  Fe52      1.0  0.01420  0.61152  0.11119  1.0000
  H   H678      1.0  0.10234  0.55592  0.34184  1.0000
  Fe  Fe53      1.0  0.61363  0.79726  0.16535  1.0000
  S   S109      1.0  0.08733  0.58752  0.10829  1.0000
  H   H679      1.0  0.87793  0.69410  0.37577  1.0000
  C   C398      1.0  0.61857  0.88288  0.44242  1.0000
  S   S110      1.0  0.97464  0.92192  0.48118  1.0000
  C   C399      1.0  0.99691  0.74348  0.49182  1.0000
  C   C400      1.0  0.95073  0.65303  0.52053  1.0000
  H   H680      1.0  0.01492  0.74489  0.53740  1.0000
  H   H681      1.0  0.80936  0.72293  0.53643  1.0000
  Fe  Fe54      1.0  0.66357  0.64951  0.54335  1.0000
  H   H682      1.0  0.86637  0.68606  0.47845  1.0000
  H   H683      1.0  0.91820  0.90171  0.36774  1.0000
  C   C401      1.0  0.64516  0.95024  0.58807  1.0000
  H   H684      1.0  0.87250  0.88221  0.44424  1.0000
  H   H685      1.0  0.96622  0.61011  0.44597  1.0000
  H   H686      1.0  0.70654  0.81504  0.54449  1.0000
  H   H687      1.0  0.76422  0.65524  0.37183  1.0000
  H   H688      1.0  0.81031  0.61529  0.46146  1.0000
  C   C402      1.0  0.94374  0.63962  0.45333  1.0000
  C   C403      1.0  0.80503  0.60235  0.41476  1.0000
  C   C404      1.0  0.83543  0.89111  0.44210  1.0000
  H   H689      1.0  0.66311  0.94144  0.46141  1.0000
  S   S111      1.0  0.88626  0.85773  0.58801  1.0000
  H   H690      1.0  0.63273  0.89028  0.39600  1.0000
  C   C405      1.0  0.98139  0.01290  0.50654  1.0000
  H   H691      1.0  0.04732  0.86529  0.39415  1.0000
  C   C406      1.0  0.84657  0.73085  0.54655  1.0000
  H   H692      1.0  0.90754  0.62796  0.44354  1.0000
  C   C407      1.0  0.99115  0.97943  0.46549  1.0000
  C   C408      1.0  0.71130  0.81528  0.59398  1.0000
  C   C409      1.0  0.87014  0.97515  0.36853  1.0000
  N   N30       1.0  0.61405  0.93607  0.53478  1.0000
  H   H693      1.0  0.80662  0.56461  0.42155  1.0000
  C   C410      1.0  0.87569  0.69052  0.52755  1.0000
  C   C411      1.0  0.75796  0.61875  0.38781  1.0000
  C   C412      1.0  0.01323  0.99212  0.41091  1.0000
  H   H694      1.0  0.95386  0.66748  0.41943  1.0000
  H   H695      1.0  0.93847  0.62282  0.54936  1.0000
  N   N31       1.0  0.92752  0.69637  0.53687  1.0000
  H   H696      1.0  0.81601  0.85918  0.45681  1.0000
  S   S112      1.0  0.73060  0.67135  0.58834  1.0000
  S   S113      1.0  0.80837  0.56430  0.57876  1.0000
  H   H697      1.0  0.61803  0.84007  0.56625  1.0000
  Fe  Fe55      1.0  0.93111  0.91939  0.56440  1.0000
  H   H698      1.0  0.96550  0.00323  0.54961  1.0000
  S   S114      1.0  0.75958  0.89597  0.57362  1.0000
  S   S115      1.0  0.64682  0.67923  0.44799  1.0000
  C   C413      1.0  0.81755  0.90831  0.37747  1.0000
  C   C414      1.0  0.64348  0.91447  0.48863  1.0000
  H   H699      1.0  0.78845  0.93126  0.38577  1.0000
  H   H700      1.0  0.02087  0.96622  0.37954  1.0000
  H   H701      1.0  0.86249  0.65849  0.55192  1.0000
  H   H702      1.0  0.73381  0.62152  0.42626  1.0000
  H   H703      1.0  0.66692  0.60933  0.36147  1.0000
  H   H704      1.0  0.62656  0.84631  0.45461  1.0000
  H   H705      1.0  0.81989  0.75399  0.38890  1.0000
  H   H706      1.0  0.01204  0.71611  0.46591  1.0000
  S   S116      1.0  0.67888  0.57476  0.55744  1.0000
  H   H707      1.0  0.85021  0.73632  0.59643  1.0000
  H   H708      1.0  0.85472  0.76330  0.51971  1.0000
  H   H709      1.0  0.00451  0.77667  0.46610  1.0000
  C   C415      1.0  0.68236  0.98786  0.57310  1.0000
  C   C416      1.0  0.02479  0.03836  0.39667  1.0000
  C   C417      1.0  0.94384  0.73718  0.49688  1.0000
  H   H710      1.0  0.98875  0.65523  0.53064  1.0000
  H   H711      1.0  0.84078  0.99592  0.38250  1.0000
  H   H712      1.0  0.61792  0.00386  0.48829  1.0000
  H   H713      1.0  0.66681  0.02218  0.56509  1.0000
  H   H714      1.0  0.70328  0.98013  0.53342  1.0000
  H   H715      1.0  0.93158  0.76979  0.51438  1.0000
  H   H716      1.0  0.88915  0.96533  0.41255  1.0000
  H   H717      1.0  0.67034  0.89292  0.51310  1.0000
  S   S117      1.0  0.87539  0.97016  0.57695  1.0000
  H   H718      1.0  0.83381  0.61558  0.38580  1.0000
  H   H719      1.0  0.83020  0.91749  0.47585  1.0000
  H   H720      1.0  0.92854  0.73613  0.44936  1.0000
  C   C418      1.0  0.94016  0.70515  0.60299  1.0000
  H   H721      1.0  0.07252  0.98428  0.57946  1.0000
  Fe  Fe56      1.0  0.06661  0.55512  0.60505  1.0000
  H   H722      1.0  0.91516  0.03591  0.35961  1.0000
  H   H723      1.0  0.90242  0.72770  0.83933  1.0000
  H   H724      1.0  0.81394  0.78394  0.72439  1.0000
  H   H725      1.0  0.78092  0.59022  0.82328  1.0000
  S   S118      1.0  0.96554  0.56309  0.78516  1.0000
  N   N32       1.0  0.83156  0.69974  0.84429  1.0000
  H   H726      1.0  0.79561  0.72521  0.71894  1.0000
  C   C419      1.0  0.82169  0.03129  0.73579  1.0000
  C   C420      1.0  0.08391  0.97768  0.62835  1.0000
  Fe  Fe57      1.0  0.90263  0.96931  0.67465  1.0000
  S   S119      1.0  0.10883  0.71560  0.65197  1.0000
  H   H727      1.0  0.88882  0.68677  0.67289  1.0000
  C   C421      1.0  0.73506  0.85187  0.62065  1.0000
  C   C422      1.0  0.91848  0.67119  0.65169  1.0000
  H   H728      1.0  0.09936  0.02933  0.78518  1.0000
  H   H729      1.0  0.75775  0.88113  0.70540  1.0000
  C   C423      1.0  0.83994  0.56731  0.69855  1.0000
  C   C424      1.0  0.05934  0.74067  0.67793  1.0000
  H   H730      1.0  0.90555  0.94687  0.83017  1.0000
  H   H731      1.0  0.97838  0.70438  0.61106  1.0000
  C   C425      1.0  0.88287  0.69449  0.83526  1.0000
  S   S120      1.0  0.62244  0.64975  0.62891  1.0000
  H   H732      1.0  0.88915  0.68555  0.78737  1.0000
  C   C426      1.0  0.04463  0.78284  0.65165  1.0000
  H   H733      1.0  0.04894  0.99295  0.71073  1.0000
  Fe  Fe58      1.0  0.02950  0.57084  0.73094  1.0000
  H   H734      1.0  0.06962  0.94287  0.64123  1.0000
  H   H735      1.0  0.99278  0.83447  0.65067  1.0000
  H   H736      1.0  0.62424  0.96262  0.62569  1.0000
  H   H737      1.0  0.03098  0.02551  0.64338  1.0000
  C   C427      1.0  0.80332  0.66204  0.81460  1.0000
  H   H738      1.0  0.82360  0.94076  0.83550  1.0000
  S   S121      1.0  0.93009  0.80474  0.74646  1.0000
  C   C428      1.0  0.77907  0.04664  0.82609  1.0000
  H   H739      1.0  0.80536  0.57658  0.70929  1.0000
  Fe  Fe59      1.0  0.64466  0.57676  0.64767  1.0000
  Fe  Fe60      1.0  0.74337  0.59665  0.60822  1.0000
  H   H740      1.0  0.82185  0.02412  0.68757  1.0000
  H   H741      1.0  0.65487  0.65829  0.84832  1.0000
  C   C429      1.0  0.86309  0.04458  0.83193  1.0000
  C   C430      1.0  0.92030  0.55587  0.73070  1.0000
  S   S122      1.0  0.91563  0.02871  0.73351  1.0000
  Fe  Fe61      1.0  0.69049  0.66793  0.67506  1.0000
  C   C431      1.0  0.97945  0.78010  0.71934  1.0000
  H   H742      1.0  0.74760  0.03422  0.73727  1.0000
  S   S123      1.0  0.96173  0.92359  0.65980  1.0000
  C   C432      1.0  0.87495  0.56588  0.74481  1.0000
  H   H743      1.0  0.76748  0.67369  0.80234  1.0000
  Fe  Fe62      1.0  0.83253  0.90863  0.60780  1.0000
  H   H744      1.0  0.94424  0.66346  0.68972  1.0000
  H   H745      1.0  0.05849  0.79078  0.82016  1.0000
  H   H746      1.0  0.01464  0.04705  0.76043  1.0000
  C   C433      1.0  0.82107  0.74826  0.74194  1.0000
  C   C434      1.0  0.07064  0.94071  0.84338  1.0000
  H   H747      1.0  0.67802  0.74914  0.61015  1.0000
  Fe  Fe63      1.0  0.91204  0.86592  0.68475  1.0000
  H   H748      1.0  0.90709  0.63798  0.63425  1.0000
  C   C435      1.0  0.85016  0.55758  0.63845  1.0000
  C   C436      1.0  0.81731  0.74491  0.81263  1.0000
  H   H749      1.0  0.73026  0.81427  0.77123  1.0000
  H   H750      1.0  0.85631  0.74107  0.72760  1.0000
  H   H751      1.0  0.83891  0.77398  0.82982  1.0000
  H   H752      1.0  0.04687  0.94626  0.80434  1.0000
  C   C437      1.0  0.86341  0.03577  0.76948  1.0000
  S   S124      1.0  0.70993  0.59492  0.70009  1.0000
  H   H753      1.0  0.75435  0.90866  0.81362  1.0000
  S   S125      1.0  0.02856  0.61255  0.64206  1.0000
  H   H754      1.0  0.06364  0.79982  0.61462  1.0000
  H   H755      1.0  0.78074  0.75248  0.82291  1.0000
  H   H756      1.0  0.97416  0.71979  0.78054  1.0000
  S   S126      1.0  0.09561  0.60361  0.76433  1.0000
  Fe  Fe64      1.0  0.09794  0.64016  0.67137  1.0000
  S   S127      1.0  0.69422  0.72552  0.73930  1.0000
  C   C438      1.0  0.00441  0.80236  0.67194  1.0000
  H   H757      1.0  0.81834  0.65348  0.77035  1.0000
  S   S128      1.0  0.85484  0.91185  0.70678  1.0000
  C   C439      1.0  0.99373  0.73753  0.74470  1.0000
  C   C440      1.0  0.74053  0.85224  0.68470  1.0000
  H   H758      1.0  0.86730  0.57364  0.79107  1.0000
  C   C441      1.0  0.77961  0.03721  0.76393  1.0000
  C   C442      1.0  0.72450  0.81474  0.72191  1.0000
  C   C443      1.0  0.70409  0.77650  0.69479  1.0000
  C   C444      1.0  0.06242  0.01257  0.66955  1.0000
  C   C445      1.0  0.03342  0.71768  0.72368  1.0000
  H   H759      1.0  0.04404  0.68470  0.74343  1.0000
  C   C446      1.0  0.69570  0.77766  0.63111  1.0000
  H   H760      1.0  0.10827  0.72188  0.81197  1.0000
  H   H761      1.0  0.92982  0.74032  0.61378  1.0000
  C   C447      1.0  0.79634  0.61666  0.85312  1.0000
  C   C448      1.0  0.10450  0.90715  0.84257  1.0000
  H   H762      1.0  0.61376  0.86647  0.63932  1.0000
  H   H763      1.0  0.84533  0.88396  0.83828  1.0000
  H   H764      1.0  0.66460  0.92045  0.60886  1.0000
  H   H765      1.0  0.70700  0.99026  0.61324  1.0000
  H   H766      1.0  0.10681  0.88681  0.80305  1.0000
  H   H767      1.0  0.09808  0.85793  0.70580  1.0000
  H   H768      1.0  0.70861  0.87643  0.84978  1.0000
